data_image0
_chemical_formula_structural       Ag2AuO6
_chemical_formula_sum              "Ag2 Au1 O6"
_cell_length_a       5.454041257270138
_cell_length_b       5.454041347856408
_cell_length_c       5.4540413888364805
_cell_angle_alpha    59.9999987091876
_cell_angle_beta     59.999999417100874
_cell_angle_gamma    59.99999888120101

_space_group_name_H-M_alt    "P 1"
_space_group_IT_number       1

loop_
  _space_group_symop_operation_xyz
  'x, y, z'

loop_
  _atom_site_type_symbol
  _atom_site_label
  _atom_site_symmetry_multiplicity
  _atom_site_fract_x
  _atom_site_fract_y
  _atom_site_fract_z
  _atom_site_occupancy
  Ag  Ag1       1.0  0.24999998637428075  0.249999998063586  0.25000002007613703  1.0000
  Ag  Ag2       1.0  0.7500000167774747  0.7500000054186235  0.7500000202866539  1.0000
  Au  Au1       1.0  2.3160187288021087e-08  6.736719253142366e-09  0.999999990552055  1.0000
  O   O1        1.0  0.255783354225875  0.25578329697408186  0.7442166858488525  1.0000
  O   O2        1.0  0.7442166893644513  0.7442167693841765  0.25578326251956696  1.0000
  O   O3        1.0  0.7442166653154849  0.2557833189094597  0.2557832797281293  1.0000
  O   O4        1.0  0.25578320295897866  0.7442166890638987  0.7442167048165499  1.0000
  O   O5        1.0  0.25578331427675943  0.7442167266698757  0.2557833163991451  1.0000
  O   O6        1.0  0.7442167251453776  0.25578322516415114  0.7442167023165023  1.0000
