data_image0
_chemical_formula_structural       Ag2AuS6
_chemical_formula_sum              "Ag2 Au1 S6"
_cell_length_a       6.4517908892199864
_cell_length_b       6.451790799621567
_cell_length_c       6.45179082808103
_cell_angle_alpha    59.99999966356568
_cell_angle_beta     60.000000238732795
_cell_angle_gamma    60.00000007037039

_space_group_name_H-M_alt    "P 1"
_space_group_IT_number       1

loop_
  _space_group_symop_operation_xyz
  'x, y, z'

loop_
  _atom_site_type_symbol
  _atom_site_label
  _atom_site_symmetry_multiplicity
  _atom_site_fract_x
  _atom_site_fract_y
  _atom_site_fract_z
  _atom_site_occupancy
  Ag  Ag1       1.0  0.25000002373078906  0.25000001800293103  0.24999995320639318  1.0000
  Ag  Ag2       1.0  0.7500000334280243  0.7500000008563308  0.7499999732757012  1.0000
  Au  Au1       1.0  1.0304155771235475e-08  2.277962658950367e-08  5.157510347264725e-09  1.0000
  S   S1        1.0  0.26934955968186397  0.26934955021197843  0.7306504200112373  1.0000
  S   S2        1.0  0.7306503972517081  0.730650468647283  0.2693495054348888  1.0000
  S   S3        1.0  0.7306503956277125  0.2693495889534998  0.26934963436360493  1.0000
  S   S4        1.0  0.26934944198903066  0.7306504925497339  0.7306504837144185  1.0000
  S   S5        1.0  0.2693495997989742  0.7306504174836548  0.2693495928099507  1.0000
  S   S6        1.0  0.7306505379911145  0.26934944001991906  0.7306504298328114  1.0000
