data_image0
_chemical_formula_structural       Ag2BeSe6
_chemical_formula_sum              "Ag2 Be1 Se6"
_cell_length_a       6.37050044531498
_cell_length_b       6.370507327277936
_cell_length_c       6.370502437459489
_cell_angle_alpha    60.00004749059148
_cell_angle_beta     59.9999847885926
_cell_angle_gamma    59.99997892763686

_space_group_name_H-M_alt    "P 1"
_space_group_IT_number       1

loop_
  _space_group_symop_operation_xyz
  'x, y, z'

loop_
  _atom_site_type_symbol
  _atom_site_label
  _atom_site_symmetry_multiplicity
  _atom_site_fract_x
  _atom_site_fract_y
  _atom_site_fract_z
  _atom_site_occupancy
  Ag  Ag1       1.0  0.2499998925822852  0.2499997606061482  0.2500003537191318  1.0000
  Ag  Ag2       1.0  0.7499999309479333  0.7499998816451272  0.750000141746848  1.0000
  Be  Be1       1.0  0.9999998591377889  0.9999996558683452  0.9999993430387836  1.0000
  Se  Se1       1.0  0.28334171689566207  0.28334157650766223  0.7166597735347512  1.0000
  Se  Se2       1.0  0.7166587279292616  0.7166589750967125  0.2833415530278473  1.0000
  Se  Se3       1.0  0.7166583767956323  0.2833406613989172  0.2833411957889776  1.0000
  Se  Se4       1.0  0.2833400152057777  0.7166588328188853  0.7166592543592044  1.0000
  Se  Se5       1.0  0.28334235792416324  0.7166593507233902  0.283340151368096  1.0000
  Se  Se6       1.0  0.7166591489789341  0.28334117396433556  0.7166583846375629  1.0000
