data_image0
_chemical_formula_structural       Ag2BeS6
_chemical_formula_sum              "Ag2 Be1 S6"
_cell_length_a       6.246977821965696
_cell_length_b       6.246977990011546
_cell_length_c       6.246978108745623
_cell_angle_alpha    60.00000098663654
_cell_angle_beta     59.99999959129558
_cell_angle_gamma    60.000000692461555

_space_group_name_H-M_alt    "P 1"
_space_group_IT_number       1

loop_
  _space_group_symop_operation_xyz
  'x, y, z'

loop_
  _atom_site_type_symbol
  _atom_site_label
  _atom_site_symmetry_multiplicity
  _atom_site_fract_x
  _atom_site_fract_y
  _atom_site_fract_z
  _atom_site_occupancy
  Ag  Ag1       1.0  0.2500000335811777  0.2500000887327596  0.24999994329207567  1.0000
  Ag  Ag2       1.0  0.750000001233638  0.7499999270249056  0.7500000396132125  1.0000
  Be  Be1       1.0  6.727501983379157e-10  0.9999999647102844  0.9999999804906808  1.0000
  S   S1        1.0  0.26379231626879135  0.26379242414105647  0.7362075617933714  1.0000
  S   S2        1.0  0.7362077016701026  0.7362074426155887  0.2637924480232963  1.0000
  S   S3        1.0  0.7362074194783083  0.2637926276719467  0.2637923438120599  1.0000
  S   S4        1.0  0.2637926849035146  0.736207423375434  0.7362076218818954  1.0000
  S   S5        1.0  0.2637924674079325  0.7362074500349247  0.26379235764493547  1.0000
  S   S6        1.0  0.7362073815370538  0.26379265198648927  0.736207699075002  1.0000
