data_image0
_chemical_formula_structural       Ag2BeTe6
_chemical_formula_sum              "Ag2 Be1 Te6"
_cell_length_a       7.04184238991152
_cell_length_b       7.0418421896091585
_cell_length_c       7.041842844325453
_cell_angle_alpha    59.99999630642541
_cell_angle_beta     59.99999533296768
_cell_angle_gamma    59.99999532485477

_space_group_name_H-M_alt    "P 1"
_space_group_IT_number       1

loop_
  _space_group_symop_operation_xyz
  'x, y, z'

loop_
  _atom_site_type_symbol
  _atom_site_label
  _atom_site_symmetry_multiplicity
  _atom_site_fract_x
  _atom_site_fract_y
  _atom_site_fract_z
  _atom_site_occupancy
  Ag  Ag1       1.0  0.24999999190760494  0.24999997204009422  0.2500000302278913  1.0000
  Ag  Ag2       1.0  0.7500000752173447  0.7500000013430104  0.7499999074397428  1.0000
  Be  Be1       1.0  0.9999999976098176  2.9740993434822667e-07  0.9999997190023382  1.0000
  Te  Te1       1.0  0.23086215208590524  0.23086186525353178  0.7691380221416251  1.0000
  Te  Te2       1.0  0.7691377759598798  0.7691379202917223  0.23086223803379513  1.0000
  Te  Te3       1.0  0.7691380113275256  0.23086188274988736  0.23086216853633632  1.0000
  Te  Te4       1.0  0.2308618589566883  0.7691382089014988  0.7691377487740497  1.0000
  Te  Te5       1.0  0.23086197692403512  0.7691380683824045  0.23086222851708313  1.0000
  Te  Te6       1.0  0.7691381581789856  0.23086177977546388  0.7691379536267203  1.0000
