data_image0
_chemical_formula_structural       Ag2CO6
_chemical_formula_sum              "Ag2 C1 O6"
_cell_length_a       4.84333749045845
_cell_length_b       4.8433377198741425
_cell_length_c       4.843337453207596
_cell_angle_alpha    60.000000804167875
_cell_angle_beta     60.00000210339818
_cell_angle_gamma    59.99999899733721

_space_group_name_H-M_alt    "P 1"
_space_group_IT_number       1

loop_
  _space_group_symop_operation_xyz
  'x, y, z'

loop_
  _atom_site_type_symbol
  _atom_site_label
  _atom_site_symmetry_multiplicity
  _atom_site_fract_x
  _atom_site_fract_y
  _atom_site_fract_z
  _atom_site_occupancy
  Ag  Ag1       1.0  0.2499999497063661  0.2499999367898154  0.25000008586574746  1.0000
  Ag  Ag2       1.0  0.7499999732575153  0.7500000101383849  0.7500000089265015  1.0000
  C   C1        1.0  5.704898719481699e-08  5.057441421931867e-08  0.9999999193473039  1.0000
  O   O1        1.0  0.21280994806747827  0.21281001709104347  0.7871900531960678  1.0000
  O   O2        1.0  0.7871900121246698  0.787190061330636  0.21280995104123182  1.0000
  O   O3        1.0  0.787190031495653  0.21281003622305478  0.21280995278873194  1.0000
  O   O4        1.0  0.21280999590999264  0.7871899764518836  0.7871899949685074  1.0000
  O   O5        1.0  0.21280996442069158  0.7871899744443509  0.2128099903212183  1.0000
  O   O6        1.0  0.7871900130882691  0.21280998765617348  0.7871900221244141  1.0000
