data_image0
_chemical_formula_structural       Ag2CaTe6
_chemical_formula_sum              "Ag2 Ca1 Te6"
_cell_length_a       7.635306199703196
_cell_length_b       7.635306497816754
_cell_length_c       7.635306371058547
_cell_angle_alpha    60.00000002196391
_cell_angle_beta     60.00000170995538
_cell_angle_gamma    59.99999733469838

_space_group_name_H-M_alt    "P 1"
_space_group_IT_number       1

loop_
  _space_group_symop_operation_xyz
  'x, y, z'

loop_
  _atom_site_type_symbol
  _atom_site_label
  _atom_site_symmetry_multiplicity
  _atom_site_fract_x
  _atom_site_fract_y
  _atom_site_fract_z
  _atom_site_occupancy
  Ag  Ag1       1.0  0.24999997549207767  0.24999994592888097  0.2500000474414706  1.0000
  Ag  Ag2       1.0  0.7500000053577561  0.7500000366894156  0.7499999942643286  1.0000
  Ca  Ca1       1.0  3.6539348328270265e-08  4.0101363342303394e-08  4.419106850502602e-08  1.0000
  Te  Te1       1.0  0.28604693729358804  0.2860469216787104  0.7139530719175579  1.0000
  Te  Te2       1.0  0.7139530504154099  0.7139530448990408  0.28604688924809796  1.0000
  Te  Te3       1.0  0.7139531317013201  0.2860468962143991  0.2860468937443025  1.0000
  Te  Te4       1.0  0.2860468706721629  0.7139530944241709  0.7139530585363427  1.0000
  Te  Te5       1.0  0.28604689739596206  0.7139531458604508  0.2860468908451155  1.0000
  Te  Te6       1.0  0.7139530901898191  0.2860468800673213  0.7139531035729847  1.0000
