data_image0
_chemical_formula_structural       Ag2CaSe6
_chemical_formula_sum              "Ag2 Ca1 Se6"
_cell_length_a       6.949216996815165
_cell_length_b       6.9492171777388165
_cell_length_c       6.949216979846903
_cell_angle_alpha    60.000000396916704
_cell_angle_beta     60.00000123467448
_cell_angle_gamma    60.00000388766269

_space_group_name_H-M_alt    "P 1"
_space_group_IT_number       1

loop_
  _space_group_symop_operation_xyz
  'x, y, z'

loop_
  _atom_site_type_symbol
  _atom_site_label
  _atom_site_symmetry_multiplicity
  _atom_site_fract_x
  _atom_site_fract_y
  _atom_site_fract_z
  _atom_site_occupancy
  Ag  Ag1       1.0  0.2499999883904733  0.24999995727825808  0.2500000196928559  1.0000
  Ag  Ag2       1.0  0.7499999857127492  0.7500000145909005  0.7500000911117122  1.0000
  Ca  Ca1       1.0  0.9999999611951095  1.7624205057870025e-09  0.999999968155848  1.0000
  Se  Se1       1.0  0.29386491416319754  0.2938648418457582  0.7061351075405307  1.0000
  Se  Se2       1.0  0.7061350824626516  0.706135226956576  0.29386473200151236  1.0000
  Se  Se3       1.0  0.7061351028103204  0.29386493759488314  0.29386511170780305  1.0000
  Se  Se4       1.0  0.29386484728998297  0.7061351312074464  0.7061350374602131  1.0000
  Se  Se5       1.0  0.293864942038579  0.7061350967793326  0.2938649978430055  1.0000
  Se  Se6       1.0  0.706135170904106  0.2938647975432942  0.7061349470480601  1.0000
