data_image0
_chemical_formula_structural       Ag2CoTe6
_chemical_formula_sum              "Ag2 Co1 Te6"
_cell_length_a       6.941181542105091
_cell_length_b       6.941181408283227
_cell_length_c       6.941181342705268
_cell_angle_alpha    59.9999997966666
_cell_angle_beta     59.99999903342711
_cell_angle_gamma    60.00000494261585

_space_group_name_H-M_alt    "P 1"
_space_group_IT_number       1

loop_
  _space_group_symop_operation_xyz
  'x, y, z'

loop_
  _atom_site_type_symbol
  _atom_site_label
  _atom_site_symmetry_multiplicity
  _atom_site_fract_x
  _atom_site_fract_y
  _atom_site_fract_z
  _atom_site_occupancy
  Ag  Ag1       1.0  0.2499999154660552  0.2500001334281476  0.24999995923629786  1.0000
  Ag  Ag2       1.0  0.7500000137830743  0.7499999874004306  0.7500002241870646  1.0000
  Co  Co1       1.0  2.6838897889452278e-08  0.9999997847356787  2.195516071844717e-07  1.0000
  Te  Te1       1.0  0.25079053069694557  0.25079059006304943  0.7492093611448869  1.0000
  Te  Te2       1.0  0.7492096345428646  0.7492094266623046  0.2507902189622401  1.0000
  Te  Te3       1.0  0.7492094074055136  0.25079088206878664  0.2507904916944767  1.0000
  Te  Te4       1.0  0.25079051713838896  0.7492092528754843  0.7492095357525728  1.0000
  Te  Te5       1.0  0.2507904831886393  0.7492093686344518  0.25079053715341615  1.0000
  Te  Te6       1.0  0.7492095118501195  0.25079052987196054  0.7492094695363938  1.0000
