data_image0
_chemical_formula_structural       Ag2CO6
_chemical_formula_sum              "Ag2 C1 O6"
_cell_length_a       4.843273748713313
_cell_length_b       4.843273828620903
_cell_length_c       4.843274299175378
_cell_angle_alpha    59.999991985229684
_cell_angle_beta     59.99999281043169
_cell_angle_gamma    59.9999929943514

_space_group_name_H-M_alt    "P 1"
_space_group_IT_number       1

loop_
  _space_group_symop_operation_xyz
  'x, y, z'

loop_
  _atom_site_type_symbol
  _atom_site_label
  _atom_site_symmetry_multiplicity
  _atom_site_fract_x
  _atom_site_fract_y
  _atom_site_fract_z
  _atom_site_occupancy
  Ag  Ag1       1.0  0.25000005548864945  0.2500000735791889  0.24999996748876058  1.0000
  Ag  Ag2       1.0  0.7500001151266451  0.7499999956784322  0.7499999931769755  1.0000
  C   C1        1.0  4.1612788962079174e-08  6.827637157177999e-08  0.9999998253017198  1.0000
  O   O1        1.0  0.21281291812628939  0.21281299126362904  0.7871870694024412  1.0000
  O   O2        1.0  0.7871869801690415  0.7871870223614035  0.21281303459239093  1.0000
  O   O3        1.0  0.7871869908462017  0.21281290875407488  0.21281303590336187  1.0000
  O   O4        1.0  0.21281295631356897  0.7871870011920272  0.7871871140811881  1.0000
  O   O5        1.0  0.21281291397000973  0.7871869946623165  0.21281299653011096  1.0000
  O   O6        1.0  0.7871869567280865  0.21281296585887677  0.7871871127150396  1.0000
