data_image0
_chemical_formula_structural       Ag2CoTe6
_chemical_formula_sum              "Ag2 Co1 Te6"
_cell_length_a       6.9408808825647625
_cell_length_b       6.940880704406683
_cell_length_c       6.940878226536313
_cell_angle_alpha    60.00000750796787
_cell_angle_beta     59.99999739346778
_cell_angle_gamma    60.00000670896908

_space_group_name_H-M_alt    "P 1"
_space_group_IT_number       1

loop_
  _space_group_symop_operation_xyz
  'x, y, z'

loop_
  _atom_site_type_symbol
  _atom_site_label
  _atom_site_symmetry_multiplicity
  _atom_site_fract_x
  _atom_site_fract_y
  _atom_site_fract_z
  _atom_site_occupancy
  Ag  Ag1       1.0  0.2500000160439248  0.2500000043195193  0.2499999840755288  1.0000
  Ag  Ag2       1.0  0.7499999173773938  0.7500000358975449  0.7499999196899053  1.0000
  Co  Co1       1.0  3.250571414042177e-08  0.9999996329761026  0.9999998762296458  1.0000
  Te  Te1       1.0  0.25078827115750896  0.2507880338226225  0.7492121437351522  1.0000
  Te  Te2       1.0  0.7492116362541799  0.749211799943506  0.2507886398527063  1.0000
  Te  Te3       1.0  0.749211903532916  0.2507878978698555  0.25078823351070767  1.0000
  Te  Te4       1.0  0.2507883389561566  0.7492119288381258  0.7492113055125906  1.0000
  Te  Te5       1.0  0.25078799816964664  0.7492122578893775  0.25078835003600186  1.0000
  Te  Te6       1.0  0.749211917580066  0.25078838932874725  0.7492115270423032  1.0000
