data_image0
_chemical_formula_structural       Ag2CoO6
_chemical_formula_sum              "Ag2 Co1 O6"
_cell_length_a       5.375968217984185
_cell_length_b       5.375968815319043
_cell_length_c       5.375967047154882
_cell_angle_alpha    60.0000020127976
_cell_angle_beta     59.99999948481656
_cell_angle_gamma    59.99999047421263

_space_group_name_H-M_alt    "P 1"
_space_group_IT_number       1

loop_
  _space_group_symop_operation_xyz
  'x, y, z'

loop_
  _atom_site_type_symbol
  _atom_site_label
  _atom_site_symmetry_multiplicity
  _atom_site_fract_x
  _atom_site_fract_y
  _atom_site_fract_z
  _atom_site_occupancy
  Ag  Ag1       1.0  0.24999982250220854  0.25000018711110256  0.2500000580559124  1.0000
  Ag  Ag2       1.0  0.7499999741827824  0.7499998596524171  0.7500001898243819  1.0000
  Co  Co1       1.0  7.687005677924763e-08  0.9999999111507857  1.1945753764094522e-07  1.0000
  O   O1        1.0  0.2367386003738617  0.23673857931991482  0.7632613419433493  1.0000
  O   O2        1.0  0.7632615801364382  0.763261276076078  0.2367384674440416  1.0000
  O   O3        1.0  0.7632613752732683  0.2367388095554425  0.23673862465415854  1.0000
  O   O4        1.0  0.23673858599540304  0.7632613169445241  0.7632613280739252  1.0000
  O   O5        1.0  0.2367387516160517  0.7632611813698936  0.23673869764574285  1.0000
  O   O6        1.0  0.7632613462951763  0.23673883805538304  0.7632612309977544  1.0000
