data_image0
_chemical_formula_structural       Ag2CrO6
_chemical_formula_sum              "Ag2 Cr1 O6"
_cell_length_a       5.451599666633136
_cell_length_b       5.451600045304031
_cell_length_c       5.451599560396814
_cell_angle_alpha    59.99999956250946
_cell_angle_beta     59.99999695601274
_cell_angle_gamma    59.999999043226

_space_group_name_H-M_alt    "P 1"
_space_group_IT_number       1

loop_
  _space_group_symop_operation_xyz
  'x, y, z'

loop_
  _atom_site_type_symbol
  _atom_site_label
  _atom_site_symmetry_multiplicity
  _atom_site_fract_x
  _atom_site_fract_y
  _atom_site_fract_z
  _atom_site_occupancy
  Ag  Ag1       1.0  0.2499998911675562  0.24999998120547512  0.2500000485877748  1.0000
  Ag  Ag2       1.0  0.7500000149858055  0.749999993041152  0.7499999613153259  1.0000
  Cr  Cr1       1.0  0.9999999758015656  4.7178151391666274e-08  8.02263417502682e-08  1.0000
  O   O1        1.0  0.23404718203410904  0.2340472383902527  0.7659527496973736  1.0000
  O   O2        1.0  0.765952729339227  0.7659527583221623  0.234047220682309  1.0000
  O   O3        1.0  0.7659528842329182  0.23404721408894025  0.2340472954157374  1.0000
  O   O4        1.0  0.23404736308425803  0.7659527152261053  0.7659526360755511  1.0000
  O   O5        1.0  0.23404731098851292  0.7659527529044724  0.23404730836838433  1.0000
  O   O6        1.0  0.7659528532934218  0.2340472730134603  0.7659525888242209  1.0000
