data_image0
_chemical_formula_structural       Ag2CuO6
_chemical_formula_sum              "Ag2 Cu1 O6"
_cell_length_a       5.329934736999769
_cell_length_b       5.329934721430164
_cell_length_c       5.329934981402833
_cell_angle_alpha    60.00000081930194
_cell_angle_beta     59.999999554591874
_cell_angle_gamma    59.999998395532955

_space_group_name_H-M_alt    "P 1"
_space_group_IT_number       1

loop_
  _space_group_symop_operation_xyz
  'x, y, z'

loop_
  _atom_site_type_symbol
  _atom_site_label
  _atom_site_symmetry_multiplicity
  _atom_site_fract_x
  _atom_site_fract_y
  _atom_site_fract_z
  _atom_site_occupancy
  Ag  Ag1       1.0  0.25000001800168226  0.24999996695099283  0.2500000177653  1.0000
  Ag  Ag2       1.0  0.7499999981580723  0.7499999514059191  0.7500000259237894  1.0000
  Cu  Cu1       1.0  5.44799616517399e-09  5.51486609585575e-08  0.9999999303015671  1.0000
  O   O1        1.0  0.24883663611872625  0.24883684750210447  0.7511632776497947  1.0000
  O   O2        1.0  0.7511633663401823  0.7511631834499924  0.2488367053349542  1.0000
  O   O3        1.0  0.7511631060338644  0.24883685379930962  0.24883682029406917  1.0000
  O   O4        1.0  0.2488368759208082  0.7511631541741792  0.7511632088226426  1.0000
  O   O5        1.0  0.24883687966751503  0.7511631331629792  0.2488367783253595  1.0000
  O   O6        1.0  0.7511631146738336  0.24883683115115146  0.7511632457895424  1.0000
