data_image0
_chemical_formula_structural       Ag2CrO6
_chemical_formula_sum              "Ag2 Cr1 O6"
_cell_length_a       5.478903826896905
_cell_length_b       5.478903973453081
_cell_length_c       5.478904145214805
_cell_angle_alpha    60.00000266709271
_cell_angle_beta     60.00000097372876
_cell_angle_gamma    59.99999898943522

_space_group_name_H-M_alt    "P 1"
_space_group_IT_number       1

loop_
  _space_group_symop_operation_xyz
  'x, y, z'

loop_
  _atom_site_type_symbol
  _atom_site_label
  _atom_site_symmetry_multiplicity
  _atom_site_fract_x
  _atom_site_fract_y
  _atom_site_fract_z
  _atom_site_occupancy
  Ag  Ag1       1.0  0.25000005856997803  0.24999994365821396  0.249999946998025  1.0000
  Ag  Ag2       1.0  0.7499999890300743  0.7500000053345213  0.7499999785672068  1.0000
  Cr  Cr1       1.0  4.759688567137552e-09  0.9999992712651593  2.597773354138297e-07  1.0000
  O   O1        1.0  0.24347591596949877  0.2434761641891575  0.7565240003158039  1.0000
  O   O2        1.0  0.7565240140720912  0.7565240552849227  0.24347603495660677  1.0000
  O   O3        1.0  0.7565241266833007  0.2434760496585048  0.24347592821591868  1.0000
  O   O4        1.0  0.2434759362830458  0.7565241251079098  0.7565239862902831  1.0000
  O   O5        1.0  0.24347589075107728  0.7565241851812549  0.24347598338071633  1.0000
  O   O6        1.0  0.756524071199391  0.2434761661804129  0.7565238203285004  1.0000
