data_image0
_chemical_formula_structural       Ag2CrS6
_chemical_formula_sum              "Ag2 Cr1 S6"
_cell_length_a       6.122460984590637
_cell_length_b       6.122460749259974
_cell_length_c       6.122461468551745
_cell_angle_alpha    60.00000023205137
_cell_angle_beta     59.99999747687438
_cell_angle_gamma    59.99999901643459

_space_group_name_H-M_alt    "P 1"
_space_group_IT_number       1

loop_
  _space_group_symop_operation_xyz
  'x, y, z'

loop_
  _atom_site_type_symbol
  _atom_site_label
  _atom_site_symmetry_multiplicity
  _atom_site_fract_x
  _atom_site_fract_y
  _atom_site_fract_z
  _atom_site_occupancy
  Ag  Ag1       1.0  0.24999999897165015  0.2499999453896815  0.2500000024088263  1.0000
  Ag  Ag2       1.0  0.7500000336054455  0.7499998901801882  0.7499999373757114  1.0000
  Cr  Cr1       1.0  0.999999979198404  0.9999999039801803  0.9999999195776547  1.0000
  S   S1        1.0  0.2566124414686053  0.25661254103083314  0.7433874959184213  1.0000
  S   S2        1.0  0.7433876520097507  0.7433874965807303  0.25661238426116567  1.0000
  S   S3        1.0  0.7433874585532195  0.25661251551018016  0.25661263451752675  1.0000
  S   S4        1.0  0.2566124382638714  0.7433876481274009  0.7433875553791278  1.0000
  S   S5        1.0  0.256612390334938  0.7433875755596625  0.256612534182159  1.0000
  S   S6        1.0  0.7433876345803514  0.2566124640523207  0.7433875279117814  1.0000
