data_image0
_chemical_formula_structural       Ag2CdSe6
_chemical_formula_sum              "Ag2 Cd1 Se6"
_cell_length_a       6.698954280358492
_cell_length_b       6.6989539956597675
_cell_length_c       6.69895449198164
_cell_angle_alpha    59.99999710557131
_cell_angle_beta     59.99999856672543
_cell_angle_gamma    59.999996945918035

_space_group_name_H-M_alt    "P 1"
_space_group_IT_number       1

loop_
  _space_group_symop_operation_xyz
  'x, y, z'

loop_
  _atom_site_type_symbol
  _atom_site_label
  _atom_site_symmetry_multiplicity
  _atom_site_fract_x
  _atom_site_fract_y
  _atom_site_fract_z
  _atom_site_occupancy
  Ag  Ag1       1.0  0.24999996902469274  0.24999996795765916  0.2500000126224045  1.0000
  Ag  Ag2       1.0  0.7500000198615326  0.7500000153970144  0.7500000063210609  1.0000
  Cd  Cd1       1.0  1.0699206811143029e-07  0.9999999634347406  9.569703057271956e-09  1.0000
  Se  Se1       1.0  0.29459062822601007  0.2945906969482687  0.7054093397433784  1.0000
  Se  Se2       1.0  0.7054093449018894  0.7054093595369222  0.294590595281492  1.0000
  Se  Se3       1.0  0.7054094185501482  0.29459066898681463  0.2945905413578234  1.0000
  Se  Se4       1.0  0.2945905433841954  0.7054092814591264  0.7054096030532457  1.0000
  Se  Se5       1.0  0.29459067195327676  0.7054092884069368  0.2945905808901839  1.0000
  Se  Se6       1.0  0.7054093009655024  0.2945907790478317  0.7054093203918229  1.0000
