data_image0
_chemical_formula_structural       Ag2CS6
_chemical_formula_sum              "Ag2 C1 S6"
_cell_length_a       6.798845295210854
_cell_length_b       6.230660179464071
_cell_length_c       6.774588190255547
_cell_angle_alpha    77.94147438467833
_cell_angle_beta     59.45996748740627
_cell_angle_gamma    72.16285469817166

_space_group_name_H-M_alt    "P 1"
_space_group_IT_number       1

loop_
  _space_group_symop_operation_xyz
  'x, y, z'

loop_
  _atom_site_type_symbol
  _atom_site_label
  _atom_site_symmetry_multiplicity
  _atom_site_fract_x
  _atom_site_fract_y
  _atom_site_fract_z
  _atom_site_occupancy
  Ag  Ag1       1.0  0.1269435337455452  0.09106173117438018  0.4412923569589676  1.0000
  Ag  Ag2       1.0  0.6987545483736631  0.7740373311415535  0.8310089786116782  1.0000
  C   C1        1.0  0.044346782956090236  0.9697712093782611  0.9578361473145457  1.0000
  S   S1        1.0  0.17843919887257603  0.19158579673961273  0.8761963407411355  1.0000
  S   S2        1.0  0.7846164994651923  0.633012445822434  0.29741863766631804  1.0000
  S   S3        1.0  0.82473168569022  0.9618183163181742  0.2410965309461287  1.0000
  S   S4        1.0  0.11107220642363286  0.7964815891518936  0.7586442940174392  1.0000
  S   S5        1.0  0.39985218747654466  0.10782740015415126  0.023542017954509244  1.0000
  S   S6        1.0  0.8312296645056428  0.47441421814491447  0.5729620136148843  1.0000
