data_image0
_chemical_formula_structural       Ag2CaS6
_chemical_formula_sum              "Ag2 Ca1 S6"
_cell_length_a       6.798061324832577
_cell_length_b       6.79806072442609
_cell_length_c       6.7980608105008535
_cell_angle_alpha    60.00000012799374
_cell_angle_beta     59.99999974681568
_cell_angle_gamma    59.99999717552309

_space_group_name_H-M_alt    "P 1"
_space_group_IT_number       1

loop_
  _space_group_symop_operation_xyz
  'x, y, z'

loop_
  _atom_site_type_symbol
  _atom_site_label
  _atom_site_symmetry_multiplicity
  _atom_site_fract_x
  _atom_site_fract_y
  _atom_site_fract_z
  _atom_site_occupancy
  Ag  Ag1       1.0  0.24999995678004713  0.2499999639375886  0.25000003175298613  1.0000
  Ag  Ag2       1.0  0.7499999699877465  0.7500000107189734  0.7500000124601897  1.0000
  Ca  Ca1       1.0  0.9999999826021247  2.1619310055238816e-08  0.9999999449330048  1.0000
  S   S1        1.0  0.28485206799521934  0.28485200120262594  0.7151479841078177  1.0000
  S   S2        1.0  0.7151480007668368  0.7151479500330149  0.28485206260100876  1.0000
  S   S3        1.0  0.7151479855609932  0.28485207374412136  0.28485195173939143  1.0000
  S   S4        1.0  0.28485198941738726  0.7151479855880728  0.7151480054365658  1.0000
  S   S5        1.0  0.2848520429377999  0.7151479424073219  0.2848520097569804  1.0000
  S   S6        1.0  0.7151479862242116  0.2848520664798142  0.7151479970349596  1.0000
