data_image0
_chemical_formula_structural       Ag2CdTe6
_chemical_formula_sum              "Ag2 Cd1 Te6"
_cell_length_a       7.359165361299486
_cell_length_b       7.359165664647143
_cell_length_c       7.3591656175228435
_cell_angle_alpha    59.999999853865795
_cell_angle_beta     59.99999997962835
_cell_angle_gamma    59.99999932927074

_space_group_name_H-M_alt    "P 1"
_space_group_IT_number       1

loop_
  _space_group_symop_operation_xyz
  'x, y, z'

loop_
  _atom_site_type_symbol
  _atom_site_label
  _atom_site_symmetry_multiplicity
  _atom_site_fract_x
  _atom_site_fract_y
  _atom_site_fract_z
  _atom_site_occupancy
  Ag  Ag1       1.0  0.25000000180041165  0.249999935805355  0.2500000246735685  1.0000
  Ag  Ag2       1.0  0.749999928353771  0.7500000903375783  0.7500000580500604  1.0000
  Cd  Cd1       1.0  0.9999999730893538  0.9999999301017445  1.5792057946330052e-08  1.0000
  Te  Te1       1.0  0.281720956817878  0.2817207001172993  0.7182791775922235  1.0000
  Te  Te2       1.0  0.7182791662687223  0.7182792744340626  0.281720689064066  1.0000
  Te  Te3       1.0  0.7182792320999343  0.2817208037970359  0.2817208331068998  1.0000
  Te  Te4       1.0  0.2817208305055978  0.7182792156889188  0.7182791717721981  1.0000
  Te  Te5       1.0  0.28172079144454953  0.7182792426262  0.2817208100824089  1.0000
  Te  Te6       1.0  0.7182791225430886  0.28172080848039693  0.7182792234006201  1.0000
