data_image0
_chemical_formula_structural       Ag2CuSe6
_chemical_formula_sum              "Ag2 Cu1 Se6"
_cell_length_a       6.386075984839976
_cell_length_b       6.38607568048471
_cell_length_c       6.386074764651841
_cell_angle_alpha    60.00000729455012
_cell_angle_beta     60.00001192039316
_cell_angle_gamma    60.00000692306981

_space_group_name_H-M_alt    "P 1"
_space_group_IT_number       1

loop_
  _space_group_symop_operation_xyz
  'x, y, z'

loop_
  _atom_site_type_symbol
  _atom_site_label
  _atom_site_symmetry_multiplicity
  _atom_site_fract_x
  _atom_site_fract_y
  _atom_site_fract_z
  _atom_site_occupancy
  Ag  Ag1       1.0  0.24999999183622773  0.24999997517501008  0.24999997828848367  1.0000
  Ag  Ag2       1.0  0.7499999973506161  0.750000044430883  0.7499999412210108  1.0000
  Cu  Cu1       1.0  0.999999872714721  1.3233070310442763e-07  2.8795427676400646e-08  1.0000
  Se  Se1       1.0  0.28390990462247345  0.28390998597018513  0.7160900714631376  1.0000
  Se  Se2       1.0  0.7160901530016028  0.7160899530865844  0.28390989011816753  1.0000
  Se  Se3       1.0  0.7160901857057544  0.28390991967667056  0.28391000990178694  1.0000
  Se  Se4       1.0  0.2839098219104964  0.7160900500654798  0.716090058426981  1.0000
  Se  Se5       1.0  0.2839098486827414  0.716090140688633  0.2839101080567403  1.0000
  Se  Se6       1.0  0.7160902140555684  0.28390978302544684  0.7160899244068925  1.0000
