data_image0
_chemical_formula_structural       Ag2CS6
_chemical_formula_sum              "Ag2 C1 S6"
_cell_length_a       6.310886504848779
_cell_length_b       6.251693429187522
_cell_length_c       5.682702387738954
_cell_angle_alpha    78.66550028031867
_cell_angle_beta     88.47126897295881
_cell_angle_gamma    79.99323316679315

_space_group_name_H-M_alt    "P 1"
_space_group_IT_number       1

loop_
  _space_group_symop_operation_xyz
  'x, y, z'

loop_
  _atom_site_type_symbol
  _atom_site_label
  _atom_site_symmetry_multiplicity
  _atom_site_fract_x
  _atom_site_fract_y
  _atom_site_fract_z
  _atom_site_occupancy
  Ag  Ag1       1.0  0.27614282314353056  0.17640234556394965  0.23214572527766367  1.0000
  Ag  Ag2       1.0  0.15813280509353378  0.5475929254146906  0.6937377343302733  1.0000
  C   C1        1.0  0.9827995411507534  0.05477364152424881  0.8061596087331283  1.0000
  S   S1        1.0  0.9593344990430571  0.2830345053215396  0.9365943024008927  1.0000
  S   S2        1.0  0.6884512804347739  0.9107931452346902  0.20609200338606593  1.0000
  S   S3        1.0  0.6405087771005509  0.591772529603452  0.3453988733282628  1.0000
  S   S4        1.0  0.20123512052100928  0.9496654853221737  0.6603371087106742  1.0000
  S   S5        1.0  0.32770076621007144  0.5715242582028589  0.28225278023543776  1.0000
  S   S6        1.0  0.7656949666547234  0.9144402965566817  0.8372830429115352  1.0000
