data_image0
_chemical_formula_structural       Ag2CuS6
_chemical_formula_sum              "Ag2 Cu1 S6"
_cell_length_a       6.238455014598874
_cell_length_b       6.238455226548067
_cell_length_c       6.238455000761459
_cell_angle_alpha    60.00000065296555
_cell_angle_beta     59.99999811820687
_cell_angle_gamma    59.99999897180585

_space_group_name_H-M_alt    "P 1"
_space_group_IT_number       1

loop_
  _space_group_symop_operation_xyz
  'x, y, z'

loop_
  _atom_site_type_symbol
  _atom_site_label
  _atom_site_symmetry_multiplicity
  _atom_site_fract_x
  _atom_site_fract_y
  _atom_site_fract_z
  _atom_site_occupancy
  Ag  Ag1       1.0  0.2499999523679391  0.24999995860278842  0.2500000012601545  1.0000
  Ag  Ag2       1.0  0.7499999400945031  0.7500000210865079  0.7499999217052673  1.0000
  Cu  Cu1       1.0  8.486419589647368e-08  0.9999999175448355  0.9999999314711219  1.0000
  S   S1        1.0  0.26144245742410516  0.2614424249052507  0.7385575922457946  1.0000
  S   S2        1.0  0.7385575293592153  0.7385576882828793  0.2614424444302294  1.0000
  S   S3        1.0  0.7385575596233169  0.26144237864351233  0.26144248009972104  1.0000
  S   S4        1.0  0.2614424677524456  0.738557579450382  0.738557576959097  1.0000
  S   S5        1.0  0.2614424435992978  0.7385575690531668  0.26144246242092184  1.0000
  S   S6        1.0  0.7385575982278849  0.26144244008439954  0.7385576003614135  1.0000
