data_image0
_chemical_formula_structural       Ag2CaO6
_chemical_formula_sum              "Ag2 Ca1 O6"
_cell_length_a       5.544394967209873
_cell_length_b       5.544395358176814
_cell_length_c       5.544395352120661
_cell_angle_alpha    59.99999824628148
_cell_angle_beta     60.000000474566605
_cell_angle_gamma    60.00000322197452

_space_group_name_H-M_alt    "P 1"
_space_group_IT_number       1

loop_
  _space_group_symop_operation_xyz
  'x, y, z'

loop_
  _atom_site_type_symbol
  _atom_site_label
  _atom_site_symmetry_multiplicity
  _atom_site_fract_x
  _atom_site_fract_y
  _atom_site_fract_z
  _atom_site_occupancy
  Ag  Ag1       1.0  0.24999997670222815  0.25000004520948954  0.24999998078686678  1.0000
  Ag  Ag2       1.0  0.7500000466121649  0.749999923566562  0.7499999576736013  1.0000
  Ca  Ca1       1.0  0.9999998789105949  8.83591214771024e-08  1.5885136960092942e-07  1.0000
  O   O1        1.0  0.28994225973243976  0.28994232068701187  0.7100576989325172  1.0000
  O   O2        1.0  0.7100577358542344  0.7100577187763404  0.2899422919967089  1.0000
  O   O3        1.0  0.7100577196983302  0.28994228772270214  0.2899422591597856  1.0000
  O   O4        1.0  0.2899424457629124  0.7100576169929865  0.7100575933632404  1.0000
  O   O5        1.0  0.2899422563593287  0.7100576564240519  0.2899423406954021  1.0000
  O   O6        1.0  0.7100576564268886  0.289942356531558  0.7100577337458935  1.0000
