data_image0
_chemical_formula_structural       Ag2CrTe6
_chemical_formula_sum              "Ag2 Cr1 Te6"
_cell_length_a       7.065646914854053
_cell_length_b       7.065646420423396
_cell_length_c       7.065646788969701
_cell_angle_alpha    59.99999905109054
_cell_angle_beta     60.000000552790524
_cell_angle_gamma    59.999998544554714

_space_group_name_H-M_alt    "P 1"
_space_group_IT_number       1

loop_
  _space_group_symop_operation_xyz
  'x, y, z'

loop_
  _atom_site_type_symbol
  _atom_site_label
  _atom_site_symmetry_multiplicity
  _atom_site_fract_x
  _atom_site_fract_y
  _atom_site_fract_z
  _atom_site_occupancy
  Ag  Ag1       1.0  0.2500000845361134  0.24999994969116895  0.24999997091200732  1.0000
  Ag  Ag2       1.0  0.7499999754521735  0.7500000952134416  0.7499998834545842  1.0000
  Cr  Cr1       1.0  0.9999999626927332  1.3867039439411765e-08  1.0937571709850779e-07  1.0000
  Te  Te1       1.0  0.26473760464665747  0.26473749439261923  0.7352624535219713  1.0000
  Te  Te2       1.0  0.7352624381750027  0.7352624794434196  0.26473757233909306  1.0000
  Te  Te3       1.0  0.7352623668123376  0.26473751873934565  0.26473762491251973  1.0000
  Te  Te4       1.0  0.26473766663440135  0.7352623753612202  0.7352623478481379  1.0000
  Te  Te5       1.0  0.26473757646008883  0.7352624404893386  0.26473760173342337  1.0000
  Te  Te6       1.0  0.7352623277791572  0.26473763041597004  0.7352624307312277  1.0000
