data_image0
_chemical_formula_structural       Ag2FeS6
_chemical_formula_sum              "Ag2 Fe1 S6"
_cell_length_a       6.265975535055655
_cell_length_b       6.265975883801956
_cell_length_c       6.265975740258719
_cell_angle_alpha    59.99999967882915
_cell_angle_beta     59.99999674732462
_cell_angle_gamma    59.99999516908713

_space_group_name_H-M_alt    "P 1"
_space_group_IT_number       1

loop_
  _space_group_symop_operation_xyz
  'x, y, z'

loop_
  _atom_site_type_symbol
  _atom_site_label
  _atom_site_symmetry_multiplicity
  _atom_site_fract_x
  _atom_site_fract_y
  _atom_site_fract_z
  _atom_site_occupancy
  Ag  Ag1       1.0  0.24999996433181665  0.25000000196840355  0.25000002505522334  1.0000
  Ag  Ag2       1.0  0.7500000371083925  0.7499999218575922  0.7499999812961808  1.0000
  Fe  Fe1       1.0  1.3458601324873955e-08  0.9999999706810654  0.9999999823954364  1.0000
  S   S1        1.0  0.24669156570388745  0.2466915597717368  0.7533084678709846  1.0000
  S   S2        1.0  0.7533083492518927  0.7533085184673157  0.24669159548358227  1.0000
  S   S3        1.0  0.7533085011017622  0.24669153961617457  0.24669159064537832  1.0000
  S   S4        1.0  0.246691583766308  0.7533084545752577  0.7533083946665974  1.0000
  S   S5        1.0  0.24669160642695737  0.7533084253454512  0.24669152747651804  1.0000
  S   S6        1.0  0.7533084317001375  0.24669160402870474  0.7533084045655204  1.0000
