data_image0
_chemical_formula_structural       Ag2FeO6
_chemical_formula_sum              "Ag2 Fe1 O6"
_cell_length_a       5.303734116456352
_cell_length_b       5.303734052265265
_cell_length_c       5.303734065004001
_cell_angle_alpha    59.99999931001016
_cell_angle_beta     60.00000242063141
_cell_angle_gamma    59.999998388067006

_space_group_name_H-M_alt    "P 1"
_space_group_IT_number       1

loop_
  _space_group_symop_operation_xyz
  'x, y, z'

loop_
  _atom_site_type_symbol
  _atom_site_label
  _atom_site_symmetry_multiplicity
  _atom_site_fract_x
  _atom_site_fract_y
  _atom_site_fract_z
  _atom_site_occupancy
  Ag  Ag1       1.0  0.24999999228735417  0.24999999982819882  0.24999999308585416  1.0000
  Ag  Ag2       1.0  0.7499999863403861  0.7499999971753835  0.7500000020695045  1.0000
  Fe  Fe1       1.0  2.0318732015720017e-08  7.620401297035416e-08  0.999999881976457  1.0000
  O   O1        1.0  0.24480512638002522  0.2448050656742563  0.7551949434938114  1.0000
  O   O2        1.0  0.7551949916077434  0.7551948920727088  0.24480516941614586  1.0000
  O   O3        1.0  0.7551948389087569  0.2448050447944169  0.24480515190937938  1.0000
  O   O4        1.0  0.24480500460384516  0.7551949591368053  0.7551948884850854  1.0000
  O   O5        1.0  0.24480513477306748  0.7551948628043456  0.2448050732052839  1.0000
  O   O6        1.0  0.7551949377587565  0.24480508108734803  0.7551948845848023  1.0000
