data_image0
_chemical_formula_structural       Ag2FeTe6
_chemical_formula_sum              "Ag2 Fe1 Te6"
_cell_length_a       7.00398651236463
_cell_length_b       7.003986959367449
_cell_length_c       7.003986412059234
_cell_angle_alpha    59.99999882060499
_cell_angle_beta     59.99999784856095
_cell_angle_gamma    60.000003102168066

_space_group_name_H-M_alt    "P 1"
_space_group_IT_number       1

loop_
  _space_group_symop_operation_xyz
  'x, y, z'

loop_
  _atom_site_type_symbol
  _atom_site_label
  _atom_site_symmetry_multiplicity
  _atom_site_fract_x
  _atom_site_fract_y
  _atom_site_fract_z
  _atom_site_occupancy
  Ag  Ag1       1.0  0.2500000521528165  0.24999997223915488  0.2500000334090675  1.0000
  Ag  Ag2       1.0  0.7499999559566024  0.7499999989035191  0.7500000879971835  1.0000
  Fe  Fe1       1.0  9.745221931747871e-08  1.9235034482354927e-08  6.016031268462269e-08  1.0000
  Te  Te1       1.0  0.24236711265883698  0.24236703205254712  0.7576328942303534  1.0000
  Te  Te2       1.0  0.7576329511212506  0.7576329303469387  0.24236696527651394  1.0000
  Te  Te3       1.0  0.7576328558109228  0.242367255580598  0.2423670464842075  1.0000
  Te  Te4       1.0  0.24236717900802926  0.7576328134858961  0.7576328783960798  1.0000
  Te  Te5       1.0  0.24236714629702602  0.757632804133021  0.24236709111829907  1.0000
  Te  Te6       1.0  0.7576326585476243  0.2423671635123732  0.7576329394938461  1.0000
