data_image0
_chemical_formula_structural       Ag2FeTe6
_chemical_formula_sum              "Ag2 Fe1 Te6"
_cell_length_a       7.0047260840655
_cell_length_b       7.004725880483213
_cell_length_c       7.004726113170843
_cell_angle_alpha    59.99999747020221
_cell_angle_beta     59.99999934750713
_cell_angle_gamma    59.99999599500834

_space_group_name_H-M_alt    "P 1"
_space_group_IT_number       1

loop_
  _space_group_symop_operation_xyz
  'x, y, z'

loop_
  _atom_site_type_symbol
  _atom_site_label
  _atom_site_symmetry_multiplicity
  _atom_site_fract_x
  _atom_site_fract_y
  _atom_site_fract_z
  _atom_site_occupancy
  Ag  Ag1       1.0  0.24999996361245533  0.2499999506979551  0.25000001538625694  1.0000
  Ag  Ag2       1.0  0.7500000395785744  0.7500000339331984  0.7499999708077741  1.0000
  Fe  Fe1       1.0  8.275726661392558e-08  0.9999999248164252  2.048248320864436e-08  1.0000
  Te  Te1       1.0  0.24226981856369756  0.24226997797045616  0.7577300920068272  1.0000
  Te  Te2       1.0  0.7577301868242943  0.7577300643597177  0.24226988137050293  1.0000
  Te  Te3       1.0  0.7577301308517564  0.24226984494228998  0.24226981209010762  1.0000
  Te  Te4       1.0  0.2422698388872656  0.7577301361919544  0.7577301440397247  1.0000
  Te  Te5       1.0  0.24226971420666915  0.7577303253895911  0.2422697780486745  1.0000
  Te  Te6       1.0  0.7577302242601496  0.24226973967050094  0.7577302616801175  1.0000
