data_image0
_chemical_formula_structural       Ag2GeO6
_chemical_formula_sum              "Ag2 Ge1 O6"
_cell_length_a       5.281939971648892
_cell_length_b       5.281941436684843
_cell_length_c       5.281939830071143
_cell_angle_alpha    59.999990936626915
_cell_angle_beta     59.99999320638844
_cell_angle_gamma    59.999984928078625

_space_group_name_H-M_alt    "P 1"
_space_group_IT_number       1

loop_
  _space_group_symop_operation_xyz
  'x, y, z'

loop_
  _atom_site_type_symbol
  _atom_site_label
  _atom_site_symmetry_multiplicity
  _atom_site_fract_x
  _atom_site_fract_y
  _atom_site_fract_z
  _atom_site_occupancy
  Ag  Ag1       1.0  0.25000022137754446  0.25000011228906927  0.2500000144365654  1.0000
  Ag  Ag2       1.0  0.7500001171458186  0.7499997873258484  0.7500006559441847  1.0000
  Ge  Ge1       1.0  0.9999998970055047  2.040490945328772e-07  2.788971035013688e-07  1.0000
  O   O1        1.0  0.25749651271363655  0.2574968684052654  0.7425034125086305  1.0000
  O   O2        1.0  0.7425032757532696  0.7425037894379454  0.2574963472642515  1.0000
  O   O3        1.0  0.7425029276980023  0.25749717553050233  0.2574964940670448  1.0000
  O   O4        1.0  0.2574969381897357  0.7425021351247034  0.7425034765029961  1.0000
  O   O5        1.0  0.2574970973184086  0.7425032000734245  0.2574963777534514  1.0000
  O   O6        1.0  0.7425029962862446  0.2574970473528143  0.7425029196967629  1.0000
