data_image0
_chemical_formula_structural       Ag2GeS6
_chemical_formula_sum              "Ag2 Ge1 S6"
_cell_length_a       6.594058484148384
_cell_length_b       6.594058327794253
_cell_length_c       6.594058568799049
_cell_angle_alpha    59.9999994454211
_cell_angle_beta     59.999998907779265
_cell_angle_gamma    59.99999854845866

_space_group_name_H-M_alt    "P 1"
_space_group_IT_number       1

loop_
  _space_group_symop_operation_xyz
  'x, y, z'

loop_
  _atom_site_type_symbol
  _atom_site_label
  _atom_site_symmetry_multiplicity
  _atom_site_fract_x
  _atom_site_fract_y
  _atom_site_fract_z
  _atom_site_occupancy
  Ag  Ag1       1.0  0.2500000216717169  0.2500000467100572  0.2499999529850012  1.0000
  Ag  Ag2       1.0  0.7499999991827309  0.7499999803984031  0.7499999535388968  1.0000
  Ge  Ge1       1.0  0.9999999684433404  6.314976923360902e-08  0.9999999811704122  1.0000
  S   S1        1.0  0.2507502672231359  0.2507503285097365  0.7492497568854345  1.0000
  S   S2        1.0  0.7492496555319874  0.7492497617484952  0.2507503354465954  1.0000
  S   S3        1.0  0.749249796423212  0.25075022977366157  0.2507502784862146  1.0000
  S   S4        1.0  0.25075022880149406  0.749249721183607  0.7492497003245507  1.0000
  S   S5        1.0  0.2507502462952751  0.7492496735088159  0.25075033514663386  1.0000
  S   S6        1.0  0.7492498213114969  0.25075019758256806  0.7492496821207574  1.0000
