data_image0
_chemical_formula_structural       Ag2GeSe6
_chemical_formula_sum              "Ag2 Ge1 Se6"
_cell_length_a       6.7339331152144615
_cell_length_b       6.733933122096545
_cell_length_c       6.733932898953678
_cell_angle_alpha    60.000001998524596
_cell_angle_beta     60.00000190380672
_cell_angle_gamma    60.00000310813838

_space_group_name_H-M_alt    "P 1"
_space_group_IT_number       1

loop_
  _space_group_symop_operation_xyz
  'x, y, z'

loop_
  _atom_site_type_symbol
  _atom_site_label
  _atom_site_symmetry_multiplicity
  _atom_site_fract_x
  _atom_site_fract_y
  _atom_site_fract_z
  _atom_site_occupancy
  Ag  Ag1       1.0  0.2500000048749329  0.2500000085842513  0.24999998624768896  1.0000
  Ag  Ag2       1.0  0.750000007575615  0.7500000057463283  0.7499999856360179  1.0000
  Ge  Ge1       1.0  0.9999999969687237  9.093829864963019e-09  1.0333869825333341e-08  1.0000
  Se  Se1       1.0  0.26009438060867196  0.26009437258350315  0.7399055883766062  1.0000
  Se  Se2       1.0  0.7399056059126068  0.7399056526596716  0.26009435389003066  1.0000
  Se  Se3       1.0  0.7399056235295092  0.2600943932764893  0.26009436295972693  1.0000
  Se  Se4       1.0  0.26009442505263075  0.739905584678772  0.7399056535963315  1.0000
  Se  Se5       1.0  0.2600943897396316  0.7399055703836303  0.2600943930069822  1.0000
  Se  Se6       1.0  0.7399055612058321  0.26009440211533125  0.7399056721255313  1.0000
