data_image0
_chemical_formula_structural       Ag2GeTe6
_chemical_formula_sum              "Ag2 Ge1 Te6"
_cell_length_a       7.208764522073361
_cell_length_b       7.208764406485691
_cell_length_c       7.20876434763311
_cell_angle_alpha    60.000001907157106
_cell_angle_beta     60.000002408442306
_cell_angle_gamma    60.00000015653345

_space_group_name_H-M_alt    "P 1"
_space_group_IT_number       1

loop_
  _space_group_symop_operation_xyz
  'x, y, z'

loop_
  _atom_site_type_symbol
  _atom_site_label
  _atom_site_symmetry_multiplicity
  _atom_site_fract_x
  _atom_site_fract_y
  _atom_site_fract_z
  _atom_site_occupancy
  Ag  Ag1       1.0  0.2500000155494069  0.24999997099938084  0.2499999831960996  1.0000
  Ag  Ag2       1.0  0.7499999829953305  0.7500000030433647  0.7500000903713655  1.0000
  Ge  Ge1       1.0  5.174345503491281e-08  0.9999999745155032  0.9999999674497172  1.0000
  Te  Te1       1.0  0.2751818385005235  0.27518193301653116  0.7248180894129073  1.0000
  Te  Te2       1.0  0.7248180411056147  0.7248180902962391  0.27518184142720675  1.0000
  Te  Te3       1.0  0.7248181365593201  0.275181956034728  0.27518191396136754  1.0000
  Te  Te4       1.0  0.275181862890388  0.7248180825687418  0.7248181990076656  1.0000
  Te  Te5       1.0  0.2751819380821494  0.724818161904528  0.27518184932721534  1.0000
  Te  Te6       1.0  0.7248181331904409  0.2751818342247786  0.7248180575338187  1.0000
