data_image0
_chemical_formula_structural       Ag2GeSe6
_chemical_formula_sum              "Ag2 Ge1 Se6"
_cell_length_a       6.73527966037215
_cell_length_b       6.735279688013839
_cell_length_c       6.735279403117964
_cell_angle_alpha    60.00000097701515
_cell_angle_beta     60.00000019914
_cell_angle_gamma    60.000000438324946

_space_group_name_H-M_alt    "P 1"
_space_group_IT_number       1

loop_
  _space_group_symop_operation_xyz
  'x, y, z'

loop_
  _atom_site_type_symbol
  _atom_site_label
  _atom_site_symmetry_multiplicity
  _atom_site_fract_x
  _atom_site_fract_y
  _atom_site_fract_z
  _atom_site_occupancy
  Ag  Ag1       1.0  0.250000002056012  0.2499999784564099  0.25000001264252014  1.0000
  Ag  Ag2       1.0  0.7499999965382005  0.7500000208341413  0.7500000237655328  1.0000
  Ge  Ge1       1.0  0.9999999953410768  3.4549645158745605e-08  0.999999955360251  1.0000
  Se  Se1       1.0  0.25998172833947775  0.25998161056361413  0.7400183657674053  1.0000
  Se  Se2       1.0  0.7400183399749422  0.7400183287196589  0.25998159154821254  1.0000
  Se  Se3       1.0  0.7400183528223737  0.2599816535656934  0.25998166467128614  1.0000
  Se  Se4       1.0  0.2599816118818565  0.7400183548168698  0.7400183470177671  1.0000
  Se  Se5       1.0  0.2599816357485382  0.7400183860967355  0.2599817082679378  1.0000
  Se  Se6       1.0  0.7400183213879366  0.2599816295594372  0.7400183392014543  1.0000
