data_image0
_chemical_formula_structural       Ag2HfO6
_chemical_formula_sum              "Ag2 Hf1 O6"
_cell_length_a       5.396022878604522
_cell_length_b       5.3960222383890795
_cell_length_c       5.3960219135689815
_cell_angle_alpha    59.99999989592759
_cell_angle_beta     59.99999897970071
_cell_angle_gamma    60.00000048554172

_space_group_name_H-M_alt    "P 1"
_space_group_IT_number       1

loop_
  _space_group_symop_operation_xyz
  'x, y, z'

loop_
  _atom_site_type_symbol
  _atom_site_label
  _atom_site_symmetry_multiplicity
  _atom_site_fract_x
  _atom_site_fract_y
  _atom_site_fract_z
  _atom_site_occupancy
  Ag  Ag1       1.0  0.24999993676759297  0.24999999927253547  0.25000011002566813  1.0000
  Ag  Ag2       1.0  0.7499998791508719  0.7499997912732717  0.7500005861000506  1.0000
  Hf  Hf1       1.0  2.507443214393625e-07  0.9999995687535884  0.9999999623790599  1.0000
  O   O1        1.0  0.2730636175489689  0.2730635885245917  0.7269364666177321  1.0000
  O   O2        1.0  0.7269365303559769  0.7269363359345858  0.2730634776572574  1.0000
  O   O3        1.0  0.7269364048614616  0.2730638899589115  0.27306342754507246  1.0000
  O   O4        1.0  0.2730634209032816  0.7269365066015991  0.7269364843733545  1.0000
  O   O5        1.0  0.2730635801174326  0.7269365349926222  0.2730632504633384  1.0000
  O   O6        1.0  0.7269363389838388  0.27306375489114415  0.7269361621969291  1.0000
