data_image0
_chemical_formula_structural       Ag2HfSe6
_chemical_formula_sum              "Ag2 Hf1 Se6"
_cell_length_a       6.669297508004428
_cell_length_b       6.669298255617075
_cell_length_c       6.669298438745655
_cell_angle_alpha    59.9999957947018
_cell_angle_beta     60.00000133811273
_cell_angle_gamma    60.000002030434324

_space_group_name_H-M_alt    "P 1"
_space_group_IT_number       1

loop_
  _space_group_symop_operation_xyz
  'x, y, z'

loop_
  _atom_site_type_symbol
  _atom_site_label
  _atom_site_symmetry_multiplicity
  _atom_site_fract_x
  _atom_site_fract_y
  _atom_site_fract_z
  _atom_site_occupancy
  Ag  Ag1       1.0  0.24999990417041854  0.2500001947530299  0.24999988368194248  1.0000
  Ag  Ag2       1.0  0.7500000088155292  0.7499998148106363  0.750000193497199  1.0000
  Hf  Hf1       1.0  2.194337021900328e-07  0.9999997208683549  0.9999999593768083  1.0000
  Se  Se1       1.0  0.27890450277126355  0.2789046596547597  0.721095364600509  1.0000
  Se  Se2       1.0  0.7210956332789609  0.7210954858019634  0.2789043741627155  1.0000
  Se  Se3       1.0  0.7210953823959282  0.27890467952654907  0.278904621122651  1.0000
  Se  Se4       1.0  0.2789043851700997  0.7210954806212823  0.7210956768861623  1.0000
  Se  Se5       1.0  0.2789045547795268  0.721095411605643  0.2789044505478788  1.0000
  Se  Se6       1.0  0.7210954069127676  0.2789045557210065  0.7210954734557927  1.0000
