data_image0
_chemical_formula_structural       Ag2HfS6
_chemical_formula_sum              "Ag2 Hf1 S6"
_cell_length_a       6.509496601403737
_cell_length_b       6.5094972457223985
_cell_length_c       6.509497250259956
_cell_angle_alpha    59.99999853802907
_cell_angle_beta     59.99999629058277
_cell_angle_gamma    59.9999945695441

_space_group_name_H-M_alt    "P 1"
_space_group_IT_number       1

loop_
  _space_group_symop_operation_xyz
  'x, y, z'

loop_
  _atom_site_type_symbol
  _atom_site_label
  _atom_site_symmetry_multiplicity
  _atom_site_fract_x
  _atom_site_fract_y
  _atom_site_fract_z
  _atom_site_occupancy
  Ag  Ag1       1.0  0.2500000428643794  0.24999997771698193  0.2499999931051061  1.0000
  Ag  Ag2       1.0  0.749999931244601  0.749999987713702  0.7499999738973613  1.0000
  Hf  Hf1       1.0  0.9999999618172069  0.9999999868296859  0.9999999857349132  1.0000
  S   S1        1.0  0.27125363003307745  0.2712535173628011  0.7287464393659766  1.0000
  S   S2        1.0  0.7287464430529338  0.7287465289712504  0.2712536020715037  1.0000
  S   S3        1.0  0.7287463175932811  0.27125361525825903  0.2712535871146993  1.0000
  S   S4        1.0  0.2712537556372583  0.7287463614612613  0.7287463538706919  1.0000
  S   S5        1.0  0.2712536553045122  0.7287464020779689  0.27125355816816976  1.0000
  S   S6        1.0  0.7287462554277486  0.27125363108577677  0.7287465095826613  1.0000
