data_image0
_chemical_formula_structural       Ag2HfTe6
_chemical_formula_sum              "Ag2 Hf1 Te6"
_cell_length_a       7.381811978494366
_cell_length_b       7.381812576014733
_cell_length_c       7.381808678671027
_cell_angle_alpha    60.00001094166647
_cell_angle_beta     60.00002162298951
_cell_angle_gamma    60.00002395935903

_space_group_name_H-M_alt    "P 1"
_space_group_IT_number       1

loop_
  _space_group_symop_operation_xyz
  'x, y, z'

loop_
  _atom_site_type_symbol
  _atom_site_label
  _atom_site_symmetry_multiplicity
  _atom_site_fract_x
  _atom_site_fract_y
  _atom_site_fract_z
  _atom_site_occupancy
  Ag  Ag1       1.0  0.250000603129883  0.25000001495056495  0.24999947895500116  1.0000
  Ag  Ag2       1.0  0.7499999105441711  0.7500002555619028  0.7499997239133959  1.0000
  Hf  Hf1       1.0  0.9999988396486158  5.574702407421635e-07  2.580906748068489e-07  1.0000
  Te  Te1       1.0  0.27012913342014444  0.27012941848156363  0.7298707993743531  1.0000
  Te  Te2       1.0  0.7298708900742983  0.7298708818952344  0.2701294451059044  1.0000
  Te  Te3       1.0  0.7298710111156438  0.2701287006972176  0.2701288940373685  1.0000
  Te  Te4       1.0  0.27012963105235654  0.7298703818723856  0.7298706069050083  1.0000
  Te  Te5       1.0  0.2701293463986809  0.7298699864145562  0.27012946655558634  1.0000
  Te  Te6       1.0  0.7298706386159883  0.27012970671765046  0.7298713676591458  1.0000
