data_image0
_chemical_formula_structural       Ag2HgO6
_chemical_formula_sum              "Ag2 Hg1 O6"
_cell_length_a       5.424034244570941
_cell_length_b       5.424034217734329
_cell_length_c       5.424034155687279
_cell_angle_alpha    59.999999705034924
_cell_angle_beta     60.000000287122624
_cell_angle_gamma    60.00000031968614

_space_group_name_H-M_alt    "P 1"
_space_group_IT_number       1

loop_
  _space_group_symop_operation_xyz
  'x, y, z'

loop_
  _atom_site_type_symbol
  _atom_site_label
  _atom_site_symmetry_multiplicity
  _atom_site_fract_x
  _atom_site_fract_y
  _atom_site_fract_z
  _atom_site_occupancy
  Ag  Ag1       1.0  0.25000000366422787  0.2499999696992598  0.2500000119618522  1.0000
  Ag  Ag2       1.0  0.7499999782628171  0.7499999881276468  0.7500000219537867  1.0000
  Hg  Hg1       1.0  3.8146016339614665e-08  8.354585934225764e-08  7.374023480139191e-08  1.0000
  O   O1        1.0  0.27548710270677207  0.2754871168706024  0.7245128595753123  1.0000
  O   O2        1.0  0.7245128870900251  0.724512874826248  0.2754870705063992  1.0000
  O   O3        1.0  0.7245128452485576  0.27548714575707206  0.27548713715347883  1.0000
  O   O4        1.0  0.27548718000833716  0.7245128098118391  0.7245128172295544  1.0000
  O   O5        1.0  0.27548716562681635  0.7245128308708605  0.27548715879859437  1.0000
  O   O6        1.0  0.7245128091388293  0.275487167599978  0.7245128436266085  1.0000
