data_image0
_chemical_formula_structural       Ag2HgTe6
_chemical_formula_sum              "Ag2 Hg1 Te6"
_cell_length_a       7.341117985245502
_cell_length_b       7.341118016699506
_cell_length_c       7.341117981981471
_cell_angle_alpha    59.99999926558712
_cell_angle_beta     60.00000018646706
_cell_angle_gamma    60.00000040699597

_space_group_name_H-M_alt    "P 1"
_space_group_IT_number       1

loop_
  _space_group_symop_operation_xyz
  'x, y, z'

loop_
  _atom_site_type_symbol
  _atom_site_label
  _atom_site_symmetry_multiplicity
  _atom_site_fract_x
  _atom_site_fract_y
  _atom_site_fract_z
  _atom_site_occupancy
  Ag  Ag1       1.0  0.25000000783265786  0.2499999528229961  0.25000004406019005  1.0000
  Ag  Ag2       1.0  0.7500000347918598  0.7500000086191967  0.7499999452076753  1.0000
  Hg  Hg1       1.0  2.0987726499627338e-08  2.669337024631372e-08  0.9999999816082128  1.0000
  Te  Te1       1.0  0.28180625362685496  0.28180625437567425  0.718193746921706  1.0000
  Te  Te2       1.0  0.718193735406534  0.7181937404332303  0.28180630422160036  1.0000
  Te  Te3       1.0  0.7181937064358077  0.28180621166473924  0.2818063280850867  1.0000
  Te  Te4       1.0  0.2818062275453142  0.7181937831441654  0.7181936988211202  1.0000
  Te  Te5       1.0  0.2818061981216466  0.7181937794927747  0.2818062444226064  1.0000
  Te  Te6       1.0  0.71819381828657  0.28180623700449386  0.718193714079587  1.0000
