data_image0
_chemical_formula_structural       Ag2InTe6
_chemical_formula_sum              "Ag2 In1 Te6"
_cell_length_a       7.40191168138406
_cell_length_b       7.401911674609225
_cell_length_c       7.401911639918852
_cell_angle_alpha    59.999999712970485
_cell_angle_beta     60.00000063457681
_cell_angle_gamma    60.00000023326848

_space_group_name_H-M_alt    "P 1"
_space_group_IT_number       1

loop_
  _space_group_symop_operation_xyz
  'x, y, z'

loop_
  _atom_site_type_symbol
  _atom_site_label
  _atom_site_symmetry_multiplicity
  _atom_site_fract_x
  _atom_site_fract_y
  _atom_site_fract_z
  _atom_site_occupancy
  Ag  Ag1       1.0  0.2500000051173051  0.24999994467388115  0.25000003728251724  1.0000
  Ag  Ag2       1.0  0.7499999919328463  0.7500000259590942  0.7499999708462617  1.0000
  In  In1       1.0  0.9999999786952648  2.6474130971533623e-08  5.521316018858242e-09  1.0000
  Te  Te1       1.0  0.2771785725320841  0.2771785408578479  0.7228214568411075  1.0000
  Te  Te2       1.0  0.7228214130302654  0.7228214595585245  0.2771785813189416  1.0000
  Te  Te3       1.0  0.722821458610604  0.27717853056134323  0.2771785764587606  1.0000
  Te  Te4       1.0  0.27717856760645593  0.7228214648911303  0.7228213844117795  1.0000
  Te  Te5       1.0  0.2771785557839078  0.7228214662263158  0.2771785583886769  1.0000
  Te  Te6       1.0  0.7228214539976866  0.2771785457724894  0.7228214199894606  1.0000
