data_image0
_chemical_formula_structural       Ag2IrO6
_chemical_formula_sum              "Ag2 Ir1 O6"
_cell_length_a       5.675344778262148
_cell_length_b       5.675344695395522
_cell_length_c       5.675344735954551
_cell_angle_alpha    59.99999983798237
_cell_angle_beta     59.99999990845568
_cell_angle_gamma    59.99999975879637

_space_group_name_H-M_alt    "P 1"
_space_group_IT_number       1

loop_
  _space_group_symop_operation_xyz
  'x, y, z'

loop_
  _atom_site_type_symbol
  _atom_site_label
  _atom_site_symmetry_multiplicity
  _atom_site_fract_x
  _atom_site_fract_y
  _atom_site_fract_z
  _atom_site_occupancy
  Ag  Ag1       1.0  0.250000000980737  0.2500000010842069  0.2500000005876115  1.0000
  Ag  Ag2       1.0  0.7500000016269567  0.750000001094611  0.7500000017374591  1.0000
  Ir  Ir1       1.0  3.473264144076087e-09  0.9999999956839807  0.9999999916113401  1.0000
  O   O1        1.0  0.23169261694212917  0.23169261985430034  0.7683073853767742  1.0000
  O   O2        1.0  0.7683073923652554  0.7683073866405369  0.2316926114404412  1.0000
  O   O3        1.0  0.7683073811816373  0.23169261339860037  0.23169261219816764  1.0000
  O   O4        1.0  0.2316926154457019  0.7683073823061884  0.7683073910680723  1.0000
  O   O5        1.0  0.23169261549551207  0.7683073876420418  0.23169260430648483  1.0000
  O   O6        1.0  0.768307380289072  0.2316926166947858  0.7683073880170832  1.0000
