data_image0
_chemical_formula_structural       Ag2InSe6
_chemical_formula_sum              "Ag2 In1 Se6"
_cell_length_a       6.7150482509885
_cell_length_b       6.7150481932907224
_cell_length_c       6.7150477774066895
_cell_angle_alpha    60.00000198508365
_cell_angle_beta     60.000002751229374
_cell_angle_gamma    60.0000008544128

_space_group_name_H-M_alt    "P 1"
_space_group_IT_number       1

loop_
  _space_group_symop_operation_xyz
  'x, y, z'

loop_
  _atom_site_type_symbol
  _atom_site_label
  _atom_site_symmetry_multiplicity
  _atom_site_fract_x
  _atom_site_fract_y
  _atom_site_fract_z
  _atom_site_occupancy
  Ag  Ag1       1.0  0.25000002986724496  0.2499999693059856  0.2499999982981031  1.0000
  Ag  Ag2       1.0  0.7500000164588462  0.7499999261567667  0.7500000253247339  1.0000
  In  In1       1.0  6.461047353778003e-09  2.1886571480580837e-08  0.9999999649774931  1.0000
  Se  Se1       1.0  0.29255256749186476  0.292552622624578  0.7074474195147553  1.0000
  Se  Se2       1.0  0.707447478518225  0.7074474698173175  0.29255254002794223  1.0000
  Se  Se3       1.0  0.7074474572769253  0.29255260272541095  0.29255256388775447  1.0000
  Se  Se4       1.0  0.2925524789398309  0.7074475663194852  0.7074473973581824  1.0000
  Se  Se5       1.0  0.2925525175376164  0.7074473885342645  0.2925526527446436  1.0000
  Se  Se6       1.0  0.7074474504362529  0.2925524376210121  0.7074474372620785  1.0000
