data_image0
_chemical_formula_structural       Ag2MnS6
_chemical_formula_sum              "Ag2 Mn1 S6"
_cell_length_a       6.429293406564251
_cell_length_b       6.429293925487839
_cell_length_c       6.429293894172839
_cell_angle_alpha    60.00000027402038
_cell_angle_beta     60.00000274329291
_cell_angle_gamma    60.00000318745694

_space_group_name_H-M_alt    "P 1"
_space_group_IT_number       1

loop_
  _space_group_symop_operation_xyz
  'x, y, z'

loop_
  _atom_site_type_symbol
  _atom_site_label
  _atom_site_symmetry_multiplicity
  _atom_site_fract_x
  _atom_site_fract_y
  _atom_site_fract_z
  _atom_site_occupancy
  Ag  Ag1       1.0  0.250000008646069  0.24999998170864798  0.25000000452467347  1.0000
  Ag  Ag2       1.0  0.7499999993779275  0.7500000194187824  0.7499999539339828  1.0000
  Mn  Mn1       1.0  0.9999999244777796  0.9999999733307765  0.9999999702159196  1.0000
  S   S1        1.0  0.243658051559353  0.24365808802903055  0.7563419441022987  1.0000
  S   S2        1.0  0.756341960563994  0.7563419492923443  0.2436581139740282  1.0000
  S   S3        1.0  0.7563418437459589  0.2436581210556985  0.24365809934999288  1.0000
  S   S4        1.0  0.243658091893346  0.7563419086458998  0.7563418514616878  1.0000
  S   S5        1.0  0.24365808564178051  0.7563419753130115  0.24365809202083427  1.0000
  S   S6        1.0  0.7563420099877773  0.2436579839056376  0.7563419509107073  1.0000
