data_image0
_chemical_formula_structural       Ag2MgTe6
_chemical_formula_sum              "Ag2 Mg1 Te6"
_cell_length_a       7.313208960256504
_cell_length_b       7.313208414103146
_cell_length_c       7.313208400587687
_cell_angle_alpha    59.9999982418822
_cell_angle_beta     60.000001454379095
_cell_angle_gamma    60.000001838371176

_space_group_name_H-M_alt    "P 1"
_space_group_IT_number       1

loop_
  _space_group_symop_operation_xyz
  'x, y, z'

loop_
  _atom_site_type_symbol
  _atom_site_label
  _atom_site_symmetry_multiplicity
  _atom_site_fract_x
  _atom_site_fract_y
  _atom_site_fract_z
  _atom_site_occupancy
  Ag  Ag1       1.0  0.25000003500292994  0.25000011428634156  0.24999990480149295  1.0000
  Ag  Ag2       1.0  0.75000006707376  0.7499999308821911  0.7499999352582499  1.0000
  Mg  Mg1       1.0  0.9999997568728487  2.746512097613548e-07  7.03834697803786e-08  1.0000
  Te  Te1       1.0  0.2798635758027298  0.2798636731139295  0.7201363310483054  1.0000
  Te  Te2       1.0  0.7201365416336147  0.7201363117653113  0.2798635301088679  1.0000
  Te  Te3       1.0  0.7201363897234185  0.2798635646490319  0.27986356376370847  1.0000
  Te  Te4       1.0  0.2798637055478897  0.7201362025188743  0.7201364036577645  1.0000
  Te  Te5       1.0  0.27986365595158125  0.7201362566984484  0.2798637024859438  1.0000
  Te  Te6       1.0  0.7201362709302151  0.27986367459029776  0.7201365501193668  1.0000
