data_image0
_chemical_formula_structural       Ag2MgS6
_chemical_formula_sum              "Ag2 Mg1 S6"
_cell_length_a       6.549447898367222
_cell_length_b       6.549447746934306
_cell_length_c       6.549447963231976
_cell_angle_alpha    59.99999931647084
_cell_angle_beta     60.00000092571802
_cell_angle_gamma    59.9999992660013

_space_group_name_H-M_alt    "P 1"
_space_group_IT_number       1

loop_
  _space_group_symop_operation_xyz
  'x, y, z'

loop_
  _atom_site_type_symbol
  _atom_site_label
  _atom_site_symmetry_multiplicity
  _atom_site_fract_x
  _atom_site_fract_y
  _atom_site_fract_z
  _atom_site_occupancy
  Ag  Ag1       1.0  0.2500000295020851  0.2499999814443768  0.24999999894753722  1.0000
  Ag  Ag2       1.0  0.7500000256230817  0.7500000060430378  0.7500000004829367  1.0000
  Mg  Mg1       1.0  6.163076664017952e-09  0.9999999233301153  5.510240496525618e-08  1.0000
  S   S1        1.0  0.27594641272067477  0.27594654575129274  0.7240535649620057  1.0000
  S   S2        1.0  0.7240535943559997  0.7240534959660403  0.27594645428044856  1.0000
  S   S3        1.0  0.7240535109229682  0.2759465561601497  0.27594638042089614  1.0000
  S   S4        1.0  0.27594646895932323  0.7240535248271243  0.7240535274313885  1.0000
  S   S5        1.0  0.27594646456838284  0.7240534575521218  0.2759464805795269  1.0000
  S   S6        1.0  0.7240534850946142  0.27594651310531815  0.7240535402990163  1.0000
