data_image0
_chemical_formula_structural       Ag2MnO6
_chemical_formula_sum              "Ag2 Mn1 O6"
_cell_length_a       5.383744694276282
_cell_length_b       5.38374478762272
_cell_length_c       5.383744817857647
_cell_angle_alpha    59.999999009005506
_cell_angle_beta     60.00000024678301
_cell_angle_gamma    59.99999923233679

_space_group_name_H-M_alt    "P 1"
_space_group_IT_number       1

loop_
  _space_group_symop_operation_xyz
  'x, y, z'

loop_
  _atom_site_type_symbol
  _atom_site_label
  _atom_site_symmetry_multiplicity
  _atom_site_fract_x
  _atom_site_fract_y
  _atom_site_fract_z
  _atom_site_occupancy
  Ag  Ag1       1.0  0.24999999029417433  0.24999998953150832  0.25000002552523126  1.0000
  Ag  Ag2       1.0  0.7500000363525285  0.7499999845187828  0.7500000265913466  1.0000
  Mn  Mn1       1.0  0.9999999972008561  2.5933792367762443e-07  0.999999511386635  1.0000
  O   O1        1.0  0.24914274774034606  0.24914278480406593  0.7508571639211444  1.0000
  O   O2        1.0  0.7508570180671583  0.7508570709517395  0.24914292730937798  1.0000
  O   O3        1.0  0.750857025290979  0.24914293022791453  0.24914289008170357  1.0000
  O   O4        1.0  0.24914279027400665  0.7508572781364623  0.7508571819952208  1.0000
  O   O5        1.0  0.24914304774891177  0.7508570116363518  0.24914294086963013  1.0000
  O   O6        1.0  0.7508573382525983  0.2491426757772862  0.750857334929918  1.0000
