data_image0
_chemical_formula_structural       Ag2MoO6
_chemical_formula_sum              "Ag2 Mo1 O6"
_cell_length_a       5.587967998358338
_cell_length_b       5.58796997477859
_cell_length_c       5.587969224316933
_cell_angle_alpha    60.000002586776056
_cell_angle_beta     60.00001113482379
_cell_angle_gamma    60.00000079433365

_space_group_name_H-M_alt    "P 1"
_space_group_IT_number       1

loop_
  _space_group_symop_operation_xyz
  'x, y, z'

loop_
  _atom_site_type_symbol
  _atom_site_label
  _atom_site_symmetry_multiplicity
  _atom_site_fract_x
  _atom_site_fract_y
  _atom_site_fract_z
  _atom_site_occupancy
  Ag  Ag1       1.0  0.25000004679656396  0.24999992990017855  0.2500000872478921  1.0000
  Ag  Ag2       1.0  0.7500000347486305  0.7500000198345916  0.7500000778071563  1.0000
  Mo  Mo1       1.0  9.365430309557013e-08  1.0958762008297359e-07  0.9999999753300821  1.0000
  O   O1        1.0  0.2462421005182284  0.246242291523824  0.7537577928204974  1.0000
  O   O2        1.0  0.7537575554980498  0.7537573973924336  0.24624248276555447  1.0000
  O   O3        1.0  0.7537576921230721  0.2462422519509373  0.2462421203527391  1.0000
  O   O4        1.0  0.24624235155702204  0.7537578051797437  0.7537577415030641  1.0000
  O   O5        1.0  0.24624195576020202  0.7537581338652205  0.24624180885420735  1.0000
  O   O6        1.0  0.7537579392603765  0.24624213367374476  0.7537579147536545  1.0000
