data_image0
_chemical_formula_structural       Ag2MnO6
_chemical_formula_sum              "Ag2 Mn1 O6"
_cell_length_a       5.383600435558639
_cell_length_b       5.383600495041476
_cell_length_c       5.3836005916264424
_cell_angle_alpha    59.99999929633966
_cell_angle_beta     60.00000299087881
_cell_angle_gamma    60.00000372473117

_space_group_name_H-M_alt    "P 1"
_space_group_IT_number       1

loop_
  _space_group_symop_operation_xyz
  'x, y, z'

loop_
  _atom_site_type_symbol
  _atom_site_label
  _atom_site_symmetry_multiplicity
  _atom_site_fract_x
  _atom_site_fract_y
  _atom_site_fract_z
  _atom_site_occupancy
  Ag  Ag1       1.0  0.250000015962733  0.24999999424821537  0.24999999735428038  1.0000
  Ag  Ag2       1.0  0.7500000252910799  0.7500000054941952  0.7499999789841749  1.0000
  Mn  Mn1       1.0  0.9999999558466155  0.9999999909001785  1.73391370546033e-08  1.0000
  O   O1        1.0  0.24914738364033087  0.2491474171799925  0.7508525990875566  1.0000
  O   O2        1.0  0.7508526006541513  0.7508526826604344  0.2491473612540331  1.0000
  O   O3        1.0  0.7508526860313682  0.2491473154257231  0.2491473293728327  1.0000
  O   O4        1.0  0.24914738239179057  0.750852609243176  0.7508525873305248  1.0000
  O   O5        1.0  0.24914735846191807  0.7508526082582405  0.2491474056468437  1.0000
  O   O6        1.0  0.7508525977562944  0.24914738920921056  0.7508526867891133  1.0000
