data_image0
_chemical_formula_structural       Ag2MgSe6
_chemical_formula_sum              "Ag2 Mg1 Se6"
_cell_length_a       6.567459053710694
_cell_length_b       6.567459768672227
_cell_length_c       6.56745973834575
_cell_angle_alpha    60.00000201685066
_cell_angle_beta     59.99999881226222
_cell_angle_gamma    59.999999343279164

_space_group_name_H-M_alt    "P 1"
_space_group_IT_number       1

loop_
  _space_group_symop_operation_xyz
  'x, y, z'

loop_
  _atom_site_type_symbol
  _atom_site_label
  _atom_site_symmetry_multiplicity
  _atom_site_fract_x
  _atom_site_fract_y
  _atom_site_fract_z
  _atom_site_occupancy
  Ag  Ag1       1.0  0.24999997751445238  0.24999999592014038  0.2500000364285426  1.0000
  Ag  Ag2       1.0  0.7500000079515968  0.749999967246865  0.7500000361585248  1.0000
  Mg  Mg1       1.0  3.5679270254300246e-08  3.7297348327547814e-09  0.9999999239571246  1.0000
  Se  Se1       1.0  0.2896692164835904  0.2896688498374704  0.7103310339823097  1.0000
  Se  Se2       1.0  0.7103309925591389  0.7103311599512367  0.28966883650858666  1.0000
  Se  Se3       1.0  0.7103308846765908  0.28966903301216734  0.2896690247695512  1.0000
  Se  Se4       1.0  0.2896689938034008  0.7103310084793147  0.7103309403356064  1.0000
  Se  Se5       1.0  0.2896689865525416  0.7103310964269299  0.2896690337454913  1.0000
  Se  Se6       1.0  0.7103309019983712  0.28966887792929064  0.7103311456562024  1.0000
