data_image0
_chemical_formula_structural       Ag2MnS6
_chemical_formula_sum              "Ag2 Mn1 S6"
_cell_length_a       6.429272678951533
_cell_length_b       6.429273342633888
_cell_length_c       6.429273140596412
_cell_angle_alpha    59.9999985360958
_cell_angle_beta     59.9999997102383
_cell_angle_gamma    59.999999206447406

_space_group_name_H-M_alt    "P 1"
_space_group_IT_number       1

loop_
  _space_group_symop_operation_xyz
  'x, y, z'

loop_
  _atom_site_type_symbol
  _atom_site_label
  _atom_site_symmetry_multiplicity
  _atom_site_fract_x
  _atom_site_fract_y
  _atom_site_fract_z
  _atom_site_occupancy
  Ag  Ag1       1.0  0.24999998628316733  0.2500000755501916  0.24999999779961982  1.0000
  Ag  Ag2       1.0  0.7499999730402351  0.7499999847218364  0.7500000419416644  1.0000
  Mn  Mn1       1.0  1.0941048497743867e-08  0.9999998971326637  0.9999999821923292  1.0000
  S   S1        1.0  0.2436593030097551  0.24365922526794906  0.7563407521080094  1.0000
  S   S2        1.0  0.7563407412706086  0.756340806429817  0.2436592454434548  1.0000
  S   S3        1.0  0.7563407199175464  0.24365929123568794  0.24365917990937655  1.0000
  S   S4        1.0  0.24365918245973414  0.7563407728462443  0.7563408381830562  1.0000
  S   S5        1.0  0.24365918163463346  0.7563408238202042  0.24365914009228348  1.0000
  S   S6        1.0  0.7563408769608982  0.24365911643992827  0.7563408758004005  1.0000
