data_image0
_chemical_formula_structural       Ag2MnTe6
_chemical_formula_sum              "Ag2 Mn1 Te6"
_cell_length_a       6.964508905917514
_cell_length_b       6.964508927138014
_cell_length_c       6.964509087146696
_cell_angle_alpha    59.999996408366385
_cell_angle_beta     59.999997592783494
_cell_angle_gamma    59.999998192453695

_space_group_name_H-M_alt    "P 1"
_space_group_IT_number       1

loop_
  _space_group_symop_operation_xyz
  'x, y, z'

loop_
  _atom_site_type_symbol
  _atom_site_label
  _atom_site_symmetry_multiplicity
  _atom_site_fract_x
  _atom_site_fract_y
  _atom_site_fract_z
  _atom_site_occupancy
  Ag  Ag1       1.0  0.2500000085587818  0.24999999477840332  0.24999998667484225  1.0000
  Ag  Ag2       1.0  0.7500000644936464  0.7500001513976232  0.7499998700073279  1.0000
  Mn  Mn1       1.0  0.9999998169183588  3.692958783606154e-08  0.9999999811815395  1.0000
  Te  Te1       1.0  0.25671005587823537  0.25670995558382587  0.7432900637208392  1.0000
  Te  Te2       1.0  0.7432900559771977  0.7432902134533694  0.25670989566342195  1.0000
  Te  Te3       1.0  0.7432901683322504  0.2567098530533628  0.2567099821143004  1.0000
  Te  Te4       1.0  0.25670985923941253  0.743290011754389  0.7432900078395174  1.0000
  Te  Te5       1.0  0.2567098877516947  0.7432899788079393  0.2567100820823296  1.0000
  Te  Te6       1.0  0.7432900893450505  0.2567098086235323  0.7432901283048899  1.0000
