data_image0
_chemical_formula_structural       Ag2MnTe6
_chemical_formula_sum              "Ag2 Mn1 Te6"
_cell_length_a       6.963716740518165
_cell_length_b       6.963717082867759
_cell_length_c       6.96371697856898
_cell_angle_alpha    60.00000030123151
_cell_angle_beta     60.00000180491826
_cell_angle_gamma    60.00000075091204

_space_group_name_H-M_alt    "P 1"
_space_group_IT_number       1

loop_
  _space_group_symop_operation_xyz
  'x, y, z'

loop_
  _atom_site_type_symbol
  _atom_site_label
  _atom_site_symmetry_multiplicity
  _atom_site_fract_x
  _atom_site_fract_y
  _atom_site_fract_z
  _atom_site_occupancy
  Ag  Ag1       1.0  0.24999990831620236  0.25000003502552304  0.25000004940778875  1.0000
  Ag  Ag2       1.0  0.7500000206570208  0.749999988998963  0.7499999018823662  1.0000
  Mn  Mn1       1.0  3.0048172613789456e-08  0.9999999894474911  0.9999999184514334  1.0000
  Te  Te1       1.0  0.25667844246993987  0.25667861146352305  0.7433215158932613  1.0000
  Te  Te2       1.0  0.7433215626295736  0.7433213334171376  0.25667862358757476  1.0000
  Te  Te3       1.0  0.7433215560025918  0.2566784025733848  0.25667861469246506  1.0000
  Te  Te4       1.0  0.2566785367958582  0.7433215229610082  0.7433214288634062  1.0000
  Te  Te5       1.0  0.2566783667692679  0.7433216068160504  0.25667852531173324  1.0000
  Te  Te6       1.0  0.743321564882268  0.2566785086635187  0.7433214263002088  1.0000
