data_image0
_chemical_formula_structural       Ag2MgO6
_chemical_formula_sum              "Ag2 Mg1 O6"
_cell_length_a       5.269485074026691
_cell_length_b       5.269485199836806
_cell_length_c       5.269485098771489
_cell_angle_alpha    59.99999937882461
_cell_angle_beta     59.99999902057897
_cell_angle_gamma    59.99999947751984

_space_group_name_H-M_alt    "P 1"
_space_group_IT_number       1

loop_
  _space_group_symop_operation_xyz
  'x, y, z'

loop_
  _atom_site_type_symbol
  _atom_site_label
  _atom_site_symmetry_multiplicity
  _atom_site_fract_x
  _atom_site_fract_y
  _atom_site_fract_z
  _atom_site_occupancy
  Ag  Ag1       1.0  0.2500000405838054  0.2499999426569445  0.24999998179422647  1.0000
  Ag  Ag2       1.0  0.7499999923736838  0.7499999860178692  0.7499999993658977  1.0000
  Mg  Mg1       1.0  0.9999999678368705  1.162110544571721e-07  9.081634017299953e-08  1.0000
  O   O1        1.0  0.27000895324557106  0.2700090171259768  0.7299910051103745  1.0000
  O   O2        1.0  0.7299909538775322  0.7299909603574806  0.270009039232963  1.0000
  O   O3        1.0  0.7299910335222178  0.2700089476439846  0.270008967879897  1.0000
  O   O4        1.0  0.27000908646813143  0.729990936870628  0.7299909311169015  1.0000
  O   O5        1.0  0.270008987205857  0.7299910488998225  0.27000899584154736  1.0000
  O   O6        1.0  0.7299909813380615  0.27000904014624766  0.7299910037598846  1.0000
