data_image0
_chemical_formula_structural       Ag2MoS6
_chemical_formula_sum              "Ag2 Mo1 S6"
_cell_length_a       6.450432072897157
_cell_length_b       6.450431773426618
_cell_length_c       6.450431757712806
_cell_angle_alpha    60.0000016639564
_cell_angle_beta     60.00000114030321
_cell_angle_gamma    60.00000099713812

_space_group_name_H-M_alt    "P 1"
_space_group_IT_number       1

loop_
  _space_group_symop_operation_xyz
  'x, y, z'

loop_
  _atom_site_type_symbol
  _atom_site_label
  _atom_site_symmetry_multiplicity
  _atom_site_fract_x
  _atom_site_fract_y
  _atom_site_fract_z
  _atom_site_occupancy
  Ag  Ag1       1.0  0.2500000357028832  0.24999995670321207  0.24999996730928153  1.0000
  Ag  Ag2       1.0  0.7499999828833951  0.7500000011200844  0.750000017907104  1.0000
  Mo  Mo1       1.0  0.9999999696580286  2.6581830000985094e-08  2.5134328452131636e-08  1.0000
  S   S1        1.0  0.2512761593861151  0.2512761944133588  0.7487237743982923  1.0000
  S   S2        1.0  0.7487238658176738  0.7487237918904696  0.25127618706793703  1.0000
  S   S3        1.0  0.7487237745206563  0.25127618040045024  0.25127623536430455  1.0000
  S   S4        1.0  0.25127622855023923  0.7487238400800169  0.7487237557365807  1.0000
  S   S5        1.0  0.25127619759603603  0.7487237789912748  0.25127625242722157  1.0000
  S   S6        1.0  0.748723781679072  0.2512762376917885  0.7487237865765033  1.0000
