data_image0
_chemical_formula_structural       Ag2MnSe6
_chemical_formula_sum              "Ag2 Mn1 Se6"
_cell_length_a       6.699638409023866
_cell_length_b       6.699638470307474
_cell_length_c       6.699638336366473
_cell_angle_alpha    60.00000111467452
_cell_angle_beta     60.0000004255351
_cell_angle_gamma    60.0000004073897

_space_group_name_H-M_alt    "P 1"
_space_group_IT_number       1

loop_
  _space_group_symop_operation_xyz
  'x, y, z'

loop_
  _atom_site_type_symbol
  _atom_site_label
  _atom_site_symmetry_multiplicity
  _atom_site_fract_x
  _atom_site_fract_y
  _atom_site_fract_z
  _atom_site_occupancy
  Ag  Ag1       1.0  0.2499999920644757  0.24999999731153183  0.2500000050732569  1.0000
  Ag  Ag2       1.0  0.7500000013324188  0.7499999992468994  0.7499999885457977  1.0000
  Mn  Mn1       1.0  0.9999999758526892  3.107729259688234e-08  0.9999999562343264  1.0000
  Se  Se1       1.0  0.24749831229753863  0.24749828501606308  0.7525016894248563  1.0000
  Se  Se2       1.0  0.752501652862835  0.7525016256227943  0.24749834485344857  1.0000
  Se  Se3       1.0  0.7525016880914569  0.24749832918154102  0.24749831989889431  1.0000
  Se  Se4       1.0  0.24749830211821905  0.7525017441560843  0.7525016936436523  1.0000
  Se  Se5       1.0  0.24749833406058308  0.7525016886740543  0.2474983126728938  1.0000
  Se  Se6       1.0  0.7525017373132087  0.24749828594746429  0.7525017036751763  1.0000
