data_image0
_chemical_formula_structural       Ag2NiTe6
_chemical_formula_sum              "Ag2 Ni1 Te6"
_cell_length_a       6.960753588380584
_cell_length_b       6.9607536707144515
_cell_length_c       6.960753848359867
_cell_angle_alpha    60.0000007817763
_cell_angle_beta     59.99999918574143
_cell_angle_gamma    59.99999969573266

_space_group_name_H-M_alt    "P 1"
_space_group_IT_number       1

loop_
  _space_group_symop_operation_xyz
  'x, y, z'

loop_
  _atom_site_type_symbol
  _atom_site_label
  _atom_site_symmetry_multiplicity
  _atom_site_fract_x
  _atom_site_fract_y
  _atom_site_fract_z
  _atom_site_occupancy
  Ag  Ag1       1.0  0.24999989476691448  0.25000002646187397  0.25000004839963125  1.0000
  Ag  Ag2       1.0  0.7500000436580956  0.7499999667775947  0.7499999772888247  1.0000
  Ni  Ni1       1.0  0.999999896764635  0.9999999912024988  4.0213546637282575e-08  1.0000
  Te  Te1       1.0  0.26037984794927493  0.26037994853787455  0.739620143372948  1.0000
  Te  Te2       1.0  0.739620301253221  0.7396200394230938  0.26037992897512047  1.0000
  Te  Te3       1.0  0.7396201850106473  0.260379878817707  0.2603798642818829  1.0000
  Te  Te4       1.0  0.2603798437639897  0.739620132016764  0.7396200657721046  1.0000
  Te  Te5       1.0  0.2603798198388129  0.7396201081103762  0.26037989779602433  1.0000
  Te  Te6       1.0  0.7396201623867553  0.26037990800259597  0.7396200327804829  1.0000
