data_image0
_chemical_formula_structural       Ag2NiO6
_chemical_formula_sum              "Ag2 Ni1 O6"
_cell_length_a       5.279748344905715
_cell_length_b       5.2797485083576134
_cell_length_c       5.279748696109088
_cell_angle_alpha    59.999999436376804
_cell_angle_beta     59.99999758437985
_cell_angle_gamma    59.999999819642916

_space_group_name_H-M_alt    "P 1"
_space_group_IT_number       1

loop_
  _space_group_symop_operation_xyz
  'x, y, z'

loop_
  _atom_site_type_symbol
  _atom_site_label
  _atom_site_symmetry_multiplicity
  _atom_site_fract_x
  _atom_site_fract_y
  _atom_site_fract_z
  _atom_site_occupancy
  Ag  Ag1       1.0  0.24999995190596278  0.25000011013656454  0.24999999472066883  1.0000
  Ag  Ag2       1.0  0.7500000156863541  0.7500000079709698  0.7500000653971336  1.0000
  Ni  Ni1       1.0  5.0082044067309915e-08  0.9999999350483153  9.266614927809362e-08  1.0000
  O   O1        1.0  0.24437721537545798  0.2443772071812413  0.7556228867882875  1.0000
  O   O2        1.0  0.7556228807025259  0.755622748547079  0.24437712209122414  1.0000
  O   O3        1.0  0.755622781377316  0.2443770891664095  0.24437730608865912  1.0000
  O   O4        1.0  0.24437716624747557  0.7556228526436917  0.7556226798049336  1.0000
  O   O5        1.0  0.24437729347600415  0.7556226120672087  0.24437727474145757  1.0000
  O   O6        1.0  0.7556226394345741  0.24437741325220166  0.7556225990993765  1.0000
