data_image0
_chemical_formula_structural       Ag2NiSe6
_chemical_formula_sum              "Ag2 Ni1 Se6"
_cell_length_a       6.556513838808864
_cell_length_b       6.556516811995068
_cell_length_c       6.556515222891905
_cell_angle_alpha    59.999996880707315
_cell_angle_beta     60.00000199260202
_cell_angle_gamma    60.00000345591131

_space_group_name_H-M_alt    "P 1"
_space_group_IT_number       1

loop_
  _space_group_symop_operation_xyz
  'x, y, z'

loop_
  _atom_site_type_symbol
  _atom_site_label
  _atom_site_symmetry_multiplicity
  _atom_site_fract_x
  _atom_site_fract_y
  _atom_site_fract_z
  _atom_site_occupancy
  Ag  Ag1       1.0  0.25000002093516493  0.24999989682519014  0.24999993615297786  1.0000
  Ag  Ag2       1.0  0.7499997412351671  0.7500002377939756  0.7499998725080798  1.0000
  Ni  Ni1       1.0  0.9999999747212558  1.8679614983194675e-09  1.382970272062831e-07  1.0000
  Se  Se1       1.0  0.24898962410233186  0.24898939411335644  0.7510103231880728  1.0000
  Se  Se2       1.0  0.751010181458886  0.7510105891993548  0.2489895074015753  1.0000
  Se  Se3       1.0  0.7510106248875421  0.24898944256967273  0.2489895849438977  1.0000
  Se  Se4       1.0  0.24898955044198398  0.7510106677656422  0.751010561574477  1.0000
  Se  Se5       1.0  0.2489896017496131  0.7510105202791172  0.24898952405617483  1.0000
  Se  Se6       1.0  0.7510105578578178  0.24898936776648908  0.751010578271671  1.0000
