data_image0
_chemical_formula_structural       Ag2NbSe6
_chemical_formula_sum              "Ag2 Nb1 Se6"
_cell_length_a       6.759760610831405
_cell_length_b       6.759760519053052
_cell_length_c       6.759760478632471
_cell_angle_alpha    59.99999986308428
_cell_angle_beta     59.999999418950125
_cell_angle_gamma    59.999999138330686

_space_group_name_H-M_alt    "P 1"
_space_group_IT_number       1

loop_
  _space_group_symop_operation_xyz
  'x, y, z'

loop_
  _atom_site_type_symbol
  _atom_site_label
  _atom_site_symmetry_multiplicity
  _atom_site_fract_x
  _atom_site_fract_y
  _atom_site_fract_z
  _atom_site_occupancy
  Ag  Ag1       1.0  0.25000000995728355  0.2500000132196184  0.24999999443622944  1.0000
  Ag  Ag2       1.0  0.7499999930849074  0.7500000577770252  0.7499999896843904  1.0000
  Nb  Nb1       1.0  3.852764734574759e-08  9.964993259279854e-08  0.9999998081257938  1.0000
  Se  Se1       1.0  0.260708096634015  0.26070802395247994  0.7392919368300674  1.0000
  Se  Se2       1.0  0.7392918812708079  0.7392919020988067  0.26070811901783425  1.0000
  Se  Se3       1.0  0.739291892770247  0.26070803387310865  0.26070809954798446  1.0000
  Se  Se4       1.0  0.2607080242936926  0.7392919773335755  0.7392919633741113  1.0000
  Se  Se5       1.0  0.26070812335414717  0.7392918772788698  0.2607081057262393  1.0000
  Se  Se6       1.0  0.7392919448098357  0.2607080034769924  0.7392919720200648  1.0000
