data_image0
_chemical_formula_structural       Ag2NiTe6
_chemical_formula_sum              "Ag2 Ni1 Te6"
_cell_length_a       6.960482181455978
_cell_length_b       6.960485359122797
_cell_length_c       6.9604844162400825
_cell_angle_alpha    59.99998235101338
_cell_angle_beta     59.99996023839974
_cell_angle_gamma    59.99998971511178

_space_group_name_H-M_alt    "P 1"
_space_group_IT_number       1

loop_
  _space_group_symop_operation_xyz
  'x, y, z'

loop_
  _atom_site_type_symbol
  _atom_site_label
  _atom_site_symmetry_multiplicity
  _atom_site_fract_x
  _atom_site_fract_y
  _atom_site_fract_z
  _atom_site_occupancy
  Ag  Ag1       1.0  0.2499995095641226  0.2500003382102593  0.25000005134729697  1.0000
  Ag  Ag2       1.0  0.749999843031996  0.7499995401125042  0.7499997643362821  1.0000
  Ni  Ni1       1.0  2.7762622839277226e-07  1.7243766017570982e-07  1.4893795623577548e-08  1.0000
  Te  Te1       1.0  0.2603820408594702  0.2603817016511384  0.7396176361783136  1.0000
  Te  Te2       1.0  0.7396177472151001  0.7396182488139134  0.2603819515550567  1.0000
  Te  Te3       1.0  0.7396180111605242  0.2603818209608236  0.2603817551865114  1.0000
  Te  Te4       1.0  0.26038236003477183  0.7396183758436067  0.739618690716549  1.0000
  Te  Te5       1.0  0.26038217235079253  0.7396179277456238  0.2603815086690971  1.0000
  Te  Te6       1.0  0.7396179974001703  0.26038181333065685  0.7396188692961992  1.0000
