data_image0
_chemical_formula_structural       Ag2NbS6
_chemical_formula_sum              "Ag2 Nb1 S6"
_cell_length_a       6.387728854284538
_cell_length_b       6.387728982143
_cell_length_c       6.3877287861488545
_cell_angle_alpha    59.99999972497919
_cell_angle_beta     60.000000747845995
_cell_angle_gamma    59.99999875445019

_space_group_name_H-M_alt    "P 1"
_space_group_IT_number       1

loop_
  _space_group_symop_operation_xyz
  'x, y, z'

loop_
  _atom_site_type_symbol
  _atom_site_label
  _atom_site_symmetry_multiplicity
  _atom_site_fract_x
  _atom_site_fract_y
  _atom_site_fract_z
  _atom_site_occupancy
  Ag  Ag1       1.0  0.2500000775875523  0.2500000376067933  0.24999992927201  1.0000
  Ag  Ag2       1.0  0.7500000080269736  0.7500000169533799  0.7499999449863688  1.0000
  Nb  Nb1       1.0  7.574111412937052e-08  0.9999999463144758  3.124075057612796e-08  1.0000
  S   S1        1.0  0.26316697696792535  0.26316693283871406  0.7368330032164704  1.0000
  S   S2        1.0  0.7368330944984962  0.7368329472435118  0.263166988837461  1.0000
  S   S3        1.0  0.7368330522949277  0.26316684964797743  0.2631669728078243  1.0000
  S   S4        1.0  0.26316685129162837  0.736833176152096  0.7368331195607085  1.0000
  S   S5        1.0  0.2631668383339424  0.7368332202153489  0.2631667663636554  1.0000
  S   S6        1.0  0.7368330392682729  0.2631668726916288  0.7368332459545319  1.0000
