data_image0
_chemical_formula_structural       Ag2NbTe6
_chemical_formula_sum              "Ag2 Nb1 Te6"
_cell_length_a       7.2496790912625935
_cell_length_b       7.249679039818855
_cell_length_c       7.249679170602492
_cell_angle_alpha    59.999999948578235
_cell_angle_beta     60.00000162467591
_cell_angle_gamma    60.00000560495162

_space_group_name_H-M_alt    "P 1"
_space_group_IT_number       1

loop_
  _space_group_symop_operation_xyz
  'x, y, z'

loop_
  _atom_site_type_symbol
  _atom_site_label
  _atom_site_symmetry_multiplicity
  _atom_site_fract_x
  _atom_site_fract_y
  _atom_site_fract_z
  _atom_site_occupancy
  Ag  Ag1       1.0  0.24999996430449836  0.25000000090032276  0.25000003110590713  1.0000
  Ag  Ag2       1.0  0.7499999779426678  0.749999914853316  0.7499999112705679  1.0000
  Nb  Nb1       1.0  0.9999999160198698  0.9999998935691787  1.310691300234985e-07  1.0000
  Te  Te1       1.0  0.2654847796125934  0.26548484530178723  0.7345152049543178  1.0000
  Te  Te2       1.0  0.7345151971562458  0.734515320479802  0.26548484481356766  1.0000
  Te  Te3       1.0  0.7345150861116332  0.2654849068335218  0.265484902554081  1.0000
  Te  Te4       1.0  0.26548504959938063  0.7345150258139092  0.7345150298202024  1.0000
  Te  Te5       1.0  0.2654849332544223  0.7345150838743101  0.26548489776744105  1.0000
  Te  Te6       1.0  0.7345151002437879  0.2654850025065154  0.7345150391927168  1.0000
