data_image0
_chemical_formula_structural       Ag2NiSe6
_chemical_formula_sum              "Ag2 Ni1 Se6"
_cell_length_a       6.556086698399964
_cell_length_b       6.556086558395813
_cell_length_c       6.5560866082164315
_cell_angle_alpha    59.9999985685376
_cell_angle_beta     59.99999936657033
_cell_angle_gamma    59.99999894253392

_space_group_name_H-M_alt    "P 1"
_space_group_IT_number       1

loop_
  _space_group_symop_operation_xyz
  'x, y, z'

loop_
  _atom_site_type_symbol
  _atom_site_label
  _atom_site_symmetry_multiplicity
  _atom_site_fract_x
  _atom_site_fract_y
  _atom_site_fract_z
  _atom_site_occupancy
  Ag  Ag1       1.0  0.2500000044448001  0.24999998800837392  0.24999999275944687  1.0000
  Ag  Ag2       1.0  0.7499999861675555  0.7500000032552969  0.7500000332586821  1.0000
  Ni  Ni1       1.0  0.999999999377299  1.868103843757524e-09  0.9999999734471957  1.0000
  Se  Se1       1.0  0.24895190556623958  0.24895187824310377  0.751048128504009  1.0000
  Se  Se2       1.0  0.7510481223348645  0.751048127965396  0.2489518530937288  1.0000
  Se  Se3       1.0  0.7510480546735077  0.24895192793777393  0.24895194578215507  1.0000
  Se  Se4       1.0  0.2489519022428063  0.7510481062922799  0.7510480664490021  1.0000
  Se  Se5       1.0  0.24895191843959857  0.7510480847905977  0.24895193512503452  1.0000
  Se  Se6       1.0  0.7510481024347766  0.24895188966014078  0.7510480719661492  1.0000
