data_image0
_chemical_formula_structural       Ag2NbSe6
_chemical_formula_sum              "Ag2 Nb1 Se6"
_cell_length_a       6.763709528075394
_cell_length_b       6.763709531364986
_cell_length_c       6.763709764878116
_cell_angle_alpha    59.99999903001013
_cell_angle_beta     59.99999864403515
_cell_angle_gamma    59.99999922438533

_space_group_name_H-M_alt    "P 1"
_space_group_IT_number       1

loop_
  _space_group_symop_operation_xyz
  'x, y, z'

loop_
  _atom_site_type_symbol
  _atom_site_label
  _atom_site_symmetry_multiplicity
  _atom_site_fract_x
  _atom_site_fract_y
  _atom_site_fract_z
  _atom_site_occupancy
  Ag  Ag1       1.0  0.24999996372052  0.24999999687546037  0.25000004738384335  1.0000
  Ag  Ag2       1.0  0.7499999877648204  0.7499999978694172  0.7499999793424883  1.0000
  Nb  Nb1       1.0  2.9290911663626516e-10  1.4486073207133711e-08  3.5486387639173734e-08  1.0000
  Se  Se1       1.0  0.2604924781426999  0.2604924130599543  0.7395075817178548  1.0000
  Se  Se2       1.0  0.7395075414235259  0.7395075925494783  0.26049245432554957  1.0000
  Se  Se3       1.0  0.7395075173543344  0.26049246453113517  0.26049248191932695  1.0000
  Se  Se4       1.0  0.2604924566175162  0.7395075446998155  0.7395075115359274  1.0000
  Se  Se5       1.0  0.2604924930614351  0.7395075252997853  0.26049238222569693  1.0000
  Se  Se6       1.0  0.7395075698061477  0.2604924477159825  0.7395075360994894  1.0000
