data_image0
_chemical_formula_structural       Ag2NbS6
_chemical_formula_sum              "Ag2 Nb1 S6"
_cell_length_a       6.3877008638826895
_cell_length_b       6.387700647022337
_cell_length_c       6.3877004108716875
_cell_angle_alpha    60.00000245531174
_cell_angle_beta     60.00000173732752
_cell_angle_gamma    60.000000150481924

_space_group_name_H-M_alt    "P 1"
_space_group_IT_number       1

loop_
  _space_group_symop_operation_xyz
  'x, y, z'

loop_
  _atom_site_type_symbol
  _atom_site_label
  _atom_site_symmetry_multiplicity
  _atom_site_fract_x
  _atom_site_fract_y
  _atom_site_fract_z
  _atom_site_occupancy
  Ag  Ag1       1.0  0.24999998602458512  0.2500000272298494  0.25000000309326065  1.0000
  Ag  Ag2       1.0  0.7500000103339995  0.7499999954088632  0.7500000090694064  1.0000
  Nb  Nb1       1.0  2.4959931078041276e-08  4.9851058774179147e-08  0.9999997809955065  1.0000
  S   S1        1.0  0.2631704958273737  0.2631704499799231  0.7368295203728378  1.0000
  S   S2        1.0  0.7368294575131624  0.736829490212802  0.26317050599107983  1.0000
  S   S3        1.0  0.7368294218794487  0.26317056643070436  0.26317059000527765  1.0000
  S   S4        1.0  0.2631704920363775  0.7368295137284662  0.7368295003699021  1.0000
  S   S5        1.0  0.2631705292092091  0.7368294868483564  0.26317054045313115  1.0000
  S   S6        1.0  0.736829605029143  0.2631704149973987  0.7368295602276632  1.0000
