data_image0
_chemical_formula_structural       Ag2NbO6
_chemical_formula_sum              "Ag2 Nb1 O6"
_cell_length_a       5.363499771765974
_cell_length_b       5.363500378411176
_cell_length_c       5.363497759303911
_cell_angle_alpha    60.000003874158665
_cell_angle_beta     60.000001306496834
_cell_angle_gamma    60.000003904798426

_space_group_name_H-M_alt    "P 1"
_space_group_IT_number       1

loop_
  _space_group_symop_operation_xyz
  'x, y, z'

loop_
  _atom_site_type_symbol
  _atom_site_label
  _atom_site_symmetry_multiplicity
  _atom_site_fract_x
  _atom_site_fract_y
  _atom_site_fract_z
  _atom_site_occupancy
  Ag  Ag1       1.0  0.2500004329601487  0.24999985708438996  0.24999978102858306  1.0000
  Ag  Ag2       1.0  0.7500000671010344  0.7499997014115056  0.7500003991636726  1.0000
  Nb  Nb1       1.0  2.403396946249811e-07  4.11026377562007e-08  0.9999999543660127  1.0000
  O   O1        1.0  0.2662912308207833  0.26629164421501206  0.7337085714835979  1.0000
  O   O2        1.0  0.7337086212549538  0.73370851483626  0.26629133970426244  1.0000
  O   O3        1.0  0.7337083239578617  0.2662917028357613  0.26629120021332986  1.0000
  O   O4        1.0  0.2662914022057283  0.7337085110190548  0.7337086029658056  1.0000
  O   O5        1.0  0.2662914367321358  0.7337085062326741  0.2662914151043009  1.0000
  O   O6        1.0  0.7337082610745288  0.26629168935426734  0.7337087320734919  1.0000
