data_image0
_chemical_formula_structural       Ag2PSe6
_chemical_formula_sum              "Ag2 P1 Se6"
_cell_length_a       6.615077921300231
_cell_length_b       6.615077461735498
_cell_length_c       6.615078095393807
_cell_angle_alpha    59.99999860419733
_cell_angle_beta     60.00000034742151
_cell_angle_gamma    59.99999889194152

_space_group_name_H-M_alt    "P 1"
_space_group_IT_number       1

loop_
  _space_group_symop_operation_xyz
  'x, y, z'

loop_
  _atom_site_type_symbol
  _atom_site_label
  _atom_site_symmetry_multiplicity
  _atom_site_fract_x
  _atom_site_fract_y
  _atom_site_fract_z
  _atom_site_occupancy
  Ag  Ag1       1.0  0.25000002388070963  0.24999995926078913  0.2500000053581689  1.0000
  Ag  Ag2       1.0  0.7499999989608672  0.7500000277493737  0.7499999562678644  1.0000
  P   P1        1.0  2.0995521608525543e-09  0.9999999203878848  8.522321499957562e-09  1.0000
  Se  Se1       1.0  0.2451063360901488  0.24510633246764607  0.7548936643992624  1.0000
  Se  Se2       1.0  0.7548935780850916  0.7548937082344088  0.2451064305328493  1.0000
  Se  Se3       1.0  0.754893631297689  0.2451063750367133  0.24510632613281172  1.0000
  Se  Se4       1.0  0.24510639304133855  0.7548936860312313  0.7548936264378674  1.0000
  Se  Se5       1.0  0.24510632144675953  0.7548936725774604  0.2451063752416274  1.0000
  Se  Se6       1.0  0.754893689070022  0.2451063199870362  0.754893610933408  1.0000
