data_image0
_chemical_formula_structural       Ag2PtO6
_chemical_formula_sum              "Ag2 Pt1 O6"
_cell_length_a       5.559236453319181
_cell_length_b       5.559236023630302
_cell_length_c       5.559236673202078
_cell_angle_alpha    59.99999904375071
_cell_angle_beta     59.99999841859234
_cell_angle_gamma    59.99999446088811

_space_group_name_H-M_alt    "P 1"
_space_group_IT_number       1

loop_
  _space_group_symop_operation_xyz
  'x, y, z'

loop_
  _atom_site_type_symbol
  _atom_site_label
  _atom_site_symmetry_multiplicity
  _atom_site_fract_x
  _atom_site_fract_y
  _atom_site_fract_z
  _atom_site_occupancy
  Ag  Ag1       1.0  0.24999995638553388  0.2500000653308709  0.24999994796450115  1.0000
  Ag  Ag2       1.0  0.7499999224301692  0.7499999800906423  0.7499999989588324  1.0000
  Pt  Pt1       1.0  0.9999999958242104  3.7452382503588403e-08  0.9999999743676639  1.0000
  O   O1        1.0  0.24349614785070253  0.24349632433600066  0.7565038149504112  1.0000
  O   O2        1.0  0.7565038714112693  0.7565036175406912  0.24349631318989604  1.0000
  O   O3        1.0  0.7565037692718828  0.2434961827904907  0.2434963048532313  1.0000
  O   O4        1.0  0.24349638957600384  0.7565036643536962  0.7565037397008929  1.0000
  O   O5        1.0  0.24349624458519434  0.756503823153622  0.2434962611505396  1.0000
  O   O6        1.0  0.7565036747209901  0.24349635004660955  0.7565036825845616  1.0000
