data_image0
_chemical_formula_structural       Ag2PdSe6
_chemical_formula_sum              "Ag2 Pd1 Se6"
_cell_length_a       6.510683406003462
_cell_length_b       6.5106832272244315
_cell_length_c       6.5106834077821
_cell_angle_alpha    59.999996600584694
_cell_angle_beta     59.99999779851858
_cell_angle_gamma    59.99999805020269

_space_group_name_H-M_alt    "P 1"
_space_group_IT_number       1

loop_
  _space_group_symop_operation_xyz
  'x, y, z'

loop_
  _atom_site_type_symbol
  _atom_site_label
  _atom_site_symmetry_multiplicity
  _atom_site_fract_x
  _atom_site_fract_y
  _atom_site_fract_z
  _atom_site_occupancy
  Ag  Ag1       1.0  0.2499999483781458  0.2500000425937622  0.2500000227314398  1.0000
  Ag  Ag2       1.0  0.7500000942764544  0.7499999283813858  0.7499999434873511  1.0000
  Pd  Pd1       1.0  0.9999999816005638  6.5839589455922e-08  4.8468964768542286e-08  1.0000
  Se  Se1       1.0  0.28364046207060634  0.28364058567902656  0.7163594848768211  1.0000
  Se  Se2       1.0  0.7163595298672865  0.7163594097508245  0.2836405897010706  1.0000
  Se  Se3       1.0  0.7163594466031756  0.2836405137677109  0.2836404717496015  1.0000
  Se  Se4       1.0  0.28364057206397353  0.7163594440395205  0.7163594331781463  1.0000
  Se  Se5       1.0  0.2836404948841634  0.7163594488676894  0.283640502151149  1.0000
  Se  Se6       1.0  0.7163594859821107  0.2836405691357366  0.7163595221335894  1.0000
