data_image0
_chemical_formula_structural       Ag2PdS6
_chemical_formula_sum              "Ag2 Pd1 S6"
_cell_length_a       6.39589522566733
_cell_length_b       6.395895363193257
_cell_length_c       6.395895261812715
_cell_angle_alpha    60.00000084837941
_cell_angle_beta     60.000000648911445
_cell_angle_gamma    60.00000017085732

_space_group_name_H-M_alt    "P 1"
_space_group_IT_number       1

loop_
  _space_group_symop_operation_xyz
  'x, y, z'

loop_
  _atom_site_type_symbol
  _atom_site_label
  _atom_site_symmetry_multiplicity
  _atom_site_fract_x
  _atom_site_fract_y
  _atom_site_fract_z
  _atom_site_occupancy
  Ag  Ag1       1.0  0.2499999966829545  0.25000008909339677  0.24999992007401678  1.0000
  Ag  Ag2       1.0  0.7499999420922866  0.7500000049399923  0.7500000123076088  1.0000
  Pd  Pd1       1.0  0.9999999926126066  1.0340416590288059e-07  0.9999999832616695  1.0000
  S   S1        1.0  0.26232223219327355  0.26232220454377553  0.737677791465057  1.0000
  S   S2        1.0  0.7376776920890259  0.7376776080004955  0.2623223233046588  1.0000
  S   S3        1.0  0.7376778094825918  0.2623221814080613  0.2623221728090459  1.0000
  S   S4        1.0  0.26232229765282844  0.7376776675191555  0.7376778088900963  1.0000
  S   S5        1.0  0.2623223309489193  0.7376777668487915  0.262322169112399  1.0000
  S   S6        1.0  0.7376776808423797  0.2623224114398432  0.737677778443742  1.0000
