data_image0
_chemical_formula_structural       Ag2PtSe6
_chemical_formula_sum              "Ag2 Pt1 Se6"
_cell_length_a       6.4789890471073
_cell_length_b       6.478988707610657
_cell_length_c       6.47898928061442
_cell_angle_alpha    59.99999700367196
_cell_angle_beta     59.999993204337095
_cell_angle_gamma    60.00000153066004

_space_group_name_H-M_alt    "P 1"
_space_group_IT_number       1

loop_
  _space_group_symop_operation_xyz
  'x, y, z'

loop_
  _atom_site_type_symbol
  _atom_site_label
  _atom_site_symmetry_multiplicity
  _atom_site_fract_x
  _atom_site_fract_y
  _atom_site_fract_z
  _atom_site_occupancy
  Ag  Ag1       1.0  0.25000003225965295  0.2499999970692706  0.2499998958514651  1.0000
  Ag  Ag2       1.0  0.7499998530096851  0.7500000327951368  0.7499999676856515  1.0000
  Pt  Pt1       1.0  1.6238317463602987e-07  0.9999998336506687  1.4330676490892381e-08  1.0000
  Se  Se1       1.0  0.2846502413235813  0.2846500684266265  0.7153497386730067  1.0000
  Se  Se2       1.0  0.7153499319494511  0.7153497497204536  0.2846500435042969  1.0000
  Se  Se3       1.0  0.7153496483224339  0.2846503021970509  0.28465032474192864  1.0000
  Se  Se4       1.0  0.2846499822988024  0.7153500906113672  0.7153499214437684  1.0000
  Se  Se5       1.0  0.2846501109873055  0.7153499646364753  0.2846501073323092  1.0000
  Se  Se6       1.0  0.7153500283492708  0.2846499820532827  0.7153499871658784  1.0000
