data_image0
_chemical_formula_structural       Ag2PtSe6
_chemical_formula_sum              "Ag2 Pt1 Se6"
_cell_length_a       6.479354519526066
_cell_length_b       6.479354365252095
_cell_length_c       6.479354295493219
_cell_angle_alpha    59.999998089993085
_cell_angle_beta     59.99999992160422
_cell_angle_gamma    59.99999953966688

_space_group_name_H-M_alt    "P 1"
_space_group_IT_number       1

loop_
  _space_group_symop_operation_xyz
  'x, y, z'

loop_
  _atom_site_type_symbol
  _atom_site_label
  _atom_site_symmetry_multiplicity
  _atom_site_fract_x
  _atom_site_fract_y
  _atom_site_fract_z
  _atom_site_occupancy
  Ag  Ag1       1.0  0.2500000009445525  0.25000004616969984  0.24999996556980322  1.0000
  Ag  Ag2       1.0  0.7500000054466988  0.7499999702789177  0.750000019645438  1.0000
  Pt  Pt1       1.0  0.9999998942617743  0.9999999376225109  3.248225913452944e-07  1.0000
  Se  Se1       1.0  0.2846113299006486  0.28461141669072615  0.7153886337869259  1.0000
  Se  Se2       1.0  0.7153888712793232  0.7153887585369405  0.2846111854479718  1.0000
  Se  Se3       1.0  0.7153887987548044  0.28461117234151817  0.284611338938186  1.0000
  Se  Se4       1.0  0.2846115656703832  0.7153884169158599  0.715388518802526  1.0000
  Se  Se5       1.0  0.2846111693070983  0.7153887397705706  0.2846113912425494  1.0000
  Se  Se6       1.0  0.7153883684351366  0.2846115545413766  0.7153886152840787  1.0000
