data_image0
_chemical_formula_structural       Ag2PdO6
_chemical_formula_sum              "Ag2 Pd1 O6"
_cell_length_a       5.731789791617602
_cell_length_b       5.731789898813522
_cell_length_c       5.731789876073693
_cell_angle_alpha    59.99999996312504
_cell_angle_beta     59.99999962909889
_cell_angle_gamma    60.000002243914516

_space_group_name_H-M_alt    "P 1"
_space_group_IT_number       1

loop_
  _space_group_symop_operation_xyz
  'x, y, z'

loop_
  _atom_site_type_symbol
  _atom_site_label
  _atom_site_symmetry_multiplicity
  _atom_site_fract_x
  _atom_site_fract_y
  _atom_site_fract_z
  _atom_site_occupancy
  Ag  Ag1       1.0  0.2499999663138966  0.24999996491206633  0.24999999276030274  1.0000
  Ag  Ag2       1.0  0.7499999733963596  0.7500000400357524  0.7499999504026152  1.0000
  Pd  Pd1       1.0  2.5924919490659e-07  0.999999856837212  0.9999999628926656  1.0000
  O   O1        1.0  0.22632518715335495  0.22632526659649216  0.773674761509242  1.0000
  O   O2        1.0  0.773674844779547  0.7736746913426498  0.22632522359895346  1.0000
  O   O3        1.0  0.7736747079209563  0.22632534811666508  0.22632532100263705  1.0000
  O   O4        1.0  0.22632524784284302  0.7736747658058172  0.7736748579823057  1.0000
  O   O5        1.0  0.22632518289644546  0.7736747713634478  0.22632527475803443  1.0000
  O   O6        1.0  0.7736746194155355  0.22632532546496678  0.7736746580152641  1.0000
