data_image0
_chemical_formula_structural       Ag2PbSe6
_chemical_formula_sum              "Ag2 Pb1 Se6"
_cell_length_a       6.875639825931215
_cell_length_b       6.875641459788291
_cell_length_c       6.8756406799991145
_cell_angle_alpha    59.99999369269628
_cell_angle_beta     59.99998631462359
_cell_angle_gamma    59.99999227864949

_space_group_name_H-M_alt    "P 1"
_space_group_IT_number       1

loop_
  _space_group_symop_operation_xyz
  'x, y, z'

loop_
  _atom_site_type_symbol
  _atom_site_label
  _atom_site_symmetry_multiplicity
  _atom_site_fract_x
  _atom_site_fract_y
  _atom_site_fract_z
  _atom_site_occupancy
  Ag  Ag1       1.0  0.2500000169532375  0.2499999294820474  0.25000004204272924  1.0000
  Ag  Ag2       1.0  0.749999950074749  0.7499999950747515  0.749999955399153  1.0000
  Pb  Pb1       1.0  0.9999999851385077  7.481379768128427e-08  2.3837009678735018e-08  1.0000
  Se  Se1       1.0  0.3013684624297708  0.3013677871598121  0.6986316690446739  1.0000
  Se  Se2       1.0  0.6986315349119555  0.6986321623349104  0.3013684011256571  1.0000
  Se  Se3       1.0  0.6986315610168691  0.3013677211849583  0.3013683479010268  1.0000
  Se  Se4       1.0  0.3013685138542927  0.6986319201481546  0.6986317852266519  1.0000
  Se  Se5       1.0  0.3013682503071092  0.6986320347932415  0.30136781300557314  1.0000
  Se  Se6       1.0  0.6986317292827456  0.30136837605325967  0.6986319626442743  1.0000
