data_image0
_chemical_formula_structural       Ag2PS6
_chemical_formula_sum              "Ag2 P1 S6"
_cell_length_a       6.568211937529059
_cell_length_b       6.568211303260684
_cell_length_c       6.568211866401084
_cell_angle_alpha    60.00000084228334
_cell_angle_beta     60.00000288901153
_cell_angle_gamma    59.99999888607419

_space_group_name_H-M_alt    "P 1"
_space_group_IT_number       1

loop_
  _space_group_symop_operation_xyz
  'x, y, z'

loop_
  _atom_site_type_symbol
  _atom_site_label
  _atom_site_symmetry_multiplicity
  _atom_site_fract_x
  _atom_site_fract_y
  _atom_site_fract_z
  _atom_site_occupancy
  Ag  Ag1       1.0  0.24999999102815273  0.2499999985462557  0.2499999981872765  1.0000
  Ag  Ag2       1.0  0.7499999589320075  0.749999969533597  0.7500000603651703  1.0000
  P   P1        1.0  0.9999998934710725  2.4240515251464838e-08  0.9999999863347669  1.0000
  S   S1        1.0  0.23347526599057183  0.23347515949328826  0.7665247622224982  1.0000
  S   S2        1.0  0.7665247677143844  0.7665248421503543  0.2334751843887051  1.0000
  S   S3        1.0  0.7665248243923062  0.23347514279993734  0.2334752326299546  1.0000
  S   S4        1.0  0.2334752586619681  0.7665248215506051  0.7665247795099055  1.0000
  S   S5        1.0  0.23347521039576744  0.7665248939236523  0.23347516412229583  1.0000
  S   S6        1.0  0.7665248107532151  0.23347518230619624  0.7665247895359025  1.0000
