data_image0
_chemical_formula_structural       Ag2PbTe6
_chemical_formula_sum              "Ag2 Pb1 Te6"
_cell_length_a       7.614627303251235
_cell_length_b       7.614627327333552
_cell_length_c       7.614627179567803
_cell_angle_alpha    59.99999988330908
_cell_angle_beta     60.00000045040332
_cell_angle_gamma    60.00000409951433

_space_group_name_H-M_alt    "P 1"
_space_group_IT_number       1

loop_
  _space_group_symop_operation_xyz
  'x, y, z'

loop_
  _atom_site_type_symbol
  _atom_site_label
  _atom_site_symmetry_multiplicity
  _atom_site_fract_x
  _atom_site_fract_y
  _atom_site_fract_z
  _atom_site_occupancy
  Ag  Ag1       1.0  0.2500000011320754  0.24999996131835406  0.2500000447841486  1.0000
  Ag  Ag2       1.0  0.7500000350702419  0.7500000254952119  0.7499998888406686  1.0000
  Pb  Pb1       1.0  4.944543771029394e-08  0.9999999517476804  0.9999998812098674  1.0000
  Te  Te1       1.0  0.28878493144546696  0.28878483027326346  0.7112150924000622  1.0000
  Te  Te2       1.0  0.7112150353088584  0.7112150873786358  0.28878502347011076  1.0000
  Te  Te3       1.0  0.7112150567874758  0.28878494621762685  0.2887850239747606  1.0000
  Te  Te4       1.0  0.28878474891296113  0.7112153590612583  0.7112150271995529  1.0000
  Te  Te5       1.0  0.28878488674631153  0.7112150376564232  0.2887850466856086  1.0000
  Te  Te6       1.0  0.7112152545361272  0.28878479314130323  0.7112149662508076  1.0000
