data_image0
_chemical_formula_structural       Ag2PO6
_chemical_formula_sum              "Ag2 P1 O6"
_cell_length_a       5.226260148268898
_cell_length_b       5.226259341000305
_cell_length_c       5.226259534748789
_cell_angle_alpha    59.99999797885526
_cell_angle_beta     59.99999780741521
_cell_angle_gamma    60.00000345557372

_space_group_name_H-M_alt    "P 1"
_space_group_IT_number       1

loop_
  _space_group_symop_operation_xyz
  'x, y, z'

loop_
  _atom_site_type_symbol
  _atom_site_label
  _atom_site_symmetry_multiplicity
  _atom_site_fract_x
  _atom_site_fract_y
  _atom_site_fract_z
  _atom_site_occupancy
  Ag  Ag1       1.0  0.24999991194810545  0.25000010326766636  0.24999998948028263  1.0000
  Ag  Ag2       1.0  0.750000033740913  0.7500000590544611  0.7500000558448388  1.0000
  P   P1        1.0  0.9999995593372601  3.6089042171718353e-07  1.3173006603650707e-07  1.0000
  O   O1        1.0  0.23061952830185967  0.23061923651050062  0.7693806429785098  1.0000
  O   O2        1.0  0.7693807956079841  0.7693804407186404  0.23061940794731872  1.0000
  O   O3        1.0  0.7693808128393814  0.23061932707783594  0.23061936689386187  1.0000
  O   O4        1.0  0.2306193435106059  0.7693804087374035  0.7693806811164228  1.0000
  O   O5        1.0  0.23061939794769534  0.7693804504345326  0.2306194652812911  1.0000
  O   O6        1.0  0.7693807292547621  0.23061934631026237  0.7693805840587107  1.0000
