data_image0
_chemical_formula_structural       Ag2PbO6
_chemical_formula_sum              "Ag2 Pb1 O6"
_cell_length_a       5.526925863534621
_cell_length_b       5.526925918592383
_cell_length_c       5.526925538009737
_cell_angle_alpha    60.000001400895826
_cell_angle_beta     60.00000254038358
_cell_angle_gamma    60.00000420556847

_space_group_name_H-M_alt    "P 1"
_space_group_IT_number       1

loop_
  _space_group_symop_operation_xyz
  'x, y, z'

loop_
  _atom_site_type_symbol
  _atom_site_label
  _atom_site_symmetry_multiplicity
  _atom_site_fract_x
  _atom_site_fract_y
  _atom_site_fract_z
  _atom_site_occupancy
  Ag  Ag1       1.0  0.25000003802292275  0.24999994300257683  0.2500000471248049  1.0000
  Ag  Ag2       1.0  0.7500000179605832  0.7500000483877983  0.7499999639417242  1.0000
  Pb  Pb1       1.0  0.9999999693132707  1.484693399323618e-07  0.9999998633077539  1.0000
  O   O1        1.0  0.27296518444174483  0.272965164103942  0.7270348797792309  1.0000
  O   O2        1.0  0.7270346566265476  0.7270347763193382  0.2729653366014188  1.0000
  O   O3        1.0  0.7270347832672256  0.2729652217711025  0.27296519098677696  1.0000
  O   O4        1.0  0.27296524028075936  0.727034754107551  0.7270347137820328  1.0000
  O   O5        1.0  0.27296527020974787  0.7270348504919133  0.2729651371606036  1.0000
  O   O6        1.0  0.7270347772901158  0.2729651475463425  0.7270348802517786  1.0000
