data_image0
_chemical_formula_structural       Ag2PdO6
_chemical_formula_sum              "Ag2 Pd1 O6"
_cell_length_a       5.731712242628706
_cell_length_b       5.731712535560697
_cell_length_c       5.731712456617996
_cell_angle_alpha    60.00000593866687
_cell_angle_beta     59.999995626171106
_cell_angle_gamma    60.00001126066619

_space_group_name_H-M_alt    "P 1"
_space_group_IT_number       1

loop_
  _space_group_symop_operation_xyz
  'x, y, z'

loop_
  _atom_site_type_symbol
  _atom_site_label
  _atom_site_symmetry_multiplicity
  _atom_site_fract_x
  _atom_site_fract_y
  _atom_site_fract_z
  _atom_site_occupancy
  Ag  Ag1       1.0  0.25000002829964457  0.24999974802196037  0.2500000799250903  1.0000
  Ag  Ag2       1.0  0.7500001774751537  0.7500000239930762  0.7500001437360545  1.0000
  Pd  Pd1       1.0  0.9999931810898423  0.999999835466557  3.6002263582037835e-07  1.0000
  O   O1        1.0  0.2263297663395829  0.22633044222751325  0.7736694100614407  1.0000
  O   O2        1.0  0.7736741038225416  0.7736738811435749  0.2263259973883265  1.0000
  O   O3        1.0  0.7736713910180283  0.22632842565335734  0.22632805735912617  1.0000
  O   O4        1.0  0.22632801203118566  0.7736717117521195  0.7736721337358078  1.0000
  O   O5        1.0  0.22632971876031874  0.7736702032665697  0.2263302979610736  1.0000
  O   O6        1.0  0.7736734063303013  0.22632575458464668  0.77367370720596  1.0000
