data_image0
_chemical_formula_structural       Ag2PdS6
_chemical_formula_sum              "Ag2 Pd1 S6"
_cell_length_a       6.394766080556139
_cell_length_b       6.394766282361856
_cell_length_c       6.394766045533682
_cell_angle_alpha    60.00000146420706
_cell_angle_beta     60.00000243227972
_cell_angle_gamma    60.0000011209265

_space_group_name_H-M_alt    "P 1"
_space_group_IT_number       1

loop_
  _space_group_symop_operation_xyz
  'x, y, z'

loop_
  _atom_site_type_symbol
  _atom_site_label
  _atom_site_symmetry_multiplicity
  _atom_site_fract_x
  _atom_site_fract_y
  _atom_site_fract_z
  _atom_site_occupancy
  Ag  Ag1       1.0  0.24999999092572625  0.2499999952875646  0.24999999396407224  1.0000
  Ag  Ag2       1.0  0.7500000073952166  0.7500000011845339  0.7499999819427404  1.0000
  Pd  Pd1       1.0  0.9999999774929583  0.9999999808477001  0.999999942640727  1.0000
  S   S1        1.0  0.2623454760413338  0.2623455000766639  0.7376545081940593  1.0000
  S   S2        1.0  0.7376545436193639  0.7376545136325046  0.2623455015928226  1.0000
  S   S3        1.0  0.7376545309372786  0.26234545067163295  0.26234552247477894  1.0000
  S   S4        1.0  0.2623454503844554  0.7376545534613855  0.7376545097058804  1.0000
  S   S5        1.0  0.2623454849033877  0.7376545313181785  0.2623455057599405  1.0000
  S   S6        1.0  0.7376545401743992  0.2623454823909899  0.7376545247750801  1.0000
