data_image0
_chemical_formula_structural       Ag2RhO6
_chemical_formula_sum              "Ag2 Rh1 O6"
_cell_length_a       5.647300904657725
_cell_length_b       5.6473022999134646
_cell_length_c       5.647301159155981
_cell_angle_alpha    59.99999739372355
_cell_angle_beta     60.000001477767455
_cell_angle_gamma    59.999997798941415

_space_group_name_H-M_alt    "P 1"
_space_group_IT_number       1

loop_
  _space_group_symop_operation_xyz
  'x, y, z'

loop_
  _atom_site_type_symbol
  _atom_site_label
  _atom_site_symmetry_multiplicity
  _atom_site_fract_x
  _atom_site_fract_y
  _atom_site_fract_z
  _atom_site_occupancy
  Ag  Ag1       1.0  0.2500001605543339  0.2499999634738565  0.24999989955866506  1.0000
  Ag  Ag2       1.0  0.749999965634513  0.7499999663269803  0.7500000480028034  1.0000
  Rh  Rh1       1.0  8.230518660522168e-08  0.9999999371069553  0.9999999725863619  1.0000
  O   O1        1.0  0.23977369692948908  0.23977386590174607  0.7602261931155896  1.0000
  O   O2        1.0  0.7602262457895208  0.7602263566770497  0.23977374406072688  1.0000
  O   O3        1.0  0.7602260003935392  0.23977383933600993  0.2397739107713557  1.0000
  O   O4        1.0  0.23977383302825073  0.7602263246871956  0.7602261634540878  1.0000
  O   O5        1.0  0.23977374763920992  0.760226270384152  0.239773603421387  1.0000
  O   O6        1.0  0.7602261305640069  0.23977361821089774  0.7602266233133453  1.0000
