data_image0
_chemical_formula_structural       Ag2ReO6
_chemical_formula_sum              "Ag2 Re1 O6"
_cell_length_a       5.570763469356082
_cell_length_b       5.570763507013047
_cell_length_c       5.57076340023027
_cell_angle_alpha    60.000001240510656
_cell_angle_beta     60.000001403352016
_cell_angle_gamma    60.00000207589982

_space_group_name_H-M_alt    "P 1"
_space_group_IT_number       1

loop_
  _space_group_symop_operation_xyz
  'x, y, z'

loop_
  _atom_site_type_symbol
  _atom_site_label
  _atom_site_symmetry_multiplicity
  _atom_site_fract_x
  _atom_site_fract_y
  _atom_site_fract_z
  _atom_site_occupancy
  Ag  Ag1       1.0  0.24999999907351145  0.2500000093526053  0.2500000436651036  1.0000
  Ag  Ag2       1.0  0.750000058545562  0.7500000368519062  0.7499999954109302  1.0000
  Re  Re1       1.0  0.9999999514063082  0.9999999032650128  1.0497588872451171e-07  1.0000
  O   O1        1.0  0.24158824715084476  0.24158807926380094  0.7584117786384197  1.0000
  O   O2        1.0  0.7584119938577804  0.7584119515510552  0.2415879879536254  1.0000
  O   O3        1.0  0.7584117739200208  0.2415882388564167  0.24158823584437988  1.0000
  O   O4        1.0  0.2415880337898687  0.7584119414579596  0.7584118521558815  1.0000
  O   O5        1.0  0.24158802656347578  0.7584117859474817  0.24158823573794264  1.0000
  O   O6        1.0  0.7584119576531801  0.24158805139739822  0.7584119049772197  1.0000
