data_image0
_chemical_formula_structural       Ag2RuO6
_chemical_formula_sum              "Ag2 Ru1 O6"
_cell_length_a       5.609493865781183
_cell_length_b       5.60949459197169
_cell_length_c       5.609493332264862
_cell_angle_alpha    60.000005456121286
_cell_angle_beta     60.00000098252742
_cell_angle_gamma    60.000006071461705

_space_group_name_H-M_alt    "P 1"
_space_group_IT_number       1

loop_
  _space_group_symop_operation_xyz
  'x, y, z'

loop_
  _atom_site_type_symbol
  _atom_site_label
  _atom_site_symmetry_multiplicity
  _atom_site_fract_x
  _atom_site_fract_y
  _atom_site_fract_z
  _atom_site_occupancy
  Ag  Ag1       1.0  0.24999995475744186  0.2499999300890233  0.2500000843226317  1.0000
  Ag  Ag2       1.0  0.7499999785443543  0.7500000588181942  0.7500000490774676  1.0000
  Ru  Ru1       1.0  0.9999998268205489  0.9999998340659542  1.3532643734675614e-06  1.0000
  O   O1        1.0  0.2305620382009024  0.23056202220924432  0.769438008534023  1.0000
  O   O2        1.0  0.7694383219080063  0.7694382177823617  0.23056175561454756  1.0000
  O   O3        1.0  0.7694385770469353  0.23056157387287904  0.23056148284895492  1.0000
  O   O4        1.0  0.2305623781082033  0.7694373626632958  0.7694378742946572  1.0000
  O   O5        1.0  0.230561352377205  0.7694384248614827  0.23056162411811235  1.0000
  O   O6        1.0  0.7694376379390977  0.2305625465498422  0.7694376980073446  1.0000
