data_image0
_chemical_formula_structural       Ag2ReTe6
_chemical_formula_sum              "Ag2 Re1 Te6"
_cell_length_a       7.154741753980147
_cell_length_b       7.154740317317283
_cell_length_c       7.154741329078494
_cell_angle_alpha    59.999999350744346
_cell_angle_beta     60.0000008041989
_cell_angle_gamma    60.00000125769863

_space_group_name_H-M_alt    "P 1"
_space_group_IT_number       1

loop_
  _space_group_symop_operation_xyz
  'x, y, z'

loop_
  _atom_site_type_symbol
  _atom_site_label
  _atom_site_symmetry_multiplicity
  _atom_site_fract_x
  _atom_site_fract_y
  _atom_site_fract_z
  _atom_site_occupancy
  Ag  Ag1       1.0  0.2500002404546005  0.25000000617987994  0.24999978922104193  1.0000
  Ag  Ag2       1.0  0.7499999889460743  0.7500001726011696  0.749999992283132  1.0000
  Re  Re1       1.0  0.9999990866330676  0.9999999948645892  9.330628581881268e-07  1.0000
  Te  Te1       1.0  0.26207940608481367  0.26207914914388125  0.7379207659327447  1.0000
  Te  Te2       1.0  0.7379210899133299  0.73792132406593  0.26207878397693063  1.0000
  Te  Te3       1.0  0.7379210434853669  0.26207881718025605  0.26207896532646474  1.0000
  Te  Te4       1.0  0.26207920216372027  0.7379206785945551  0.7379206883239935  1.0000
  Te  Te5       1.0  0.26207929896810905  0.7379207437902986  0.2620792227915134  1.0000
  Te  Te6       1.0  0.7379206791769444  0.26207904127788095  0.7379208811968966  1.0000
