data_image0
_chemical_formula_structural       Ag2RuS6
_chemical_formula_sum              "Ag2 Ru1 S6"
_cell_length_a       6.178753248541954
_cell_length_b       6.178753464802897
_cell_length_c       6.178753446604576
_cell_angle_alpha    60.00000328503961
_cell_angle_beta     60.0000023590933
_cell_angle_gamma    60.0000022865369

_space_group_name_H-M_alt    "P 1"
_space_group_IT_number       1

loop_
  _space_group_symop_operation_xyz
  'x, y, z'

loop_
  _atom_site_type_symbol
  _atom_site_label
  _atom_site_symmetry_multiplicity
  _atom_site_fract_x
  _atom_site_fract_y
  _atom_site_fract_z
  _atom_site_occupancy
  Ag  Ag1       1.0  0.2500002049939451  0.2499999062602637  0.24999969575134404  1.0000
  Ag  Ag2       1.0  0.7500002099909769  0.7499999189817496  0.7499997658169736  1.0000
  Ru  Ru1       1.0  3.851327537821702e-06  0.9999976966979334  0.9999946036957335  1.0000
  S   S1        1.0  0.26464320180529216  0.26464356033023634  0.7353570955727562  1.0000
  S   S2        1.0  0.7353557224795827  0.7353563303239995  0.26464425687062265  1.0000
  S   S3        1.0  0.7353548303518892  0.26464494659388466  0.26464538304325075  1.0000
  S   S4        1.0  0.2646422993453248  0.7353575526192392  0.7353578055854424  1.0000
  S   S5        1.0  0.264643573407625  0.7353563840944762  0.26464439531925765  1.0000
  S   S6        1.0  0.7353561361008369  0.2646437186538379  0.7353569909351767  1.0000
