data_image0
_chemical_formula_structural       Ag2ReSe6
_chemical_formula_sum              "Ag2 Re1 Se6"
_cell_length_a       6.715936979732707
_cell_length_b       6.715936620490536
_cell_length_c       6.71593683974149
_cell_angle_alpha    60.00000022332949
_cell_angle_beta     59.99999940392748
_cell_angle_gamma    59.999999261723424

_space_group_name_H-M_alt    "P 1"
_space_group_IT_number       1

loop_
  _space_group_symop_operation_xyz
  'x, y, z'

loop_
  _atom_site_type_symbol
  _atom_site_label
  _atom_site_symmetry_multiplicity
  _atom_site_fract_x
  _atom_site_fract_y
  _atom_site_fract_z
  _atom_site_occupancy
  Ag  Ag1       1.0  0.25000001007433065  0.25000002877580274  0.24999997616055009  1.0000
  Ag  Ag2       1.0  0.7500000424163784  0.7499999878508645  0.7500000237380716  1.0000
  Re  Re1       1.0  1.0935687375477883e-09  3.2825515381599685e-08  8.353382429830487e-09  1.0000
  Se  Se1       1.0  0.2591927221785463  0.2591926872758311  0.7408073608616906  1.0000
  Se  Se2       1.0  0.7408073641090552  0.7408073001726017  0.2591926813974677  1.0000
  Se  Se3       1.0  0.7408072165794947  0.25919270334067135  0.2591927052589461  1.0000
  Se  Se4       1.0  0.2591926437439851  0.7408073224041922  0.740807286401493  1.0000
  Se  Se5       1.0  0.2591926921076431  0.7408072527689802  0.25919269624770813  1.0000
  Se  Se6       1.0  0.7408073090650263  0.25919265991022106  0.7408072740759868  1.0000
