data_image0
_chemical_formula_structural       Ag2RhSe6
_chemical_formula_sum              "Ag2 Rh1 Se6"
_cell_length_a       6.435409143720001
_cell_length_b       6.435408764124774
_cell_length_c       6.435408451043507
_cell_angle_alpha    60.00000236042289
_cell_angle_beta     60.000004059627216
_cell_angle_gamma    59.99999529300355

_space_group_name_H-M_alt    "P 1"
_space_group_IT_number       1

loop_
  _space_group_symop_operation_xyz
  'x, y, z'

loop_
  _atom_site_type_symbol
  _atom_site_label
  _atom_site_symmetry_multiplicity
  _atom_site_fract_x
  _atom_site_fract_y
  _atom_site_fract_z
  _atom_site_occupancy
  Ag  Ag1       1.0  0.24999998014242455  0.25000002664286924  0.24999995770991848  1.0000
  Ag  Ag2       1.0  0.7500000014892445  0.7499999828687423  0.7500000076714216  1.0000
  Rh  Rh1       1.0  0.9999999833445101  0.999999963840443  0.9999997948759877  1.0000
  Se  Se1       1.0  0.27829051852644365  0.27829053440956797  0.7217096003114418  1.0000
  Se  Se2       1.0  0.7217094623993601  0.7217094180080088  0.27829071407384975  1.0000
  Se  Se3       1.0  0.7217097044443571  0.2782904039835147  0.2782905214016802  1.0000
  Se  Se4       1.0  0.27829088685834635  0.7217089984281349  0.7217094504636369  1.0000
  Se  Se5       1.0  0.2782904277801997  0.7217096691984856  0.27829055904887756  1.0000
  Se  Se6       1.0  0.721709055606889  0.27829100070084845  0.7217093672162721  1.0000
