data_image0
_chemical_formula_structural       Ag2SeS6
_chemical_formula_sum              "Ag2 Se1 S6"
_cell_length_a       6.623621578634195
_cell_length_b       6.623621740990079
_cell_length_c       6.623621506832635
_cell_angle_alpha    60.00000083007379
_cell_angle_beta     60.0000006609883
_cell_angle_gamma    60.000001231852295

_space_group_name_H-M_alt    "P 1"
_space_group_IT_number       1

loop_
  _space_group_symop_operation_xyz
  'x, y, z'

loop_
  _atom_site_type_symbol
  _atom_site_label
  _atom_site_symmetry_multiplicity
  _atom_site_fract_x
  _atom_site_fract_y
  _atom_site_fract_z
  _atom_site_occupancy
  Ag  Ag1       1.0  0.2500000294205821  0.24999998476870441  0.24999999231974657  1.0000
  Ag  Ag2       1.0  0.7499999534802246  0.7500000134759097  0.7500000404308198  1.0000
  Se  Se1       1.0  1.0988587558280634e-08  0.9999999722641577  0.9999999993151388  1.0000
  S   S1        1.0  0.23870032566390864  0.2387002687809248  0.7612997560302832  1.0000
  S   S2        1.0  0.761299685640412  0.7612997331618014  0.23870033917637157  1.0000
  S   S3        1.0  0.7612997102963917  0.23870034952968266  0.2387002373685203  1.0000
  S   S4        1.0  0.23870027822104586  0.7612996893941674  0.7612997027856998  1.0000
  S   S5        1.0  0.2387003071389262  0.7612996920017868  0.2387002455498422  1.0000
  S   S6        1.0  0.7612997048874947  0.2387003025447156  0.7612996552168729  1.0000
