data_image0
_chemical_formula_structural       Ag2SnS6
_chemical_formula_sum              "Ag2 Sn1 S6"
_cell_length_a       6.617810020264584
_cell_length_b       6.617810147755991
_cell_length_c       6.617810424707747
_cell_angle_alpha    59.999998659952844
_cell_angle_beta     59.999998435874865
_cell_angle_gamma    59.99999922890878

_space_group_name_H-M_alt    "P 1"
_space_group_IT_number       1

loop_
  _space_group_symop_operation_xyz
  'x, y, z'

loop_
  _atom_site_type_symbol
  _atom_site_label
  _atom_site_symmetry_multiplicity
  _atom_site_fract_x
  _atom_site_fract_y
  _atom_site_fract_z
  _atom_site_occupancy
  Ag  Ag1       1.0  0.2500000195437509  0.2500000370046872  0.24999999649544413  1.0000
  Ag  Ag2       1.0  0.7500000137433148  0.7499999944212221  0.7500000732488685  1.0000
  Sn  Sn1       1.0  8.45626364581738e-08  1.8506799725425407e-08  1.0419308340460576e-08  1.0000
  S   S1        1.0  0.2714262111128981  0.2714261711079406  0.7285737638754236  1.0000
  S   S2        1.0  0.7285737111577549  0.7285737955441691  0.27142619883547325  1.0000
  S   S3        1.0  0.7285736890913126  0.2714263186185776  0.2714262005302808  1.0000
  S   S4        1.0  0.2714262677585718  0.728573664689652  0.7285737939837454  1.0000
  S   S5        1.0  0.2714263061577929  0.7285737577843043  0.2714261694755433  1.0000
  S   S6        1.0  0.7285736979962391  0.2714262458814051  0.7285737972519647  1.0000
