data_image0
_chemical_formula_structural       Ag2SnTe6
_chemical_formula_sum              "Ag2 Sn1 Te6"
_cell_length_a       7.393400111357551
_cell_length_b       7.39340089722739
_cell_length_c       7.393400026284075
_cell_angle_alpha    60.000004382913666
_cell_angle_beta     60.00000456391409
_cell_angle_gamma    59.99999869174367

_space_group_name_H-M_alt    "P 1"
_space_group_IT_number       1

loop_
  _space_group_symop_operation_xyz
  'x, y, z'

loop_
  _atom_site_type_symbol
  _atom_site_label
  _atom_site_symmetry_multiplicity
  _atom_site_fract_x
  _atom_site_fract_y
  _atom_site_fract_z
  _atom_site_occupancy
  Ag  Ag1       1.0  0.2500001520795052  0.2499998518082478  0.24999992935759566  1.0000
  Ag  Ag2       1.0  0.7499999534553101  0.7500001501218578  0.7499998800767023  1.0000
  Sn  Sn1       1.0  7.222171905598598e-08  0.9999999801215395  1.3072506403042203e-07  1.0000
  Te  Te1       1.0  0.2762503433114488  0.27625014180214347  0.7237499056552683  1.0000
  Te  Te2       1.0  0.7237494250967821  0.7237497938664682  0.2762504720161893  1.0000
  Te  Te3       1.0  0.7237496974952742  0.27625001583897535  0.2762504606796988  1.0000
  Te  Te4       1.0  0.2762507059400641  0.7237495703001153  0.723749296790123  1.0000
  Te  Te5       1.0  0.2762502995945294  0.72375004867777  0.2762502307962468  1.0000
  Te  Te6       1.0  0.7237493553136498  0.2762504336483362  0.723749704419355  1.0000
