data_image0
_chemical_formula_structural       Ag2SnSe6
_chemical_formula_sum              "Ag2 Sn1 Se6"
_cell_length_a       6.7184659298964915
_cell_length_b       6.71846578893008
_cell_length_c       6.718466069077769
_cell_angle_alpha    59.999997354145584
_cell_angle_beta     59.99999977521445
_cell_angle_gamma    60.00000087211491

_space_group_name_H-M_alt    "P 1"
_space_group_IT_number       1

loop_
  _space_group_symop_operation_xyz
  'x, y, z'

loop_
  _atom_site_type_symbol
  _atom_site_label
  _atom_site_symmetry_multiplicity
  _atom_site_fract_x
  _atom_site_fract_y
  _atom_site_fract_z
  _atom_site_occupancy
  Ag  Ag1       1.0  0.250000011989596  0.24999993264015227  0.24999999422959573  1.0000
  Ag  Ag2       1.0  0.7499999682931255  0.7500000421961868  0.7500000476975553  1.0000
  Sn  Sn1       1.0  4.113527005428456e-09  5.468859644292075e-08  2.8647902514015765e-08  1.0000
  Se  Se1       1.0  0.2929276166918154  0.29292757984382073  0.707072400085155  1.0000
  Se  Se2       1.0  0.707072429875462  0.7070722837923734  0.29292760476239194  1.0000
  Se  Se3       1.0  0.7070724281963914  0.2929275879958996  0.29292759962295195  1.0000
  Se  Se4       1.0  0.29292759625116216  0.7070724141847404  0.7070723410584927  1.0000
  Se  Se5       1.0  0.29292754314962627  0.7070724646022576  0.29292761332219597  1.0000
  Se  Se6       1.0  0.7070723973230092  0.2929276451326204  0.7070723691532472  1.0000
