data_image0
_chemical_formula_structural       Ag2SO6
_chemical_formula_sum              "Ag2 S1 O6"
_cell_length_a       5.181993640093489
_cell_length_b       5.181994427844008
_cell_length_c       5.1819936697951015
_cell_angle_alpha    60.00000145749529
_cell_angle_beta     60.00000422315129
_cell_angle_gamma    59.999999619178546

_space_group_name_H-M_alt    "P 1"
_space_group_IT_number       1

loop_
  _space_group_symop_operation_xyz
  'x, y, z'

loop_
  _atom_site_type_symbol
  _atom_site_label
  _atom_site_symmetry_multiplicity
  _atom_site_fract_x
  _atom_site_fract_y
  _atom_site_fract_z
  _atom_site_occupancy
  Ag  Ag1       1.0  0.24999997318091507  0.24999997728689957  0.24999997173599967  1.0000
  Ag  Ag2       1.0  0.7499999996493623  0.7499998987722118  0.7500000827450991  1.0000
  S   S1        1.0  0.9999998716819302  0.9999999905461661  0.9999999048564152  1.0000
  O   O1        1.0  0.2223854209073092  0.22238555288706638  0.7776144955778298  1.0000
  O   O2        1.0  0.7776144012060161  0.7776145146124965  0.2223856002938044  1.0000
  O   O3        1.0  0.7776146521927405  0.22238532820688028  0.2223856944360103  1.0000
  O   O4        1.0  0.22238546950852398  0.7776143753194659  0.7776145359055197  1.0000
  O   O5        1.0  0.22238576786725534  0.7776145760313774  0.22238526770685704  1.0000
  O   O6        1.0  0.777614273831409  0.22238566163746726  0.7776145252209536  1.0000
