data_image0
_chemical_formula_structural       Ag2SiTe6
_chemical_formula_sum              "Ag2 Si1 Te6"
_cell_length_a       7.163427064516833
_cell_length_b       7.163427805590576
_cell_length_c       7.163427077469844
_cell_angle_alpha    60.00000367444701
_cell_angle_beta     60.000002036629496
_cell_angle_gamma    60.00000331906517

_space_group_name_H-M_alt    "P 1"
_space_group_IT_number       1

loop_
  _space_group_symop_operation_xyz
  'x, y, z'

loop_
  _atom_site_type_symbol
  _atom_site_label
  _atom_site_symmetry_multiplicity
  _atom_site_fract_x
  _atom_site_fract_y
  _atom_site_fract_z
  _atom_site_occupancy
  Ag  Ag1       1.0  0.25000001461916893  0.2500000490828847  0.24999988772141968  1.0000
  Ag  Ag2       1.0  0.7500000431145611  0.7499997916271168  0.7499999418570502  1.0000
  Si  Si1       1.0  0.9999999807545152  0.9999999948708435  0.9999999744958639  1.0000
  Te  Te1       1.0  0.2618914669785942  0.2618917916463145  0.73810838837164  1.0000
  Te  Te2       1.0  0.73810835820843  0.7381082969729315  0.26189177972856553  1.0000
  Te  Te3       1.0  0.738108441814681  0.2618917417480111  0.26189147480736835  1.0000
  Te  Te4       1.0  0.261891717990772  0.738108184447935  0.7381085136646263  1.0000
  Te  Te5       1.0  0.26189160649547544  0.738108256634179  0.26189162720598025  1.0000
  Te  Te6       1.0  0.7381083614528536  0.2618918969543852  0.7381084174851978  1.0000
