data_image0
_chemical_formula_structural       Ag2SiSe6
_chemical_formula_sum              "Ag2 Si1 Se6"
_cell_length_a       6.692869190730877
_cell_length_b       6.692869016799794
_cell_length_c       6.692869265553594
_cell_angle_alpha    59.99999998870356
_cell_angle_beta     59.99999937906747
_cell_angle_gamma    59.99999847505703

_space_group_name_H-M_alt    "P 1"
_space_group_IT_number       1

loop_
  _space_group_symop_operation_xyz
  'x, y, z'

loop_
  _atom_site_type_symbol
  _atom_site_label
  _atom_site_symmetry_multiplicity
  _atom_site_fract_x
  _atom_site_fract_y
  _atom_site_fract_z
  _atom_site_occupancy
  Ag  Ag1       1.0  0.24999998864983194  0.2499999956971412  0.2500000092387608  1.0000
  Ag  Ag2       1.0  0.7499999966903875  0.7500000035607491  0.7500000295113413  1.0000
  Si  Si1       1.0  2.3316535808402925e-08  4.391820157213581e-08  0.9999999798297792  1.0000
  Se  Se1       1.0  0.2543329462658394  0.25433294352238955  0.745667048664274  1.0000
  Se  Se2       1.0  0.7456670395109581  0.745667002667673  0.2543329641069901  1.0000
  Se  Se3       1.0  0.7456671226421466  0.2543328923166682  0.25433294239366183  1.0000
  Se  Se4       1.0  0.25433297285524825  0.745667030084367  0.7456670079881594  1.0000
  Se  Se5       1.0  0.25433288228657336  0.7456671088395016  0.25433296275415995  1.0000
  Se  Se6       1.0  0.7456670209014533  0.2543329764248678  0.7456670621157799  1.0000
