data_image0
_chemical_formula_structural       Ag2ScO6
_chemical_formula_sum              "Ag2 Sc1 O6"
_cell_length_a       5.378042153781978
_cell_length_b       5.378042279053853
_cell_length_c       5.378042173657841
_cell_angle_alpha    59.99999930570599
_cell_angle_beta     60.00000005272591
_cell_angle_gamma    59.99999963251726

_space_group_name_H-M_alt    "P 1"
_space_group_IT_number       1

loop_
  _space_group_symop_operation_xyz
  'x, y, z'

loop_
  _atom_site_type_symbol
  _atom_site_label
  _atom_site_symmetry_multiplicity
  _atom_site_fract_x
  _atom_site_fract_y
  _atom_site_fract_z
  _atom_site_occupancy
  Ag  Ag1       1.0  0.24999999309603138  0.25000003734281223  0.24999999618008054  1.0000
  Ag  Ag2       1.0  0.7500000149658906  0.7500000049950482  0.7499999740138956  1.0000
  Sc  Sc1       1.0  9.715739449131711e-09  1.594114355528705e-08  0.9999999555615422  1.0000
  O   O1        1.0  0.27534018545418965  0.27534013639524335  0.7246598675755319  1.0000
  O   O2        1.0  0.7246598198764989  0.7246598239595949  0.27534017844500197  1.0000
  O   O3        1.0  0.7246598110668769  0.27534016062537997  0.2753401222238798  1.0000
  O   O4        1.0  0.27534011594989083  0.7246598156706022  0.724659921513613  1.0000
  O   O5        1.0  0.2753401301937596  0.7246598478565892  0.27534017153342216  1.0000
  O   O6        1.0  0.7246599026357022  0.2753401717082091  0.7246598292733314  1.0000
