data_image0
_chemical_formula_structural       Ag2SeO6
_chemical_formula_sum              "Ag2 Se1 O6"
_cell_length_a       5.4894897971959535
_cell_length_b       5.489490415424847
_cell_length_c       5.489487026482101
_cell_angle_alpha    60.00001137177531
_cell_angle_beta     60.00002537783251
_cell_angle_gamma    59.99998417438413

_space_group_name_H-M_alt    "P 1"
_space_group_IT_number       1

loop_
  _space_group_symop_operation_xyz
  'x, y, z'

loop_
  _atom_site_type_symbol
  _atom_site_label
  _atom_site_symmetry_multiplicity
  _atom_site_fract_x
  _atom_site_fract_y
  _atom_site_fract_z
  _atom_site_occupancy
  Ag  Ag1       1.0  0.25000024178153063  0.24999989058459854  0.2499999689634899  1.0000
  Ag  Ag2       1.0  0.750000126123698  0.7500000621916065  0.749999901982115  1.0000
  Se  Se1       1.0  6.600413478840726e-06  0.9999983601602399  0.9999955869283548  1.0000
  O   O1        1.0  0.24041578968369934  0.24041745398172198  0.7595838025860574  1.0000
  O   O2        1.0  0.7595814847461987  0.7595829383165296  0.24041824787463248  1.0000
  O   O3        1.0  0.7595825543547045  0.24041659041538985  0.24041684789294013  1.0000
  O   O4        1.0  0.2404149126901788  0.7595845113637351  0.7595845893917028  1.0000
  O   O5        1.0  0.24041438787217173  0.7595848136900657  0.2404159629664893  1.0000
  O   O6        1.0  0.759583648846869  0.24041542466403334  0.7595853588740918  1.0000
