data_image0
_chemical_formula_structural       Ag2ScS6
_chemical_formula_sum              "Ag2 Sc1 S6"
_cell_length_a       6.5395377137392865
_cell_length_b       6.539537659131719
_cell_length_c       6.539537929325768
_cell_angle_alpha    59.99999770515585
_cell_angle_beta     59.99999856844189
_cell_angle_gamma    59.999998753712276

_space_group_name_H-M_alt    "P 1"
_space_group_IT_number       1

loop_
  _space_group_symop_operation_xyz
  'x, y, z'

loop_
  _atom_site_type_symbol
  _atom_site_label
  _atom_site_symmetry_multiplicity
  _atom_site_fract_x
  _atom_site_fract_y
  _atom_site_fract_z
  _atom_site_occupancy
  Ag  Ag1       1.0  0.24999999375802365  0.24999998257996442  0.24999999954517488  1.0000
  Ag  Ag2       1.0  0.7500000420032502  0.7500000039248238  0.7499999967573902  1.0000
  Sc  Sc1       1.0  0.9999999918140441  0.9999999662890409  9.128981900953294e-08  1.0000
  S   S1        1.0  0.27248074959339064  0.27248081050213807  0.7275191562754724  1.0000
  S   S2        1.0  0.7275192191591795  0.727519202222285  0.27248077020118555  1.0000
  S   S3        1.0  0.727519200754599  0.272480780324947  0.27248079477474835  1.0000
  S   S4        1.0  0.27248077234953305  0.7275192511277858  0.7275191950908151  1.0000
  S   S5        1.0  0.27248079914258344  0.7275191860341242  0.2724808319946248  1.0000
  S   S6        1.0  0.7275192296445343  0.2724808266902983  0.7275191623310013  1.0000
