data_image0
_chemical_formula_structural       Ag2ScSe6
_chemical_formula_sum              "Ag2 Sc1 Se6"
_cell_length_a       6.678756656643253
_cell_length_b       6.6787565551473085
_cell_length_c       6.678756614077183
_cell_angle_alpha    59.999999522807165
_cell_angle_beta     59.99999807944799
_cell_angle_gamma    60.00000355917811

_space_group_name_H-M_alt    "P 1"
_space_group_IT_number       1

loop_
  _space_group_symop_operation_xyz
  'x, y, z'

loop_
  _atom_site_type_symbol
  _atom_site_label
  _atom_site_symmetry_multiplicity
  _atom_site_fract_x
  _atom_site_fract_y
  _atom_site_fract_z
  _atom_site_occupancy
  Ag  Ag1       1.0  0.24999998439610266  0.25000000639689723  0.2500000201345024  1.0000
  Ag  Ag2       1.0  0.7500000235674547  0.7500000155231112  0.7499999387079264  1.0000
  Sc  Sc1       1.0  0.9999998374310513  0.9999999119779887  1.1631177471125076e-07  1.0000
  Se  Se1       1.0  0.2826119713516168  0.282611866131604  0.7173881355912168  1.0000
  Se  Se2       1.0  0.717388113403433  0.7173879669078608  0.2826120724454613  1.0000
  Se  Se3       1.0  0.7173882177076099  0.2826118588652854  0.28261194208761853  1.0000
  Se  Se4       1.0  0.28261206545321416  0.717387996179689  0.7173879760692519  1.0000
  Se  Se5       1.0  0.2826117819957063  0.7173882521560071  0.28261186937456256  1.0000
  Se  Se6       1.0  0.7173880047653979  0.28261212735337826  0.717387928442757  1.0000
