data_image0
_chemical_formula_structural       Ag2SnTe6
_chemical_formula_sum              "Ag2 Sn1 Te6"
_cell_length_a       7.3953883218502545
_cell_length_b       7.395388439470117
_cell_length_c       7.395388483878132
_cell_angle_alpha    59.999999819532306
_cell_angle_beta     59.9999992846041
_cell_angle_gamma    59.99999888459867

_space_group_name_H-M_alt    "P 1"
_space_group_IT_number       1

loop_
  _space_group_symop_operation_xyz
  'x, y, z'

loop_
  _atom_site_type_symbol
  _atom_site_label
  _atom_site_symmetry_multiplicity
  _atom_site_fract_x
  _atom_site_fract_y
  _atom_site_fract_z
  _atom_site_occupancy
  Ag  Ag1       1.0  0.25000000477128687  0.2499999705282574  0.25000001890101  1.0000
  Ag  Ag2       1.0  0.7499999604367583  0.7500000076381491  0.7500000166841766  1.0000
  Sn  Sn1       1.0  2.985563195514596e-08  0.9999999900634434  0.9999999765185222  1.0000
  Te  Te1       1.0  0.2761459457315441  0.2761458797837227  0.723854093536389  1.0000
  Te  Te2       1.0  0.7238540750556584  0.7238540768534781  0.27614591555846363  1.0000
  Te  Te3       1.0  0.7238540562512658  0.2761459367440259  0.27614589944439444  1.0000
  Te  Te4       1.0  0.27614588539262663  0.7238541308513864  0.7238540869820372  1.0000
  Te  Te5       1.0  0.27614595567043454  0.723854074467845  0.2761458903680743  1.0000
  Te  Te6       1.0  0.7238540907130788  0.2761459318521361  0.7238540946091728  1.0000
