data_image0
_chemical_formula_structural       Ag2ScTe6
_chemical_formula_sum              "Ag2 Sc1 Te6"
_cell_length_a       7.348041725646097
_cell_length_b       7.348041705752083
_cell_length_c       7.34804136609884
_cell_angle_alpha    60.0000017294399
_cell_angle_beta     60.00000116031345
_cell_angle_gamma    59.999997760831015

_space_group_name_H-M_alt    "P 1"
_space_group_IT_number       1

loop_
  _space_group_symop_operation_xyz
  'x, y, z'

loop_
  _atom_site_type_symbol
  _atom_site_label
  _atom_site_symmetry_multiplicity
  _atom_site_fract_x
  _atom_site_fract_y
  _atom_site_fract_z
  _atom_site_occupancy
  Ag  Ag1       1.0  0.2500000640690238  0.24999989934723804  0.24999999425411307  1.0000
  Ag  Ag2       1.0  0.7499999807243389  0.7499999930588841  0.749999991348676  1.0000
  Sc  Sc1       1.0  7.085637300151193e-08  7.500435996901953e-08  0.9999997664826223  1.0000
  Te  Te1       1.0  0.27255747385437606  0.27255739608640095  0.7274425786382777  1.0000
  Te  Te2       1.0  0.7274424193018151  0.7274425646570358  0.27255752210341133  1.0000
  Te  Te3       1.0  0.72744261332844  0.27255738340405583  0.2725574290740815  1.0000
  Te  Te4       1.0  0.27255733163619694  0.7274426623443245  0.7274426781107909  1.0000
  Te  Te5       1.0  0.2725574426154054  0.7274426138538793  0.2725574150791824  1.0000
  Te  Te6       1.0  0.7274426021915005  0.2725574152268609  0.727442621939331  1.0000
