data_image0
_chemical_formula_structural       Ag2SnSe6
_chemical_formula_sum              "Ag2 Sn1 Se6"
_cell_length_a       6.718349707940512
_cell_length_b       6.718349776114914
_cell_length_c       6.718350065358687
_cell_angle_alpha    60.00000048009011
_cell_angle_beta     60.00000020973436
_cell_angle_gamma    60.00000016857915

_space_group_name_H-M_alt    "P 1"
_space_group_IT_number       1

loop_
  _space_group_symop_operation_xyz
  'x, y, z'

loop_
  _atom_site_type_symbol
  _atom_site_label
  _atom_site_symmetry_multiplicity
  _atom_site_fract_x
  _atom_site_fract_y
  _atom_site_fract_z
  _atom_site_occupancy
  Ag  Ag1       1.0  0.2499999779514601  0.24999998025587847  0.25000002186282955  1.0000
  Ag  Ag2       1.0  0.7500000233145272  0.7499999662894214  0.7500000721013337  1.0000
  Sn  Sn1       1.0  1.0557212085885394e-07  0.9999999617173212  0.9999999350976054  1.0000
  Se  Se1       1.0  0.2929204252415842  0.29292034190455074  0.7070796718357706  1.0000
  Se  Se2       1.0  0.707079533228982  0.7070796556843193  0.292920370373576  1.0000
  Se  Se3       1.0  0.70707963989466  0.29292043977496596  0.2929203866401139  1.0000
  Se  Se4       1.0  0.2929203555359339  0.7070796325562749  0.7070795669718997  1.0000
  Se  Se5       1.0  0.2929204028800718  0.7070795793005311  0.2929203667109754  1.0000
  Se  Se6       1.0  0.7070795339410816  0.2929204419871389  0.707079619400632  1.0000
