data_image0
_chemical_formula_structural       Ag2SeO6
_chemical_formula_sum              "Ag2 Se1 O6"
_cell_length_a       5.489059186069108
_cell_length_b       5.489059037999884
_cell_length_c       5.489059648857156
_cell_angle_alpha    59.99999892033657
_cell_angle_beta     59.999994099027596
_cell_angle_gamma    59.99999873933286

_space_group_name_H-M_alt    "P 1"
_space_group_IT_number       1

loop_
  _space_group_symop_operation_xyz
  'x, y, z'

loop_
  _atom_site_type_symbol
  _atom_site_label
  _atom_site_symmetry_multiplicity
  _atom_site_fract_x
  _atom_site_fract_y
  _atom_site_fract_z
  _atom_site_occupancy
  Ag  Ag1       1.0  0.2499998364872075  0.24999987133492202  0.25000048863920615  1.0000
  Ag  Ag2       1.0  0.7499998748532765  0.7499998683669445  0.7500004382492641  1.0000
  Se  Se1       1.0  0.9999963379391079  0.9999965594167696  1.108266672607082e-05  1.0000
  O   O1        1.0  0.2404486973200092  0.24044887668089815  0.759550093691708  1.0000
  O   O2        1.0  0.7595530059227561  0.7595527885873808  0.24044592860263533  1.0000
  O   O3        1.0  0.759552456663824  0.2404485800828068  0.24044632642303856  1.0000
  O   O4        1.0  0.24044942169217626  0.759551770980711  0.7595493927721213  1.0000
  O   O5        1.0  0.24044865967381068  0.7595524524093544  0.24044628202123172  1.0000
  O   O6        1.0  0.7595518461310181  0.2404491637714458  0.7595497350128897  1.0000
