data_image0
_chemical_formula_structural       Ag2SnO6
_chemical_formula_sum              "Ag2 Sn1 O6"
_cell_length_a       5.381747439387075
_cell_length_b       5.381747429734811
_cell_length_c       5.381747591654718
_cell_angle_alpha    60.00000021248272
_cell_angle_beta     60.000000832247025
_cell_angle_gamma    60.00000106479093

_space_group_name_H-M_alt    "P 1"
_space_group_IT_number       1

loop_
  _space_group_symop_operation_xyz
  'x, y, z'

loop_
  _atom_site_type_symbol
  _atom_site_label
  _atom_site_symmetry_multiplicity
  _atom_site_fract_x
  _atom_site_fract_y
  _atom_site_fract_z
  _atom_site_occupancy
  Ag  Ag1       1.0  0.25000004574907475  0.24999992200065688  0.2500000150905848  1.0000
  Ag  Ag2       1.0  0.7500000251522834  0.7500000186089187  0.7499999155555122  1.0000
  Sn  Sn1       1.0  1.0251987215849865e-08  0.9999999499337578  2.7339657041295826e-08  1.0000
  O   O1        1.0  0.2742317415400401  0.2742318254095679  0.7257681907971111  1.0000
  O   O2        1.0  0.7257682222753011  0.72576821760823  0.2742318035062544  1.0000
  O   O3        1.0  0.7257681734698975  0.27423181224519916  0.27423183513207494  1.0000
  O   O4        1.0  0.274231775066035  0.7257682444270286  0.7257682138696221  1.0000
  O   O5        1.0  0.2742317675776204  0.7257682298831523  0.2742317883259777  1.0000
  O   O6        1.0  0.7257682078767153  0.27423176534414184  0.7257682370600695  1.0000
