data_image0
_chemical_formula_structural       Ag2SO6
_chemical_formula_sum              "Ag2 S1 O6"
_cell_length_a       5.1811928017741495
_cell_length_b       5.181192747431709
_cell_length_c       5.181192885257622
_cell_angle_alpha    59.99999969263631
_cell_angle_beta     60.00000034327304
_cell_angle_gamma    60.000001876778775

_space_group_name_H-M_alt    "P 1"
_space_group_IT_number       1

loop_
  _space_group_symop_operation_xyz
  'x, y, z'

loop_
  _atom_site_type_symbol
  _atom_site_label
  _atom_site_symmetry_multiplicity
  _atom_site_fract_x
  _atom_site_fract_y
  _atom_site_fract_z
  _atom_site_occupancy
  Ag  Ag1       1.0  0.2500000091378542  0.2500000658472928  0.24999998210803795  1.0000
  Ag  Ag2       1.0  0.7500000440763284  0.7499999469761071  0.7500000632756156  1.0000
  S   S1        1.0  8.183006161760323e-08  0.9999999550872692  0.9999999468003006  1.0000
  O   O1        1.0  0.22236425071043592  0.22236444209071554  0.7776356376490181  1.0000
  O   O2        1.0  0.7776356506859554  0.7776355849156484  0.22236436653877256  1.0000
  O   O3        1.0  0.7776356409437964  0.222364317618824  0.2223643689593293  1.0000
  O   O4        1.0  0.2223643157861806  0.7776356904769169  0.7776355687655441  1.0000
  O   O5        1.0  0.22236427313290094  0.7776357903558369  0.22236436733342632  1.0000
  O   O6        1.0  0.7776356734658179  0.22236428156326105  0.7776356265378686  1.0000
