data_image0
_chemical_formula_structural       Ag2TiO6
_chemical_formula_sum              "Ag2 Ti1 O6"
_cell_length_a       5.239265111721795
_cell_length_b       5.239260258053786
_cell_length_c       5.2392603408865535
_cell_angle_alpha    60.00000634090071
_cell_angle_beta     60.00000762428058
_cell_angle_gamma    59.999992793765436

_space_group_name_H-M_alt    "P 1"
_space_group_IT_number       1

loop_
  _space_group_symop_operation_xyz
  'x, y, z'

loop_
  _atom_site_type_symbol
  _atom_site_label
  _atom_site_symmetry_multiplicity
  _atom_site_fract_x
  _atom_site_fract_y
  _atom_site_fract_z
  _atom_site_occupancy
  Ag  Ag1       1.0  0.24999960951295583  0.25000074182097737  0.24999977944074755  1.0000
  Ag  Ag2       1.0  0.7499994538251504  0.7499988288874485  0.7500014339904493  1.0000
  Ti  Ti1       1.0  5.04582217607485e-08  0.9999992800100599  0.9999999396718753  1.0000
  O   O1        1.0  0.26154363150312976  0.2615420417195987  0.7384572143896299  1.0000
  O   O2        1.0  0.7384560927875828  0.7384565775735135  0.26154325101689907  1.0000
  O   O3        1.0  0.7384568814873829  0.26154425987403646  0.2615431823781157  1.0000
  O   O4        1.0  0.2615439110304637  0.738456437571828  0.7384563587849611  1.0000
  O   O5        1.0  0.26154353004780717  0.7384575544472932  0.2615432097537714  1.0000
  O   O6        1.0  0.7384568628583107  0.2615436806532778  0.7384559207366327  1.0000
