data_image0
_chemical_formula_structural       Ag2TiO6
_chemical_formula_sum              "Ag2 Ti1 O6"
_cell_length_a       5.530347459167284
_cell_length_b       5.530348149266414
_cell_length_c       5.530347486658538
_cell_angle_alpha    60.000011901331796
_cell_angle_beta     59.999999609087446
_cell_angle_gamma    60.000009888257644

_space_group_name_H-M_alt    "P 1"
_space_group_IT_number       1

loop_
  _space_group_symop_operation_xyz
  'x, y, z'

loop_
  _atom_site_type_symbol
  _atom_site_label
  _atom_site_symmetry_multiplicity
  _atom_site_fract_x
  _atom_site_fract_y
  _atom_site_fract_z
  _atom_site_occupancy
  Ag  Ag1       1.0  0.2500000197122491  0.2500002397001403  0.24999985713860906  1.0000
  Ag  Ag2       1.0  0.7500000986522216  0.7499999240630479  0.7499997954793345  1.0000
  Ti  Ti1       1.0  3.4188604747338806e-08  0.9999999224893995  7.590713241420744e-08  1.0000
  O   O1        1.0  0.24646891740353047  0.24646933367356758  0.7535309165528212  1.0000
  O   O2        1.0  0.75353160551738  0.75353063742045  0.24646908578904553  1.0000
  O   O3        1.0  0.7535308351165925  0.24646931292864424  0.24646918574771867  1.0000
  O   O4        1.0  0.24646924096823286  0.7535304765690808  0.7535310693313688  1.0000
  O   O5        1.0  0.24646881586496713  0.7535307781968325  0.2464691974808927  1.0000
  O   O6        1.0  0.7535307267143699  0.24646939663927608  0.7535306181516527  1.0000
