data_image0
_chemical_formula_structural       Ag2TiS6
_chemical_formula_sum              "Ag2 Ti1 S6"
_cell_length_a       6.3833992756815015
_cell_length_b       6.383399126121468
_cell_length_c       6.383399648302071
_cell_angle_alpha    59.99999933245646
_cell_angle_beta     59.999996548841914
_cell_angle_gamma    59.99999832107886

_space_group_name_H-M_alt    "P 1"
_space_group_IT_number       1

loop_
  _space_group_symop_operation_xyz
  'x, y, z'

loop_
  _atom_site_type_symbol
  _atom_site_label
  _atom_site_symmetry_multiplicity
  _atom_site_fract_x
  _atom_site_fract_y
  _atom_site_fract_z
  _atom_site_occupancy
  Ag  Ag1       1.0  0.2500000578900492  0.2499999518697242  0.25000000014876367  1.0000
  Ag  Ag2       1.0  0.7499999226671049  0.7500000225309046  0.7499999531928402  1.0000
  Ti  Ti1       1.0  0.9999999594546678  7.674560861566255e-09  0.9999999553394152  1.0000
  S   S1        1.0  0.2600074475972399  0.26000740957768576  0.7399925899291717  1.0000
  S   S2        1.0  0.7399925741071385  0.7399926204635241  0.2600074387770352  1.0000
  S   S3        1.0  0.739992487910732  0.26000746580602807  0.2600074155333407  1.0000
  S   S4        1.0  0.2600074626597914  0.7399926582485723  0.7399926079993544  1.0000
  S   S5        1.0  0.2600074577466287  0.739992581084394  0.2600073498542288  1.0000
  S   S6        1.0  0.7399926361888954  0.2600072973842053  0.739992655860173  1.0000
