data_image0
_chemical_formula_structural       Ag2TaO6
_chemical_formula_sum              "Ag2 Ta1 O6"
_cell_length_a       5.65845280271575
_cell_length_b       5.658452320698883
_cell_length_c       5.658452458002248
_cell_angle_alpha    60.000003601641694
_cell_angle_beta     60.000011422868944
_cell_angle_gamma    60.00000333956034

_space_group_name_H-M_alt    "P 1"
_space_group_IT_number       1

loop_
  _space_group_symop_operation_xyz
  'x, y, z'

loop_
  _atom_site_type_symbol
  _atom_site_label
  _atom_site_symmetry_multiplicity
  _atom_site_fract_x
  _atom_site_fract_y
  _atom_site_fract_z
  _atom_site_occupancy
  Ag  Ag1       1.0  0.24999991975884  0.24999991792177842  0.25000014277755783  1.0000
  Ag  Ag2       1.0  0.7500000114275006  0.7500000502952602  0.7499999737309478  1.0000
  Ta  Ta1       1.0  3.289783291697665e-07  8.441361756220657e-08  0.9999987824269548  1.0000
  O   O1        1.0  0.24702610374001216  0.24702579486490073  0.7529737940733339  1.0000
  O   O2        1.0  0.7529735987753878  0.7529737512839888  0.24702627314394388  1.0000
  O   O3        1.0  0.7529734627105746  0.24702644222121262  0.24702617894117876  1.0000
  O   O4        1.0  0.2470255569419074  0.7529744913414174  0.7529744426089916  1.0000
  O   O5        1.0  0.2470264228707621  0.7529738433883965  0.2470257511688078  1.0000
  O   O6        1.0  0.7529745970723909  0.24702549713757999  0.7529745854601313  1.0000
