data_image0
_chemical_formula_structural       Ag2TiTe6
_chemical_formula_sum              "Ag2 Ti1 Te6"
_cell_length_a       7.1595510018783575
_cell_length_b       7.1595509247003815
_cell_length_c       7.159550558287656
_cell_angle_alpha    60.00000152516986
_cell_angle_beta     59.99999984371107
_cell_angle_gamma    59.999999809100444

_space_group_name_H-M_alt    "P 1"
_space_group_IT_number       1

loop_
  _space_group_symop_operation_xyz
  'x, y, z'

loop_
  _atom_site_type_symbol
  _atom_site_label
  _atom_site_symmetry_multiplicity
  _atom_site_fract_x
  _atom_site_fract_y
  _atom_site_fract_z
  _atom_site_occupancy
  Ag  Ag1       1.0  0.250000037524071  0.24999999558552513  0.2499998771184026  1.0000
  Ag  Ag2       1.0  0.7499998132237647  0.7500000380759235  0.7500000109723994  1.0000
  Ti  Ti1       1.0  4.079266520226851e-08  3.42128955663232e-09  2.5382036397621125e-08  1.0000
  Te  Te1       1.0  0.26557255445640054  0.26557244646208933  0.7344276249123193  1.0000
  Te  Te2       1.0  0.7344274234436009  0.7344275444332397  0.2655724528435872  1.0000
  Te  Te3       1.0  0.7344275658340514  0.26557235372935734  0.2655724438640932  1.0000
  Te  Te4       1.0  0.26557248562079755  0.734427585846627  0.7344276018230249  1.0000
  Te  Te5       1.0  0.26557254432517424  0.7344275280897533  0.2655723732631615  1.0000
  Te  Te6       1.0  0.7344275409483573  0.26557249872911526  0.7344275965290794  1.0000
