data_image0
_chemical_formula_structural       Ag2TiSe6
_chemical_formula_sum              "Ag2 Ti1 Se6"
_cell_length_a       6.740321576000306
_cell_length_b       6.740321603175862
_cell_length_c       6.74032146760085
_cell_angle_alpha    59.99999998512396
_cell_angle_beta     60.00000086350861
_cell_angle_gamma    60.00000308967669

_space_group_name_H-M_alt    "P 1"
_space_group_IT_number       1

loop_
  _space_group_symop_operation_xyz
  'x, y, z'

loop_
  _atom_site_type_symbol
  _atom_site_label
  _atom_site_symmetry_multiplicity
  _atom_site_fract_x
  _atom_site_fract_y
  _atom_site_fract_z
  _atom_site_occupancy
  Ag  Ag1       1.0  0.2499999931018129  0.2500000346229958  0.2499999849148807  1.0000
  Ag  Ag2       1.0  0.749999958213587  0.7499999821271615  0.7500000246778729  1.0000
  Ti  Ti1       1.0  0.99999992083412  0.9999999291353517  1.9667118292919456e-07  1.0000
  Se  Se1       1.0  0.25902574404137624  0.2590256895441493  0.740974273978857  1.0000
  Se  Se2       1.0  0.7409742967543044  0.7409743362912214  0.2590256982000196  1.0000
  Se  Se3       1.0  0.7409742882053968  0.25902579287566785  0.25902568072946486  1.0000
  Se  Se4       1.0  0.2590257638042902  0.7409741838995653  0.7409742569625622  1.0000
  Se  Se5       1.0  0.2590257611342602  0.7409742281947305  0.25902571401871  1.0000
  Se  Se6       1.0  0.7409742619066729  0.25902583034739946  0.7409741720528961  1.0000
