data_image0
_chemical_formula_structural       Ag2TeS6
_chemical_formula_sum              "Ag2 Te1 S6"
_cell_length_a       6.774620180909155
_cell_length_b       6.774619902645474
_cell_length_c       6.77461970187282
_cell_angle_alpha    60.000002400956554
_cell_angle_beta     60.000001926227114
_cell_angle_gamma    60.000000521429214

_space_group_name_H-M_alt    "P 1"
_space_group_IT_number       1

loop_
  _space_group_symop_operation_xyz
  'x, y, z'

loop_
  _atom_site_type_symbol
  _atom_site_label
  _atom_site_symmetry_multiplicity
  _atom_site_fract_x
  _atom_site_fract_y
  _atom_site_fract_z
  _atom_site_occupancy
  Ag  Ag1       1.0  0.25000001408694295  0.24999999483336507  0.24999998106856758  1.0000
  Ag  Ag2       1.0  0.7500000084642544  0.7499999989628391  0.7499999986316443  1.0000
  Te  Te1       1.0  2.255368735544777e-08  9.039213607340332e-09  0.9999999384445234  1.0000
  S   S1        1.0  0.24760245660158345  0.24760246773073014  0.7523975438714486  1.0000
  S   S2        1.0  0.752397526144636  0.7523975278733185  0.24760252568001584  1.0000
  S   S3        1.0  0.752397571725553  0.247602381891871  0.24760247543003047  1.0000
  S   S4        1.0  0.24760246561630453  0.7523975215121882  0.7523975361665323  1.0000
  S   S5        1.0  0.24760244598147024  0.7523975867168426  0.24760246059738916  1.0000
  S   S6        1.0  0.7523974969065529  0.247602502895036  0.7523975228353549  1.0000
