data_image0
_chemical_formula_structural       Ag2TaS6
_chemical_formula_sum              "Ag2 Ta1 S6"
_cell_length_a       6.3281482342437725
_cell_length_b       6.328148457919143
_cell_length_c       6.328148812863056
_cell_angle_alpha    59.99999809377924
_cell_angle_beta     59.99999560710186
_cell_angle_gamma    59.99999653719915

_space_group_name_H-M_alt    "P 1"
_space_group_IT_number       1

loop_
  _space_group_symop_operation_xyz
  'x, y, z'

loop_
  _atom_site_type_symbol
  _atom_site_label
  _atom_site_symmetry_multiplicity
  _atom_site_fract_x
  _atom_site_fract_y
  _atom_site_fract_z
  _atom_site_occupancy
  Ag  Ag1       1.0  0.2500000368448752  0.2499999262605679  0.250000016330133  1.0000
  Ag  Ag2       1.0  0.7499999793169828  0.7500000574781792  0.74999988675749  1.0000
  Ta  Ta1       1.0  5.6546876072549567e-08  3.290166506566811e-08  0.9999998936463311  1.0000
  S   S1        1.0  0.268590662730268  0.2685907342890557  0.7314093518856796  1.0000
  S   S2        1.0  0.7314092750609527  0.7314092765451846  0.2685907759498781  1.0000
  S   S3        1.0  0.7314091765553642  0.2685906763184737  0.2685908439952096  1.0000
  S   S4        1.0  0.2685908355870372  0.7314093906421375  0.7314092233422943  1.0000
  S   S5        1.0  0.26859070385376876  0.731409268521439  0.2685907240627117  1.0000
  S   S6        1.0  0.7314092834828457  0.26859063199544575  0.7314092729742475  1.0000
