data_image0
_chemical_formula_structural       Ag2TiTe6
_chemical_formula_sum              "Ag2 Ti1 Te6"
_cell_length_a       7.160464266332269
_cell_length_b       7.160464302932021
_cell_length_c       7.1604628159036645
_cell_angle_alpha    59.9999937870111
_cell_angle_beta     60.00000547519551
_cell_angle_gamma    59.99999586006252

_space_group_name_H-M_alt    "P 1"
_space_group_IT_number       1

loop_
  _space_group_symop_operation_xyz
  'x, y, z'

loop_
  _atom_site_type_symbol
  _atom_site_label
  _atom_site_symmetry_multiplicity
  _atom_site_fract_x
  _atom_site_fract_y
  _atom_site_fract_z
  _atom_site_occupancy
  Ag  Ag1       1.0  0.25000005200930636  0.2499998827254219  0.2499998662293935  1.0000
  Ag  Ag2       1.0  0.7499997845388412  0.7499998482960819  0.7500005418592671  1.0000
  Ti  Ti1       1.0  0.9999993029549755  0.9999995416056572  4.911331535052716e-07  1.0000
  Te  Te1       1.0  0.2655376792494793  0.2655373785157449  0.7344626468732657  1.0000
  Te  Te2       1.0  0.734462475303219  0.734462617621929  0.26553726156789753  1.0000
  Te  Te3       1.0  0.7344622520652112  0.2655379282205068  0.2655370942867147  1.0000
  Te  Te4       1.0  0.26553784612153497  0.7344624305276837  0.7344623649618832  1.0000
  Te  Te5       1.0  0.26553773147050486  0.7344628160414431  0.2655369664116794  1.0000
  Te  Te6       1.0  0.734462872129778  0.26553753586495704  0.7344627421221659  1.0000
