data_image0
_chemical_formula_structural       Ag2TaTe6
_chemical_formula_sum              "Ag2 Ta1 Te6"
_cell_length_a       7.249401849743401
_cell_length_b       7.2494018075704565
_cell_length_c       7.249401651290689
_cell_angle_alpha    60.000000945035076
_cell_angle_beta     60.000001273188644
_cell_angle_gamma    59.99999935991614

_space_group_name_H-M_alt    "P 1"
_space_group_IT_number       1

loop_
  _space_group_symop_operation_xyz
  'x, y, z'

loop_
  _atom_site_type_symbol
  _atom_site_label
  _atom_site_symmetry_multiplicity
  _atom_site_fract_x
  _atom_site_fract_y
  _atom_site_fract_z
  _atom_site_occupancy
  Ag  Ag1       1.0  0.2499998843831682  0.24999999832959705  0.25000009210383023  1.0000
  Ag  Ag2       1.0  0.7500000375827044  0.7499999932993426  0.7499997980193845  1.0000
  Ta  Ta1       1.0  0.9999999974907028  0.9999999645217041  0.999999978990495  1.0000
  Te  Te1       1.0  0.2659842772521615  0.265984292149372  0.734015735638322  1.0000
  Te  Te2       1.0  0.7340157410228314  0.7340157163739933  0.26598440963298686  1.0000
  Te  Te3       1.0  0.7340157289088003  0.26598426506741313  0.2659843028575363  1.0000
  Te  Te4       1.0  0.26598432553456697  0.7340157400770662  0.7340156811794885  1.0000
  Te  Te5       1.0  0.2659841999804871  0.7340156719190644  0.2659843758306425  1.0000
  Te  Te6       1.0  0.7340158177147798  0.26598436701426875  0.7340156165831265  1.0000
