data_image0
_chemical_formula_structural       Ag2VS6
_chemical_formula_sum              "Ag2 V1 S6"
_cell_length_a       6.261887692600997
_cell_length_b       6.261887898222757
_cell_length_c       6.261887863369062
_cell_angle_alpha    59.99999628009283
_cell_angle_beta     59.999999188026266
_cell_angle_gamma    59.99999618729357

_space_group_name_H-M_alt    "P 1"
_space_group_IT_number       1

loop_
  _space_group_symop_operation_xyz
  'x, y, z'

loop_
  _atom_site_type_symbol
  _atom_site_label
  _atom_site_symmetry_multiplicity
  _atom_site_fract_x
  _atom_site_fract_y
  _atom_site_fract_z
  _atom_site_occupancy
  Ag  Ag1       1.0  0.2500000795322639  0.24999992876172233  0.24999999636295098  1.0000
  Ag  Ag2       1.0  0.7499999917736783  0.7500000620630842  0.7499999267025682  1.0000
  V   V1        1.0  6.370318414583594e-08  0.9999999471914642  0.9999999594195028  1.0000
  S   S1        1.0  0.25410625982939844  0.2541062883078404  0.7458938059020764  1.0000
  S   S2        1.0  0.7458937492083276  0.7458937122963171  0.2541063510129978  1.0000
  S   S3        1.0  0.7458936612291354  0.2541062743788197  0.25410626808986114  1.0000
  S   S4        1.0  0.2541062807337562  0.7458937946808633  0.7458935639514812  1.0000
  S   S5        1.0  0.25410627400210006  0.745893730555071  0.2541063784664267  1.0000
  S   S6        1.0  0.7458936065874435  0.2541063013430386  0.7458937918925872  1.0000
