data_image0
_chemical_formula_structural       Ag2VTe6
_chemical_formula_sum              "Ag2 V1 Te6"
_cell_length_a       7.045039931979159
_cell_length_b       7.0450398514340895
_cell_length_c       7.045040086348579
_cell_angle_alpha    59.999999359633556
_cell_angle_beta     59.999998865559306
_cell_angle_gamma    59.999998095748325

_space_group_name_H-M_alt    "P 1"
_space_group_IT_number       1

loop_
  _space_group_symop_operation_xyz
  'x, y, z'

loop_
  _atom_site_type_symbol
  _atom_site_label
  _atom_site_symmetry_multiplicity
  _atom_site_fract_x
  _atom_site_fract_y
  _atom_site_fract_z
  _atom_site_occupancy
  Ag  Ag1       1.0  0.24999996422938545  0.25000002939223964  0.2500000141943777  1.0000
  Ag  Ag2       1.0  0.7499999930011485  0.7500000134233711  0.7499999588313934  1.0000
  V   V1        1.0  4.5014981811928196e-08  1.7384497911401904e-08  0.9999998921505897  1.0000
  Te  Te1       1.0  0.26559120563132876  0.2655910545632953  0.7344088194277104  1.0000
  Te  Te2       1.0  0.7344088651579487  0.7344088491763217  0.2655911564206167  1.0000
  Te  Te3       1.0  0.7344088140590739  0.265591220407123  0.2655911184337558  1.0000
  Te  Te4       1.0  0.26559102673235824  0.7344089406230838  0.7344089771954044  1.0000
  Te  Te5       1.0  0.2655911429893621  0.7344088140086072  0.26559113186963684  1.0000
  Te  Te6       1.0  0.7344089457468391  0.26559106539271127  0.7344089351795545  1.0000
