data_image0
_chemical_formula_structural       Ag2VS6
_chemical_formula_sum              "Ag2 V1 S6"
_cell_length_a       6.261517606900886
_cell_length_b       6.261517341915545
_cell_length_c       6.261517651763758
_cell_angle_alpha    60.00000152371253
_cell_angle_beta     60.000001753159765
_cell_angle_gamma    60.000003308531824

_space_group_name_H-M_alt    "P 1"
_space_group_IT_number       1

loop_
  _space_group_symop_operation_xyz
  'x, y, z'

loop_
  _atom_site_type_symbol
  _atom_site_label
  _atom_site_symmetry_multiplicity
  _atom_site_fract_x
  _atom_site_fract_y
  _atom_site_fract_z
  _atom_site_occupancy
  Ag  Ag1       1.0  0.2500000475587334  0.24999999278974488  0.24999993910945514  1.0000
  Ag  Ag2       1.0  0.7500000200883965  0.7499999920611464  0.7500000346761141  1.0000
  V   V1        1.0  0.999999964178622  4.10757347360533e-08  8.361389493460015e-08  1.0000
  S   S1        1.0  0.25410672769669546  0.2541067432689123  0.7458932405890107  1.0000
  S   S2        1.0  0.7458932056108032  0.745893130090696  0.25410679542384856  1.0000
  S   S3        1.0  0.7458932594863724  0.2541068016785465  0.2541068219187532  1.0000
  S   S4        1.0  0.25410685089197443  0.7458931988202432  0.7458930683773245  1.0000
  S   S5        1.0  0.25410679271168796  0.7458932220617704  0.2541068750176712  1.0000
  S   S6        1.0  0.7458930996862344  0.25410686254446846  0.7458931636647952  1.0000
