data_image0
_chemical_formula_structural       Ag2VO6
_chemical_formula_sum              "Ag2 V1 O6"
_cell_length_a       5.602270789256279
_cell_length_b       5.602270815777246
_cell_length_c       5.602270841513865
_cell_angle_alpha    60.00000691007976
_cell_angle_beta     60.00001000677716
_cell_angle_gamma    60.00001309193673

_space_group_name_H-M_alt    "P 1"
_space_group_IT_number       1

loop_
  _space_group_symop_operation_xyz
  'x, y, z'

loop_
  _atom_site_type_symbol
  _atom_site_label
  _atom_site_symmetry_multiplicity
  _atom_site_fract_x
  _atom_site_fract_y
  _atom_site_fract_z
  _atom_site_occupancy
  Ag  Ag1       1.0  0.2500000788740619  0.25000000539434625  0.24999992273344426  1.0000
  Ag  Ag2       1.0  0.7499999856859964  0.7499999527844483  0.7500000610269744  1.0000
  V   V1        1.0  0.999999941434658  8.744635792546015e-09  2.7302402278675075e-07  1.0000
  O   O1        1.0  0.23368018842063085  0.2336801779047176  0.7663197562217082  1.0000
  O   O2        1.0  0.7663197486601385  0.7663198720926818  0.23368005616005907  1.0000
  O   O3        1.0  0.7663198528756857  0.23368024958906392  0.23368014932083825  1.0000
  O   O4        1.0  0.2336802057081584  0.7663197698021527  0.7663199656856305  1.0000
  O   O5        1.0  0.23368022138511652  0.7663197916455068  0.2336800988324364  1.0000
  O   O6        1.0  0.7663198099253633  0.23368021681490916  0.7663197996573713  1.0000
