data_image0
_chemical_formula_structural       Ag2VSe6
_chemical_formula_sum              "Ag2 V1 Se6"
_cell_length_a       6.681020921604577
_cell_length_b       6.681020706101423
_cell_length_c       6.681021267551321
_cell_angle_alpha    59.999999967752224
_cell_angle_beta     59.99999802517141
_cell_angle_gamma    59.99999541937409

_space_group_name_H-M_alt    "P 1"
_space_group_IT_number       1

loop_
  _space_group_symop_operation_xyz
  'x, y, z'

loop_
  _atom_site_type_symbol
  _atom_site_label
  _atom_site_symmetry_multiplicity
  _atom_site_fract_x
  _atom_site_fract_y
  _atom_site_fract_z
  _atom_site_occupancy
  Ag  Ag1       1.0  0.2500000329889394  0.2499999855543197  0.24999996342736658  1.0000
  Ag  Ag2       1.0  0.7499999756083848  0.7500000208239284  0.7500000022035769  1.0000
  V   V1        1.0  0.9999999876740252  4.216291023220889e-08  0.9999997426036342  1.0000
  Se  Se1       1.0  0.25485850372515384  0.2548584399033315  0.745141477959234  1.0000
  Se  Se2       1.0  0.7451415121000121  0.7451415499763823  0.2548584563844037  1.0000
  Se  Se3       1.0  0.745141495012984  0.2548585379389522  0.2548585139101826  1.0000
  Se  Se4       1.0  0.2548584938059418  0.7451413877798089  0.7451417010110634  1.0000
  Se  Se5       1.0  0.2548585318096216  0.7451414746806496  0.25485851434409224  1.0000
  Se  Se6       1.0  0.7451414646714041  0.25485856286150055  0.7451416198795313  1.0000
