data_image0
_chemical_formula_structural       Ag2VTe6
_chemical_formula_sum              "Ag2 V1 Te6"
_cell_length_a       7.044548505264497
_cell_length_b       7.0445641767533145
_cell_length_c       7.044554685218544
_cell_angle_alpha    60.00007405675448
_cell_angle_beta     60.00000126645582
_cell_angle_gamma    59.9999567369521

_space_group_name_H-M_alt    "P 1"
_space_group_IT_number       1

loop_
  _space_group_symop_operation_xyz
  'x, y, z'

loop_
  _atom_site_type_symbol
  _atom_site_label
  _atom_site_symmetry_multiplicity
  _atom_site_fract_x
  _atom_site_fract_y
  _atom_site_fract_z
  _atom_site_occupancy
  Ag  Ag1       1.0  0.24999876678554908  0.2500004071017536  0.250001123243782  1.0000
  Ag  Ag2       1.0  0.7500037901163628  0.7500006493070754  0.7500000073806253  1.0000
  V   V1        1.0  8.31360028477777e-07  0.9999999547962053  0.999999740358461  1.0000
  Te  Te1       1.0  0.26571733769677525  0.26571654081430196  0.7342834937543514  1.0000
  Te  Te2       1.0  0.7342811265864803  0.7342853014314227  0.26571736111055383  1.0000
  Te  Te3       1.0  0.7342819704605273  0.26571957114224903  0.26571614277779887  1.0000
  Te  Te4       1.0  0.2657149959941356  0.73428133575624  0.7342829036429446  1.0000
  Te  Te5       1.0  0.265717684370347  0.7342800800822039  0.2657183791459906  1.0000
  Te  Te6       1.0  0.7342838632860059  0.26571599359641807  0.7342807265656142  1.0000
