data_image0
_chemical_formula_structural       Ag2WO6
_chemical_formula_sum              "Ag2 W1 O6"
_cell_length_a       5.631594264506374
_cell_length_b       5.631593963218704
_cell_length_c       5.631593924527347
_cell_angle_alpha    59.999996740131884
_cell_angle_beta     59.99999713033299
_cell_angle_gamma    59.99999782854921

_space_group_name_H-M_alt    "P 1"
_space_group_IT_number       1

loop_
  _space_group_symop_operation_xyz
  'x, y, z'

loop_
  _atom_site_type_symbol
  _atom_site_label
  _atom_site_symmetry_multiplicity
  _atom_site_fract_x
  _atom_site_fract_y
  _atom_site_fract_z
  _atom_site_occupancy
  Ag  Ag1       1.0  0.24999998200219836  0.2499999587903989  0.25000007911899835  1.0000
  Ag  Ag2       1.0  0.749999952196811  0.7500000177315688  0.7499999860120762  1.0000
  W   W1        1.0  0.9999999933726419  0.9999999891261273  0.9999999199658053  1.0000
  O   O1        1.0  0.24320973920138858  0.24320964415457066  0.7567903507612707  1.0000
  O   O2        1.0  0.756790259675669  0.756790488951189  0.24320964813128218  1.0000
  O   O3        1.0  0.7567904298938877  0.24320974788235003  0.24320954469733144  1.0000
  O   O4        1.0  0.24320966282527473  0.7567903743495354  0.7567904428979388  1.0000
  O   O5        1.0  0.24320965780090878  0.7567902742936748  0.24320965158437644  1.0000
  O   O6        1.0  0.7567904643524094  0.24320963046072394  0.7567903181637025  1.0000
