data_image0
_chemical_formula_structural       Ag2WTe6
_chemical_formula_sum              "Ag2 W1 Te6"
_cell_length_a       7.147583101058252
_cell_length_b       7.147583262511677
_cell_length_c       7.147583163501456
_cell_angle_alpha    59.99999942694081
_cell_angle_beta     60.00000000923806
_cell_angle_gamma    60.000002675827986

_space_group_name_H-M_alt    "P 1"
_space_group_IT_number       1

loop_
  _space_group_symop_operation_xyz
  'x, y, z'

loop_
  _atom_site_type_symbol
  _atom_site_label
  _atom_site_symmetry_multiplicity
  _atom_site_fract_x
  _atom_site_fract_y
  _atom_site_fract_z
  _atom_site_occupancy
  Ag  Ag1       1.0  0.2499999985583557  0.2500000604125492  0.24999997308181146  1.0000
  Ag  Ag2       1.0  0.749999966808661  0.7500001418269373  0.7500000457228974  1.0000
  W   W1        1.0  0.999999979603141  0.9999999400271818  8.63542912587262e-08  1.0000
  Te  Te1       1.0  0.2641347260101248  0.26413460383763365  0.7358653597053277  1.0000
  Te  Te2       1.0  0.7358654450701989  0.7358653156728666  0.2641345604979406  1.0000
  Te  Te3       1.0  0.7358651768602309  0.2641347783392408  0.26413478826490633  1.0000
  Te  Te4       1.0  0.26413467571782456  0.7358652388412661  0.7358652591433833  1.0000
  Te  Te5       1.0  0.26413479516155963  0.7358652397473295  0.26413466392308904  1.0000
  Te  Te6       1.0  0.7358652292823598  0.2641346883307125  0.735865260957192  1.0000
