data_image0
_chemical_formula_structural       Ag2ZnTe6
_chemical_formula_sum              "Ag2 Zn1 Te6"
_cell_length_a       7.135145863049338
_cell_length_b       7.13514567126037
_cell_length_c       7.1351452396247
_cell_angle_alpha    60.00000180956681
_cell_angle_beta     60.000001857283486
_cell_angle_gamma    60.00000015348167

_space_group_name_H-M_alt    "P 1"
_space_group_IT_number       1

loop_
  _space_group_symop_operation_xyz
  'x, y, z'

loop_
  _atom_site_type_symbol
  _atom_site_label
  _atom_site_symmetry_multiplicity
  _atom_site_fract_x
  _atom_site_fract_y
  _atom_site_fract_z
  _atom_site_occupancy
  Ag  Ag1       1.0  0.24999996414145687  0.2500001451183288  0.2499999823250729  1.0000
  Ag  Ag2       1.0  0.7500001193410892  0.7499999924990327  0.7499999876722031  1.0000
  Zn  Zn1       1.0  3.074822844164666e-08  0.9999999999999999  3.227733327473145e-08  1.0000
  Te  Te1       1.0  0.2712912190971863  0.27129135375313124  0.7287087910029418  1.0000
  Te  Te2       1.0  0.7287087928228415  0.7287085761682225  0.2712913760856382  1.0000
  Te  Te3       1.0  0.7287087426059546  0.2712912471717028  0.2712911830458735  1.0000
  Te  Te4       1.0  0.2712911565696054  0.7287087393940173  0.7287087626234142  1.0000
  Te  Te5       1.0  0.27129120367161486  0.7287087386018425  0.27129117466897895  1.0000
  Te  Te6       1.0  0.7287087767316852  0.2712912033349826  0.7287087092539771  1.0000
