data_image0
_chemical_formula_structural       Ag2ZrS6
_chemical_formula_sum              "Ag2 Zr1 S6"
_cell_length_a       6.544642264177883
_cell_length_b       6.544641784606341
_cell_length_c       6.544642064635369
_cell_angle_alpha    59.99999827513078
_cell_angle_beta     59.99999901865486
_cell_angle_gamma    59.99999659734259

_space_group_name_H-M_alt    "P 1"
_space_group_IT_number       1

loop_
  _space_group_symop_operation_xyz
  'x, y, z'

loop_
  _atom_site_type_symbol
  _atom_site_label
  _atom_site_symmetry_multiplicity
  _atom_site_fract_x
  _atom_site_fract_y
  _atom_site_fract_z
  _atom_site_occupancy
  Ag  Ag1       1.0  0.24999998032767187  0.25000001600653343  0.2500000032462103  1.0000
  Ag  Ag2       1.0  0.7500000166205867  0.7499999057954464  0.7499999727454192  1.0000
  Zr  Zr1       1.0  0.9999999836927944  2.2456445290180076e-08  0.9999999785897711  1.0000
  S   S1        1.0  0.27154943642992896  0.27154942272868815  0.7284505252663668  1.0000
  S   S2        1.0  0.7284506379354476  0.7284505103015135  0.2715494950247031  1.0000
  S   S3        1.0  0.7284505483616048  0.2715494756636964  0.271549391954294  1.0000
  S   S4        1.0  0.2715493609197454  0.7284505715201037  0.7284506751935365  1.0000
  S   S5        1.0  0.27154942020104245  0.7284505640732605  0.27154941763246604  1.0000
  S   S6        1.0  0.7284506179661405  0.2715495093097238  0.7284505459974073  1.0000
