data_image0
_chemical_formula_structural       Ag2ZrTe6
_chemical_formula_sum              "Ag2 Zr1 Te6"
_cell_length_a       7.377873907847707
_cell_length_b       7.3778741022032435
_cell_length_c       7.377874223908633
_cell_angle_alpha    59.999999434910514
_cell_angle_beta     59.999994282260396
_cell_angle_gamma    60.00000162818531

_space_group_name_H-M_alt    "P 1"
_space_group_IT_number       1

loop_
  _space_group_symop_operation_xyz
  'x, y, z'

loop_
  _atom_site_type_symbol
  _atom_site_label
  _atom_site_symmetry_multiplicity
  _atom_site_fract_x
  _atom_site_fract_y
  _atom_site_fract_z
  _atom_site_occupancy
  Ag  Ag1       1.0  0.24999987634477103  0.2500000141136784  0.2500000355004806  1.0000
  Ag  Ag2       1.0  0.7500000229938105  0.7500000108005943  0.7500002722753166  1.0000
  Zr  Zr1       1.0  1.1940492889479317e-07  3.3200506759243856e-09  0.9999998925537714  1.0000
  Te  Te1       1.0  0.27068185633413266  0.2706819836288816  0.7293181601079632  1.0000
  Te  Te2       1.0  0.7293181346827435  0.7293179118035128  0.2706819293739282  1.0000
  Te  Te3       1.0  0.7293179989824571  0.270682266480211  0.2706818540113511  1.0000
  Te  Te4       1.0  0.27068202456476775  0.729317892896008  0.7293179313619962  1.0000
  Te  Te5       1.0  0.2706820854322665  0.729317943644448  0.2706820954759846  1.0000
  Te  Te6       1.0  0.7293178791517482  0.2706819700482074  0.7293178151126722  1.0000
