data_image0
_chemical_formula_structural       Ag2ZrO6
_chemical_formula_sum              "Ag2 Zr1 O6"
_cell_length_a       5.43491988766438
_cell_length_b       5.434919626913649
_cell_length_c       5.434919400965064
_cell_angle_alpha    59.99999903721715
_cell_angle_beta     59.99999948437249
_cell_angle_gamma    59.99999706487373

_space_group_name_H-M_alt    "P 1"
_space_group_IT_number       1

loop_
  _space_group_symop_operation_xyz
  'x, y, z'

loop_
  _atom_site_type_symbol
  _atom_site_label
  _atom_site_symmetry_multiplicity
  _atom_site_fract_x
  _atom_site_fract_y
  _atom_site_fract_z
  _atom_site_occupancy
  Ag  Ag1       1.0  0.25000022108274544  0.24999991480651237  0.2499998878589048  1.0000
  Ag  Ag2       1.0  0.7500000890256269  0.7499998863883922  0.7500002329747126  1.0000
  Zr  Zr1       1.0  0.9999999898078833  0.9999999031006256  1.3818361719013007e-07  1.0000
  O   O1        1.0  0.2742125340045713  0.2742126070761448  0.7257874448286281  1.0000
  O   O2        1.0  0.7257873686268735  0.7257875050981547  0.2742124776999666  1.0000
  O   O3        1.0  0.7257875760173672  0.2742124690792819  0.2742123750150798  1.0000
  O   O4        1.0  0.2742123316586541  0.7257875642234349  0.7257875531478066  1.0000
  O   O5        1.0  0.27421247979397884  0.7257876198338856  0.274212403158432  1.0000
  O   O6        1.0  0.7257874369363607  0.2742125329029415  0.7257875343583855  1.0000
