data_image0
_chemical_formula_structural       Ag2ZnO6
_chemical_formula_sum              "Ag2 Zn1 O6"
_cell_length_a       5.285169310186181
_cell_length_b       5.285169381723328
_cell_length_c       5.285169481739384
_cell_angle_alpha    60.00000062683796
_cell_angle_beta     60.000000238817265
_cell_angle_gamma    60.00000165675121

_space_group_name_H-M_alt    "P 1"
_space_group_IT_number       1

loop_
  _space_group_symop_operation_xyz
  'x, y, z'

loop_
  _atom_site_type_symbol
  _atom_site_label
  _atom_site_symmetry_multiplicity
  _atom_site_fract_x
  _atom_site_fract_y
  _atom_site_fract_z
  _atom_site_occupancy
  Ag  Ag1       1.0  0.25000000538679723  0.24999996225726653  0.25000001139998096  1.0000
  Ag  Ag2       1.0  0.7500000217415888  0.7500000142246063  0.7499999809275505  1.0000
  Zn  Zn1       1.0  0.9999999272391551  3.4759856158318295e-08  9.657605731594087e-08  1.0000
  O   O1        1.0  0.2624355192142351  0.26243547479812435  0.7375644869398582  1.0000
  O   O2        1.0  0.7375645352789698  0.7375645179050154  0.26243549683923917  1.0000
  O   O3        1.0  0.7375645316453928  0.2624355062255105  0.2624354934400256  1.0000
  O   O4        1.0  0.26243548945873085  0.737564442448477  0.7375644893143626  1.0000
  O   O5        1.0  0.26243541993129954  0.7375645469712642  0.2624354757312902  1.0000
  O   O6        1.0  0.7375645358258549  0.26243550598229126  0.7375644497150609  1.0000
