data_image0
_chemical_formula_structural       Au2BeS6
_chemical_formula_sum              "Au2 Be1 S6"
_cell_length_a       6.287888248875193
_cell_length_b       6.287888268496187
_cell_length_c       6.28788834249671
_cell_angle_alpha    59.99999881677539
_cell_angle_beta     59.999999895279494
_cell_angle_gamma    59.99999985181881

_space_group_name_H-M_alt    "P 1"
_space_group_IT_number       1

loop_
  _space_group_symop_operation_xyz
  'x, y, z'

loop_
  _atom_site_type_symbol
  _atom_site_label
  _atom_site_symmetry_multiplicity
  _atom_site_fract_x
  _atom_site_fract_y
  _atom_site_fract_z
  _atom_site_occupancy
  Au  Au1       1.0  0.2500000313395075  0.25000005561516064  0.2499998935328407  1.0000
  Au  Au2       1.0  0.7500000442547478  0.7499999194768983  0.7499999834295286  1.0000
  Be  Be1       1.0  5.935635358126658e-09  9.738920725766535e-09  0.9999999778494907  1.0000
  S   S1        1.0  0.26378422451871164  0.2637843880890866  0.7362156956701559  1.0000
  S   S2        1.0  0.73621571568244  0.7362156571231981  0.26378434592845085  1.0000
  S   S3        1.0  0.7362157164641253  0.26378438690974787  0.26378426540366184  1.0000
  S   S4        1.0  0.2637843573860254  0.7362156154512873  0.7362157180731984  1.0000
  S   S5        1.0  0.26378427663294807  0.7362156593511927  0.26378437986718906  1.0000
  S   S6        1.0  0.7362156320727503  0.2637843040541592  0.7362157390572786  1.0000
