data_image0
_chemical_formula_structural       Au2BeSe6
_chemical_formula_sum              "Au2 Be1 Se6"
_cell_length_a       6.307442450184147
_cell_length_b       6.307441739714161
_cell_length_c       6.307438790029691
_cell_angle_alpha    59.99999481375814
_cell_angle_beta     60.00000535692992
_cell_angle_gamma    60.00001696504252

_space_group_name_H-M_alt    "P 1"
_space_group_IT_number       1

loop_
  _space_group_symop_operation_xyz
  'x, y, z'

loop_
  _atom_site_type_symbol
  _atom_site_label
  _atom_site_symmetry_multiplicity
  _atom_site_fract_x
  _atom_site_fract_y
  _atom_site_fract_z
  _atom_site_occupancy
  Au  Au1       1.0  0.25000030538394075  0.24999993790855918  0.24999989324162086  1.0000
  Au  Au2       1.0  0.750000084695679  0.7500001826572011  0.7499998665951737  1.0000
  Be  Be1       1.0  4.85654642674981e-07  0.9999998446605747  0.9999991277407744  1.0000
  Se  Se1       1.0  0.2164195180234181  0.2164184730663227  0.7835826301717184  1.0000
  Se  Se2       1.0  0.7835813636468829  0.7835814688584996  0.21641936718883945  1.0000
  Se  Se3       1.0  0.7835806434358227  0.21641936148182603  0.21641695225403074  1.0000
  Se  Se4       1.0  0.2164195677436709  0.7835802522886197  0.7835810037589377  1.0000
  Se  Se5       1.0  0.2164188760172265  0.783581213688788  0.21641809666412767  1.0000
  Se  Se6       1.0  0.7835791815473003  0.21641926998283267  0.7835830236242798  1.0000
