data_image0
_chemical_formula_structural       Au2BeO6
_chemical_formula_sum              "Au2 Be1 O6"
_cell_length_a       5.009742588266154
_cell_length_b       5.00974263510614
_cell_length_c       5.009742736234173
_cell_angle_alpha    59.9999992824134
_cell_angle_beta     59.99999850696697
_cell_angle_gamma    60.000000368457755

_space_group_name_H-M_alt    "P 1"
_space_group_IT_number       1

loop_
  _space_group_symop_operation_xyz
  'x, y, z'

loop_
  _atom_site_type_symbol
  _atom_site_label
  _atom_site_symmetry_multiplicity
  _atom_site_fract_x
  _atom_site_fract_y
  _atom_site_fract_z
  _atom_site_occupancy
  Au  Au1       1.0  0.24999990120654525  0.24999998072535584  0.24999998847699018  1.0000
  Au  Au2       1.0  0.7500001798731093  0.7500000277414867  0.7499998362259191  1.0000
  Be  Be1       1.0  2.025277688421375e-09  1.4668356820633278e-08  0.9999999956454036  1.0000
  O   O1        1.0  0.2348307490100554  0.234830778326954  0.7651692899740024  1.0000
  O   O2        1.0  0.7651692485815514  0.7651691763559132  0.23483078900319387  1.0000
  O   O3        1.0  0.7651692039207163  0.2348307975666467  0.23483082559450857  1.0000
  O   O4        1.0  0.23483075828233288  0.7651691595609462  0.7651692439051674  1.0000
  O   O5        1.0  0.23483067851553052  0.7651692688391504  0.2348308724942181  1.0000
  O   O6        1.0  0.765169265176275  0.2348308129694752  0.765169133940011  1.0000
