data_image0
_chemical_formula_structural       Au2CuO6
_chemical_formula_sum              "Au2 Cu1 O6"
_cell_length_a       5.2948152200591
_cell_length_b       5.294815255358364
_cell_length_c       5.294815034681276
_cell_angle_alpha    60.00000090399108
_cell_angle_beta     60.000001180119924
_cell_angle_gamma    60.00000100561752

_space_group_name_H-M_alt    "P 1"
_space_group_IT_number       1

loop_
  _space_group_symop_operation_xyz
  'x, y, z'

loop_
  _atom_site_type_symbol
  _atom_site_label
  _atom_site_symmetry_multiplicity
  _atom_site_fract_x
  _atom_site_fract_y
  _atom_site_fract_z
  _atom_site_occupancy
  Au  Au1       1.0  0.2499999604502585  0.2500005300871616  0.2499996844984556  1.0000
  Au  Au2       1.0  0.7500000545844325  0.7500001677036567  0.7500001276538015  1.0000
  Cu  Cu1       1.0  2.2469578802972993e-08  0.9999999653034679  0.999999974006595  1.0000
  O   O1        1.0  0.24962823880103918  0.24962809477574513  0.7503718937984728  1.0000
  O   O2        1.0  0.7503719309774011  0.7503716546431911  0.24962803564911945  1.0000
  O   O3        1.0  0.7503718295832842  0.2496281299275162  0.24962819798441876  1.0000
  O   O4        1.0  0.24962802957090346  0.7503717073893004  0.750371988251647  1.0000
  O   O5        1.0  0.24962821843379682  0.7503716638634941  0.24962811572728882  1.0000
  O   O6        1.0  0.7503716905503297  0.2496280763030325  0.7503720167347088  1.0000
