data_image0
_chemical_formula_structural       Au2CS6
_chemical_formula_sum              "Au2 C1 S6"
_cell_length_a       6.201444449735535
_cell_length_b       6.201444758883731
_cell_length_c       6.2014443404820145
_cell_angle_alpha    60.00000384663262
_cell_angle_beta     60.00000138976389
_cell_angle_gamma    60.00000292499002

_space_group_name_H-M_alt    "P 1"
_space_group_IT_number       1

loop_
  _space_group_symop_operation_xyz
  'x, y, z'

loop_
  _atom_site_type_symbol
  _atom_site_label
  _atom_site_symmetry_multiplicity
  _atom_site_fract_x
  _atom_site_fract_y
  _atom_site_fract_z
  _atom_site_occupancy
  Au  Au1       1.0  0.25000028007549535  0.25000021262572836  0.25000007907916316  1.0000
  Au  Au2       1.0  0.7499999573935561  0.749999934800439  0.7500002626291883  1.0000
  C   C1        1.0  0.9999966984631942  0.9999916776250979  0.9999865616015493  1.0000
  S   S1        1.0  0.22840757912337512  0.2284075171754868  0.7715922979255893  1.0000
  S   S2        1.0  0.7715981194782149  0.7715980711956226  0.22840179293044444  1.0000
  S   S3        1.0  0.7715896461012228  0.22841020255753094  0.22841003606990185  1.0000
  S   S4        1.0  0.2283994680400745  0.7716004515211303  0.7716007696748035  1.0000
  S   S5        1.0  0.22840899643637416  0.7715910129210639  0.22840884155508742  1.0000
  S   S6        1.0  0.7715992148561969  0.22840092075201218  0.7715993812132135  1.0000
