data_image0
_chemical_formula_structural       Au2CuSe6
_chemical_formula_sum              "Au2 Cu1 Se6"
_cell_length_a       6.408135083925393
_cell_length_b       6.408135072735161
_cell_length_c       6.408135279816892
_cell_angle_alpha    59.999997820774674
_cell_angle_beta     59.999997933169006
_cell_angle_gamma    59.999998330275744

_space_group_name_H-M_alt    "P 1"
_space_group_IT_number       1

loop_
  _space_group_symop_operation_xyz
  'x, y, z'

loop_
  _atom_site_type_symbol
  _atom_site_label
  _atom_site_symmetry_multiplicity
  _atom_site_fract_x
  _atom_site_fract_y
  _atom_site_fract_z
  _atom_site_occupancy
  Au  Au1       1.0  0.2500000459841147  0.24999999625534017  0.24999994047109944  1.0000
  Au  Au2       1.0  0.7500000669494761  0.7499999639199717  0.7499998771403393  1.0000
  Cu  Cu1       1.0  3.0651550073416896e-08  0.999999967509013  4.040751248136989e-09  1.0000
  Se  Se1       1.0  0.2867212142887149  0.28672105875900317  0.7132788993849749  1.0000
  Se  Se2       1.0  0.7132789037602529  0.713278853635443  0.2867212391783514  1.0000
  Se  Se3       1.0  0.7132787393782719  0.28672115324328024  0.2867212023511887  1.0000
  Se  Se4       1.0  0.2867211120912643  0.7132789426296818  0.7132788856921304  1.0000
  Se  Se5       1.0  0.2867210958035824  0.7132789348294166  0.28672105514353835  1.0000
  Se  Se6       1.0  0.7132787854618159  0.2867211419312012  0.7132788980351629  1.0000
