data_image0
_chemical_formula_structural       Au2CoSe6
_chemical_formula_sum              "Au2 Co1 Se6"
_cell_length_a       6.4614372654248395
_cell_length_b       6.461437142938152
_cell_length_c       6.461437182524533
_cell_angle_alpha    59.999999520531084
_cell_angle_beta     59.999999699244505
_cell_angle_gamma    59.99999849407531

_space_group_name_H-M_alt    "P 1"
_space_group_IT_number       1

loop_
  _space_group_symop_operation_xyz
  'x, y, z'

loop_
  _atom_site_type_symbol
  _atom_site_label
  _atom_site_symmetry_multiplicity
  _atom_site_fract_x
  _atom_site_fract_y
  _atom_site_fract_z
  _atom_site_occupancy
  Au  Au1       1.0  0.24999997337784047  0.250000004923895  0.2500000459041164  1.0000
  Au  Au2       1.0  0.749999957987089  0.7499999977124705  0.750000018980141  1.0000
  Co  Co1       1.0  0.9999999990429663  1.8954682363004074e-08  0.9999999430242331  1.0000
  Se  Se1       1.0  0.25453793717289513  0.2545378977895319  0.7454620771053277  1.0000
  Se  Se2       1.0  0.745462056107471  0.7454621067423012  0.2545379078965351  1.0000
  Se  Se3       1.0  0.7454620945162879  0.25453789096891477  0.25453792543870923  1.0000
  Se  Se4       1.0  0.25453792999280567  0.7454621002946403  0.7454620846310813  1.0000
  Se  Se5       1.0  0.2545379452130707  0.7454620493122316  0.2545379117486602  1.0000
  Se  Se6       1.0  0.7454621014810238  0.2545379343694504  0.7454620910195664  1.0000
