data_image0
_chemical_formula_structural       Au2CrS6
_chemical_formula_sum              "Au2 Cr1 S6"
_cell_length_a       6.27219182335395
_cell_length_b       6.2721912869278915
_cell_length_c       6.27219190339394
_cell_angle_alpha    59.99999708828713
_cell_angle_beta     59.99999812886316
_cell_angle_gamma    59.999997602797905

_space_group_name_H-M_alt    "P 1"
_space_group_IT_number       1

loop_
  _space_group_symop_operation_xyz
  'x, y, z'

loop_
  _atom_site_type_symbol
  _atom_site_label
  _atom_site_symmetry_multiplicity
  _atom_site_fract_x
  _atom_site_fract_y
  _atom_site_fract_z
  _atom_site_occupancy
  Au  Au1       1.0  0.2500000042623262  0.2500000018018374  0.24999996749742598  1.0000
  Au  Au2       1.0  0.7500000021111248  0.7500001147544033  0.7500000014292841  1.0000
  Cr  Cr1       1.0  4.611711544676456e-08  2.733722341397639e-08  2.0669033175868765e-08  1.0000
  S   S1        1.0  0.2538305548643131  0.2538306660391574  0.7461693533977444  1.0000
  S   S2        1.0  0.7461694294939766  0.7461693177362866  0.25383051276664065  1.0000
  S   S3        1.0  0.7461694186418376  0.25383045333297377  0.2538306348335875  1.0000
  S   S4        1.0  0.25383060146100084  0.7461693293186211  0.7461694814260391  1.0000
  S   S5        1.0  0.2538305887932587  0.7461694165027078  0.2538306226581122  1.0000
  S   S6        1.0  0.7461693732115463  0.2538306453790879  0.7461694212995676  1.0000
