data_image0
_chemical_formula_structural       Au2CoO6
_chemical_formula_sum              "Au2 Co1 O6"
_cell_length_a       5.36606481734944
_cell_length_b       5.366065009484886
_cell_length_c       5.366064928636134
_cell_angle_alpha    59.999998428023716
_cell_angle_beta     59.99999882269143
_cell_angle_gamma    60.000000576350445

_space_group_name_H-M_alt    "P 1"
_space_group_IT_number       1

loop_
  _space_group_symop_operation_xyz
  'x, y, z'

loop_
  _atom_site_type_symbol
  _atom_site_label
  _atom_site_symmetry_multiplicity
  _atom_site_fract_x
  _atom_site_fract_y
  _atom_site_fract_z
  _atom_site_occupancy
  Au  Au1       1.0  0.2500001054038932  0.2500000548509642  0.24999995708991116  1.0000
  Au  Au2       1.0  0.7499998134378788  0.7500001622705049  0.7499997976743064  1.0000
  Co  Co1       1.0  4.173182600169121e-09  6.847167881979082e-09  0.9999999833084467  1.0000
  O   O1        1.0  0.23904530818846173  0.2390452376655177  0.7609547171086576  1.0000
  O   O2        1.0  0.7609547433338967  0.7609547169811874  0.2390454584931831  1.0000
  O   O3        1.0  0.7609546486015374  0.23904526499981887  0.23904534874629985  1.0000
  O   O4        1.0  0.23904536814429853  0.7609546325871593  0.7609547180979386  1.0000
  O   O5        1.0  0.2390453757914658  0.7609547077745713  0.23904525008117972  1.0000
  O   O6        1.0  0.7609546570168362  0.23904521263630085  0.7609547134595438  1.0000
