data_image0
_chemical_formula_structural       Au2CS6
_chemical_formula_sum              "Au2 C1 S6"
_cell_length_a       6.2013140210599165
_cell_length_b       6.201313718861198
_cell_length_c       6.201313752318191
_cell_angle_alpha    60.00000023344569
_cell_angle_beta     59.999998755686256
_cell_angle_gamma    59.999999103422724

_space_group_name_H-M_alt    "P 1"
_space_group_IT_number       1

loop_
  _space_group_symop_operation_xyz
  'x, y, z'

loop_
  _atom_site_type_symbol
  _atom_site_label
  _atom_site_symmetry_multiplicity
  _atom_site_fract_x
  _atom_site_fract_y
  _atom_site_fract_z
  _atom_site_occupancy
  Au  Au1       1.0  0.2500004061772085  0.24999954133937416  0.25000015319732427  1.0000
  Au  Au2       1.0  0.7500001256349732  0.7499997576546147  0.749999952228496  1.0000
  C   C1        1.0  0.9999924984073162  1.543839109682427e-05  0.9999930822259527  1.0000
  S   S1        1.0  0.22838442954223323  0.22838497164687555  0.7716150306604704  1.0000
  S   S2        1.0  0.7716107288882401  0.77161150510572  0.22838890166666348  1.0000
  S   S3        1.0  0.7716151727956027  0.22838460028504373  0.22838458132847586  1.0000
  S   S4        1.0  0.2283890734788627  0.771611197075578  0.771610760605098  1.0000
  S   S5        1.0  0.22839056088333826  0.7716095774613241  0.22839059394222377  1.0000
  S   S6        1.0  0.7716169869604342  0.22838340950795066  0.7716169030004697  1.0000
