data_image0
_chemical_formula_structural       Au2CO6
_chemical_formula_sum              "Au2 C1 O6"
_cell_length_a       4.90845772404372
_cell_length_b       4.908457565690657
_cell_length_c       4.9084579583097385
_cell_angle_alpha    59.99999566916914
_cell_angle_beta     59.99999960316151
_cell_angle_gamma    60.000000238219826

_space_group_name_H-M_alt    "P 1"
_space_group_IT_number       1

loop_
  _space_group_symop_operation_xyz
  'x, y, z'

loop_
  _atom_site_type_symbol
  _atom_site_label
  _atom_site_symmetry_multiplicity
  _atom_site_fract_x
  _atom_site_fract_y
  _atom_site_fract_z
  _atom_site_occupancy
  Au  Au1       1.0  0.25000048926169954  0.2499999359351374  0.24999994960761143  1.0000
  Au  Au2       1.0  0.7500006448643767  0.7500002369750861  0.750000006989651  1.0000
  C   C1        1.0  1.2591065191704251e-06  0.9999993138275481  4.1538240476895545e-08  1.0000
  O   O1        1.0  0.22162362594382523  0.22162408339159675  0.7783760246336711  1.0000
  O   O2        1.0  0.7783757544048309  0.7783759872165091  0.22162392284547677  1.0000
  O   O3        1.0  0.7783756189746667  0.22162407397512573  0.22162409129974164  1.0000
  O   O4        1.0  0.22162359731658304  0.778376128877123  0.778376022846214  1.0000
  O   O5        1.0  0.2216235324416692  0.7783762118624202  0.22162397206811318  1.0000
  O   O6        1.0  0.7783755676530297  0.22162391613464974  0.7783760053515396  1.0000
