data_image0
_chemical_formula_structural       Au2CO6
_chemical_formula_sum              "Au2 C1 O6"
_cell_length_a       4.908838167134743
_cell_length_b       4.908837997660854
_cell_length_c       4.908837925350384
_cell_angle_alpha    60.000000450967256
_cell_angle_beta     60.00000064412542
_cell_angle_gamma    59.999999701656805

_space_group_name_H-M_alt    "P 1"
_space_group_IT_number       1

loop_
  _space_group_symop_operation_xyz
  'x, y, z'

loop_
  _atom_site_type_symbol
  _atom_site_label
  _atom_site_symmetry_multiplicity
  _atom_site_fract_x
  _atom_site_fract_y
  _atom_site_fract_z
  _atom_site_occupancy
  Au  Au1       1.0  0.24999998615162444  0.24999984427341718  0.2500000334210379  1.0000
  Au  Au2       1.0  0.7500000251422113  0.750000024331155  0.7499999841353537  1.0000
  C   C1        1.0  8.459288052160493e-09  0.9999999675652702  0.9999999814305905  1.0000
  O   O1        1.0  0.2216015663666425  0.2216016533384238  0.7783983954952697  1.0000
  O   O2        1.0  0.7783983902985483  0.7783984073795475  0.2216016144330058  1.0000
  O   O3        1.0  0.778398400227628  0.2216016295820966  0.2216015973541392  1.0000
  O   O4        1.0  0.22160160198719317  0.7783983862262489  0.7783984305884118  1.0000
  O   O5        1.0  0.2216015871707653  0.7783984966566757  0.2216016415639059  1.0000
  O   O6        1.0  0.7783984597130619  0.2216015615663162  0.7783983285768246  1.0000
