data_image0
_chemical_formula_structural       Au2FeSe6
_chemical_formula_sum              "Au2 Fe1 Se6"
_cell_length_a       6.555817684071761
_cell_length_b       6.555817686012919
_cell_length_c       6.555817552528952
_cell_angle_alpha    59.99999911044646
_cell_angle_beta     59.999999370363106
_cell_angle_gamma    59.99999968144623

_space_group_name_H-M_alt    "P 1"
_space_group_IT_number       1

loop_
  _space_group_symop_operation_xyz
  'x, y, z'

loop_
  _atom_site_type_symbol
  _atom_site_label
  _atom_site_symmetry_multiplicity
  _atom_site_fract_x
  _atom_site_fract_y
  _atom_site_fract_z
  _atom_site_occupancy
  Au  Au1       1.0  0.2499999955445027  0.24999995308516412  0.2500000208580148  1.0000
  Au  Au2       1.0  0.7499999837304157  0.7500000423371522  0.749999975535484  1.0000
  Fe  Fe1       1.0  3.460401710289855e-08  1.868180565991085e-09  0.9999999604088221  1.0000
  Se  Se1       1.0  0.24557734471814296  0.245577327067272  0.7544226828258603  1.0000
  Se  Se2       1.0  0.7544226565292337  0.7544226552777822  0.2455773792867276  1.0000
  Se  Se3       1.0  0.7544226809575223  0.24557732229637788  0.24557732469010352  1.0000
  Se  Se4       1.0  0.24557732608975003  0.7544226637850374  0.754422667063757  1.0000
  Se  Se5       1.0  0.24557731675648353  0.754422685260114  0.24557731511937564  1.0000
  Se  Se6       1.0  0.7544226536934172  0.24557734192126537  0.7544227018397182  1.0000
