data_image0
_chemical_formula_structural       Au2FeS6
_chemical_formula_sum              "Au2 Fe1 S6"
_cell_length_a       6.316604171660318
_cell_length_b       6.3166040626431315
_cell_length_c       6.316604121210614
_cell_angle_alpha    60.00000055202442
_cell_angle_beta     60.000000506304694
_cell_angle_gamma    59.999999226908294

_space_group_name_H-M_alt    "P 1"
_space_group_IT_number       1

loop_
  _space_group_symop_operation_xyz
  'x, y, z'

loop_
  _atom_site_type_symbol
  _atom_site_label
  _atom_site_symmetry_multiplicity
  _atom_site_fract_x
  _atom_site_fract_y
  _atom_site_fract_z
  _atom_site_occupancy
  Au  Au1       1.0  0.2500000234231933  0.2499999660611075  0.2500000262394728  1.0000
  Au  Au2       1.0  0.7499999478985191  0.7500000843205359  0.7499999518475949  1.0000
  Fe  Fe1       1.0  1.5787024497049864e-08  3.4900727241376794e-08  0.9999999683236078  1.0000
  S   S1        1.0  0.24557996906294602  0.2455799000233151  0.7544200736408585  1.0000
  S   S2        1.0  0.7544200236060155  0.7544200534118631  0.245579967575883  1.0000
  S   S3        1.0  0.7544201021905634  0.24557987931509598  0.2455799155408541  1.0000
  S   S4        1.0  0.24557990303387364  0.7544201187154557  0.754420060688493  1.0000
  S   S5        1.0  0.24557992997094136  0.7544200890213847  0.24557994666270805  1.0000
  S   S6        1.0  0.7544200777468716  0.24557987410843982  0.7544200900979302  1.0000
