data_image0
_chemical_formula_structural       Au2FeS6
_chemical_formula_sum              "Au2 Fe1 S6"
_cell_length_a       6.314575121454688
_cell_length_b       6.314575536794467
_cell_length_c       6.314574962215285
_cell_angle_alpha    60.00000173067286
_cell_angle_beta     60.00000124990421
_cell_angle_gamma    60.000001003753624

_space_group_name_H-M_alt    "P 1"
_space_group_IT_number       1

loop_
  _space_group_symop_operation_xyz
  'x, y, z'

loop_
  _atom_site_type_symbol
  _atom_site_label
  _atom_site_symmetry_multiplicity
  _atom_site_fract_x
  _atom_site_fract_y
  _atom_site_fract_z
  _atom_site_occupancy
  Au  Au1       1.0  0.2500000443177808  0.25000006972250577  0.24999992216907557  1.0000
  Au  Au2       1.0  0.7499999439266636  0.7499998930205203  0.7500001362832687  1.0000
  Fe  Fe1       1.0  4.800704383685681e-08  0.9999999437529872  2.9458191021344158e-08  1.0000
  S   S1        1.0  0.2455875985124865  0.24558757482434126  0.7544123464486965  1.0000
  S   S2        1.0  0.7544123310478599  0.7544124926545034  0.2455875274467243  1.0000
  S   S3        1.0  0.7544123574512277  0.24558760908676974  0.2455876118018387  1.0000
  S   S4        1.0  0.24558755798089366  0.7544123362002881  0.7544124854500996  1.0000
  S   S5        1.0  0.24558767056101208  0.7544123870491403  0.2455875787512246  1.0000
  S   S6        1.0  0.7544124112191116  0.24558765715507444  0.754412370031755  1.0000
