data_image0
_chemical_formula_structural       Au2GeO6
_chemical_formula_sum              "Au2 Ge1 O6"
_cell_length_a       5.281020705444475
_cell_length_b       5.281020586280836
_cell_length_c       5.2810206459733315
_cell_angle_alpha    59.99999851887164
_cell_angle_beta     59.999998245199635
_cell_angle_gamma    59.9999991594663

_space_group_name_H-M_alt    "P 1"
_space_group_IT_number       1

loop_
  _space_group_symop_operation_xyz
  'x, y, z'

loop_
  _atom_site_type_symbol
  _atom_site_label
  _atom_site_symmetry_multiplicity
  _atom_site_fract_x
  _atom_site_fract_y
  _atom_site_fract_z
  _atom_site_occupancy
  Au  Au1       1.0  0.24999999680528506  0.24999980067174246  0.2500000945846799  1.0000
  Au  Au2       1.0  0.750000042509142  0.7499998426526481  0.7500001680452432  1.0000
  Ge  Ge1       1.0  0.9999999971730761  0.9999999953617114  0.9999999923711662  1.0000
  O   O1        1.0  0.2520991094434821  0.25209925948453704  0.7479008366459218  1.0000
  O   O2        1.0  0.7479008566699853  0.7479008592644393  0.25209912261922407  1.0000
  O   O3        1.0  0.7479009338000074  0.2520992452297863  0.2520990844181068  1.0000
  O   O4        1.0  0.25209911626101844  0.7479009430935206  0.7479006882588377  1.0000
  O   O5        1.0  0.2520992572695442  0.7479008340122064  0.2520990866687041  1.0000
  O   O6        1.0  0.7479007240623731  0.2520992128432959  0.747900921763261  1.0000
