data_image0
_chemical_formula_structural       Au2GeO6
_chemical_formula_sum              "Au2 Ge1 O6"
_cell_length_a       5.281575979150911
_cell_length_b       5.281576290940195
_cell_length_c       5.281576663884112
_cell_angle_alpha    59.999996625905446
_cell_angle_beta     59.999996594986676
_cell_angle_gamma    59.99999821784666

_space_group_name_H-M_alt    "P 1"
_space_group_IT_number       1

loop_
  _space_group_symop_operation_xyz
  'x, y, z'

loop_
  _atom_site_type_symbol
  _atom_site_label
  _atom_site_symmetry_multiplicity
  _atom_site_fract_x
  _atom_site_fract_y
  _atom_site_fract_z
  _atom_site_occupancy
  Au  Au1       1.0  0.2500000190920912  0.2500002773654322  0.24999974318905746  1.0000
  Au  Au2       1.0  0.7500002375634615  0.7499997468509384  0.7499995211094762  1.0000
  Ge  Ge1       1.0  7.0665664035283526e-09  1.1594503181474563e-08  0.9999998903206425  1.0000
  O   O1        1.0  0.2520841445316073  0.25208440466962423  0.7479157489832449  1.0000
  O   O2        1.0  0.7479157444309974  0.7479156404168392  0.25208450666428717  1.0000
  O   O3        1.0  0.7479157018097109  0.25208422238929207  0.25208438102752445  1.0000
  O   O4        1.0  0.2520843262602626  0.747915674287549  0.7479158698042663  1.0000
  O   O5        1.0  0.25208410820733274  0.747915633082159  0.2520844842142302  1.0000
  O   O6        1.0  0.7479157163376892  0.25208438881530015  0.7479158985450518  1.0000
