data_image0
_chemical_formula_structural       Au2GeSe6
_chemical_formula_sum              "Au2 Ge1 Se6"
_cell_length_a       6.540855918256254
_cell_length_b       6.540855672084417
_cell_length_c       6.540856305991954
_cell_angle_alpha    59.9999957951777
_cell_angle_beta     59.99999531711999
_cell_angle_gamma    59.9999878047186

_space_group_name_H-M_alt    "P 1"
_space_group_IT_number       1

loop_
  _space_group_symop_operation_xyz
  'x, y, z'

loop_
  _atom_site_type_symbol
  _atom_site_label
  _atom_site_symmetry_multiplicity
  _atom_site_fract_x
  _atom_site_fract_y
  _atom_site_fract_z
  _atom_site_occupancy
  Au  Au1       1.0  0.25000009489303854  0.24999988736103268  0.24999997998093593  1.0000
  Au  Au2       1.0  0.7500000201891021  0.7500000159768819  0.7499996582688948  1.0000
  Ge  Ge1       1.0  3.025385309702863e-07  0.9999999344640891  9.922236265534511e-09  1.0000
  Se  Se1       1.0  0.29297673402695557  0.29297671242214135  0.7070233394768282  1.0000
  Se  Se2       1.0  0.7070231902885276  0.7070231965331527  0.29297691574381657  1.0000
  Se  Se3       1.0  0.7070234964433547  0.292976514562879  0.2929765005929027  1.0000
  Se  Se4       1.0  0.2929766477597148  0.7070233120044287  0.7070236231950138  1.0000
  Se  Se5       1.0  0.29297618731411285  0.7070234828276293  0.2929766886476607  1.0000
  Se  Se6       1.0  0.7070233585089943  0.2929769260728516  0.7070232566437376  1.0000
