data_image0
_chemical_formula_structural       Au2GeS6
_chemical_formula_sum              "Au2 Ge1 S6"
_cell_length_a       6.445647356520925
_cell_length_b       6.44564710886841
_cell_length_c       6.445647291806982
_cell_angle_alpha    59.999998817347794
_cell_angle_beta     59.99999996225527
_cell_angle_gamma    59.99999991732358

_space_group_name_H-M_alt    "P 1"
_space_group_IT_number       1

loop_
  _space_group_symop_operation_xyz
  'x, y, z'

loop_
  _atom_site_type_symbol
  _atom_site_label
  _atom_site_symmetry_multiplicity
  _atom_site_fract_x
  _atom_site_fract_y
  _atom_site_fract_z
  _atom_site_occupancy
  Au  Au1       1.0  0.2499998228603139  0.25000017579378553  0.25000002497202456  1.0000
  Au  Au2       1.0  0.7500000044864183  0.7499998870437524  0.7500000309431943  1.0000
  Ge  Ge1       1.0  1.5380940895478e-08  7.60044659277347e-09  1.3332259233148183e-08  1.0000
  S   S1        1.0  0.25710489005023357  0.25710494711515725  0.7428950349529848  1.0000
  S   S2        1.0  0.7428952242378302  0.7428949428122282  0.25710490033782685  1.0000
  S   S3        1.0  0.742895120837281  0.25710497468365645  0.2571048701218343  1.0000
  S   S4        1.0  0.25710492302254156  0.7428949760472994  0.7428951491044756  1.0000
  S   S5        1.0  0.2571049199422923  0.7428950337142701  0.25710493841400456  1.0000
  S   S6        1.0  0.74289508305581  0.2571050557248324  0.7428950334405264  1.0000
