data_image0
_chemical_formula_structural       Au2HfSe6
_chemical_formula_sum              "Au2 Hf1 Se6"
_cell_length_a       6.585823681708986
_cell_length_b       6.585823128012717
_cell_length_c       6.5858237550955145
_cell_angle_alpha    59.99999841886821
_cell_angle_beta     60.000001678082505
_cell_angle_gamma    60.000003419738455

_space_group_name_H-M_alt    "P 1"
_space_group_IT_number       1

loop_
  _space_group_symop_operation_xyz
  'x, y, z'

loop_
  _atom_site_type_symbol
  _atom_site_label
  _atom_site_symmetry_multiplicity
  _atom_site_fract_x
  _atom_site_fract_y
  _atom_site_fract_z
  _atom_site_occupancy
  Au  Au1       1.0  0.24999994217654256  0.2500000921445985  0.24999997789516565  1.0000
  Au  Au2       1.0  0.7500002048988833  0.749999804077981  0.750000076338792  1.0000
  Hf  Hf1       1.0  0.9999998617557917  0.9999998939988787  1.631198107142254e-07  1.0000
  Se  Se1       1.0  0.2819288194029339  0.2819289250497868  0.7180711255925247  1.0000
  Se  Se2       1.0  0.7180714615925919  0.7180712426844229  0.2819285801579308  1.0000
  Se  Se3       1.0  0.71807130336797  0.2819288245698852  0.2819287829996879  1.0000
  Se  Se4       1.0  0.28192855251478194  0.7180711404604172  0.7180714188686519  1.0000
  Se  Se5       1.0  0.2819287892411107  0.7180710765685172  0.2819288502330801  1.0000
  Se  Se6       1.0  0.718071070801517  0.2819290074805768  0.7180710136947726  1.0000
