data_image0
_chemical_formula_structural       Au2IrO6
_chemical_formula_sum              "Au2 Ir1 O6"
_cell_length_a       5.568346149183357
_cell_length_b       5.568346162465237
_cell_length_c       5.568345905878984
_cell_angle_alpha    60.00000228345154
_cell_angle_beta     60.00000166829006
_cell_angle_gamma    59.99999959477087

_space_group_name_H-M_alt    "P 1"
_space_group_IT_number       1

loop_
  _space_group_symop_operation_xyz
  'x, y, z'

loop_
  _atom_site_type_symbol
  _atom_site_label
  _atom_site_symmetry_multiplicity
  _atom_site_fract_x
  _atom_site_fract_y
  _atom_site_fract_z
  _atom_site_occupancy
  Au  Au1       1.0  0.25000017966109306  0.24999997217470485  0.24999991104275146  1.0000
  Au  Au2       1.0  0.750000129395931  0.750000081484889  0.7500000493950095  1.0000
  Ir  Ir1       1.0  0.9999999830331356  1.979529197041143e-08  0.9999999878105936  1.0000
  O   O1        1.0  0.237185594338878  0.2371856504112102  0.7628144070633771  1.0000
  O   O2        1.0  0.7628144747384005  0.7628142646813454  0.23718556844882663  1.0000
  O   O3        1.0  0.7628143048648691  0.23718569004859194  0.23718557867618822  1.0000
  O   O4        1.0  0.23718549299786612  0.7628143108235667  0.762814484165889  1.0000
  O   O5        1.0  0.23718549675700845  0.7628144453097795  0.23718557670006338  1.0000
  O   O6        1.0  0.7628143557547397  0.23718555336290068  0.7628144275916687  1.0000
