data_image0
_chemical_formula_structural       Au2IrS6
_chemical_formula_sum              "Au2 Ir1 S6"
_cell_length_a       6.307855237201844
_cell_length_b       6.307854245036533
_cell_length_c       6.3078553020784724
_cell_angle_alpha    59.999999133209855
_cell_angle_beta     59.999998180660974
_cell_angle_gamma    60.00000092535848

_space_group_name_H-M_alt    "P 1"
_space_group_IT_number       1

loop_
  _space_group_symop_operation_xyz
  'x, y, z'

loop_
  _atom_site_type_symbol
  _atom_site_label
  _atom_site_symmetry_multiplicity
  _atom_site_fract_x
  _atom_site_fract_y
  _atom_site_fract_z
  _atom_site_occupancy
  Au  Au1       1.0  0.2499999840097522  0.2500001148281974  0.24999993584823552  1.0000
  Au  Au2       1.0  0.750000046337379  0.7500000066429139  0.7499999467500453  1.0000
  Ir  Ir1       1.0  0.9999999867989535  0.9999999242768669  1.0628975785864673e-07  1.0000
  S   S1        1.0  0.25950376176648365  0.25950378842828536  0.740496200722777  1.0000
  S   S2        1.0  0.7404963129776855  0.7404962767358797  0.2595036688065572  1.0000
  S   S3        1.0  0.7404962329261843  0.25950377816568054  0.2595037887248976  1.0000
  S   S4        1.0  0.2595037433571889  0.7404961705013529  0.7404962849882154  1.0000
  S   S5        1.0  0.25950373375793095  0.7404961384300959  0.2595038377495331  1.0000
  S   S6        1.0  0.7404961996830091  0.2595037849958884  0.7404962382988225  1.0000
