data_image0
_chemical_formula_structural       Au2IrSe6
_chemical_formula_sum              "Au2 Ir1 Se6"
_cell_length_a       6.441279469744421
_cell_length_b       6.441280101735854
_cell_length_c       6.4412807457622
_cell_angle_alpha    59.99999587675047
_cell_angle_beta     59.99999346284022
_cell_angle_gamma    60.000002423711194

_space_group_name_H-M_alt    "P 1"
_space_group_IT_number       1

loop_
  _space_group_symop_operation_xyz
  'x, y, z'

loop_
  _atom_site_type_symbol
  _atom_site_label
  _atom_site_symmetry_multiplicity
  _atom_site_fract_x
  _atom_site_fract_y
  _atom_site_fract_z
  _atom_site_occupancy
  Au  Au1       1.0  0.25000014250256064  0.24999982019076694  0.25000002911470376  1.0000
  Au  Au2       1.0  0.7500000164204504  0.7499998978942424  0.7500000323096241  1.0000
  Ir  Ir1       1.0  0.9999999477458618  0.9999997319026216  2.5332493690529723e-07  1.0000
  Se  Se1       1.0  0.2788285044376385  0.2788284911036277  0.7211715198316111  1.0000
  Se  Se2       1.0  0.7211712838339351  0.7211715806417321  0.2788285671656069  1.0000
  Se  Se3       1.0  0.7211714720489473  0.27882867459888966  0.27882831461537305  1.0000
  Se  Se4       1.0  0.278828631854504  0.7211715473570731  0.7211712506981551  1.0000
  Se  Se5       1.0  0.27882862037892325  0.7211715761927336  0.2788285228508814  1.0000
  Se  Se6       1.0  0.7211713806906153  0.2788286799884175  0.7211715037007368  1.0000
