data_image0
_chemical_formula_structural       Au2MgS6
_chemical_formula_sum              "Au2 Mg1 S6"
_cell_length_a       6.463481542691489
_cell_length_b       6.463481678527751
_cell_length_c       6.463481585685677
_cell_angle_alpha    60.00000033659979
_cell_angle_beta     59.99999910743218
_cell_angle_gamma    60.00000069388409

_space_group_name_H-M_alt    "P 1"
_space_group_IT_number       1

loop_
  _space_group_symop_operation_xyz
  'x, y, z'

loop_
  _atom_site_type_symbol
  _atom_site_label
  _atom_site_symmetry_multiplicity
  _atom_site_fract_x
  _atom_site_fract_y
  _atom_site_fract_z
  _atom_site_occupancy
  Au  Au1       1.0  0.2500000617890617  0.2500000119345743  0.2499999874675187  1.0000
  Au  Au2       1.0  0.7499999660984291  0.7499999486397656  0.7500001697692963  1.0000
  Mg  Mg1       1.0  1.3985479139701599e-08  0.9999999848410511  6.556719376876215e-08  1.0000
  S   S1        1.0  0.275333558556179  0.2753335343184119  0.7246664277880003  1.0000
  S   S2        1.0  0.7246665225671871  0.7246663201432854  0.2753335300027455  1.0000
  S   S3        1.0  0.7246664305589419  0.2753335774518247  0.27533346881343335  1.0000
  S   S4        1.0  0.275333544761485  0.7246664229147558  0.7246664379832651  1.0000
  S   S5        1.0  0.27533356081650096  0.7246665285912984  0.2753334593240945  1.0000
  S   S6        1.0  0.7246663385110359  0.27533367831596145  0.724666458009245  1.0000
