data_image0
_chemical_formula_structural       Au2MgSe6
_chemical_formula_sum              "Au2 Mg1 Se6"
_cell_length_a       6.550494858942835
_cell_length_b       6.55049476317058
_cell_length_c       6.550494652419607
_cell_angle_alpha    60.00000022595981
_cell_angle_beta     60.000000442747925
_cell_angle_gamma    60.000001172972674

_space_group_name_H-M_alt    "P 1"
_space_group_IT_number       1

loop_
  _space_group_symop_operation_xyz
  'x, y, z'

loop_
  _atom_site_type_symbol
  _atom_site_label
  _atom_site_symmetry_multiplicity
  _atom_site_fract_x
  _atom_site_fract_y
  _atom_site_fract_z
  _atom_site_occupancy
  Au  Au1       1.0  0.24999998438557658  0.250000008180914  0.2500000071114166  1.0000
  Au  Au2       1.0  0.7499999531567296  0.750000024542742  0.7500000228608523  1.0000
  Mg  Mg1       1.0  0.9999999900282766  2.9915172045940475e-08  0.9999999640760371  1.0000
  Se  Se1       1.0  0.2924422566482781  0.29244242399504444  0.7075577976931808  1.0000
  Se  Se2       1.0  0.7075577504423946  0.7075576592104653  0.29244235087644294  1.0000
  Se  Se3       1.0  0.7075577731963939  0.2924422954692363  0.2924423443864178  1.0000
  Se  Se4       1.0  0.2924422551392308  0.7075576288119221  0.7075576226601338  1.0000
  Se  Se5       1.0  0.29244233461153274  0.7075575883056929  0.2924423722997489  1.0000
  Se  Se6       1.0  0.7075577033566807  0.2924423546724483  0.7075575118849147  1.0000
