data_image0
_chemical_formula_structural       Au2MoO6
_chemical_formula_sum              "Au2 Mo1 O6"
_cell_length_a       5.396250682154679
_cell_length_b       5.396250571100798
_cell_length_c       5.396250450604941
_cell_angle_alpha    59.999999743386276
_cell_angle_beta     60.00000173877564
_cell_angle_gamma    60.000001097696426

_space_group_name_H-M_alt    "P 1"
_space_group_IT_number       1

loop_
  _space_group_symop_operation_xyz
  'x, y, z'

loop_
  _atom_site_type_symbol
  _atom_site_label
  _atom_site_symmetry_multiplicity
  _atom_site_fract_x
  _atom_site_fract_y
  _atom_site_fract_z
  _atom_site_occupancy
  Au  Au1       1.0  0.24999935337356274  0.2499999968860934  0.25000021327529764  1.0000
  Au  Au2       1.0  0.7499998250827853  0.7500000110848966  0.7500002789823179  1.0000
  Mo  Mo1       1.0  0.9999999603595643  0.9999999841126458  2.5910756356654655e-08  1.0000
  O   O1        1.0  0.2538217648899976  0.253821430342634  0.7461784343314807  1.0000
  O   O2        1.0  0.7461785843520334  0.7461784868434966  0.2538213807934706  1.0000
  O   O3        1.0  0.746178625204206  0.25382164707812416  0.2538215066181087  1.0000
  O   O4        1.0  0.2538216536165579  0.7461783722409919  0.7461783890141895  1.0000
  O   O5        1.0  0.2538217024172635  0.7461784714447064  0.2538214879299162  1.0000
  O   O6        1.0  0.7461785425112442  0.2538216046149595  0.7461782702648101  1.0000
