data_image0
_chemical_formula_structural       Au2MnO6
_chemical_formula_sum              "Au2 Mn1 O6"
_cell_length_a       5.43320728605261
_cell_length_b       5.43320714491863
_cell_length_c       5.433207206232666
_cell_angle_alpha    59.99999814268248
_cell_angle_beta     59.99999812690506
_cell_angle_gamma    59.999998802484214

_space_group_name_H-M_alt    "P 1"
_space_group_IT_number       1

loop_
  _space_group_symop_operation_xyz
  'x, y, z'

loop_
  _atom_site_type_symbol
  _atom_site_label
  _atom_site_symmetry_multiplicity
  _atom_site_fract_x
  _atom_site_fract_y
  _atom_site_fract_z
  _atom_site_occupancy
  Au  Au1       1.0  0.2500000521002819  0.2500000826007055  0.2499999597850447  1.0000
  Au  Au2       1.0  0.7500000572128208  0.7499999457414526  0.7499999161219999  1.0000
  Mn  Mn1       1.0  5.624399477497326e-09  2.2541837153751254e-09  4.391457987372677e-08  1.0000
  O   O1        1.0  0.24717102330448035  0.24717105959775906  0.7528289299770081  1.0000
  O   O2        1.0  0.7528289634099615  0.7528288966105078  0.24717111323658927  1.0000
  O   O3        1.0  0.7528289386218777  0.2471710485292125  0.2471710838237013  1.0000
  O   O4        1.0  0.24717104622513666  0.7528288941539497  0.7528289891725646  1.0000
  O   O5        1.0  0.24717097812654176  0.7528289432367608  0.24717105012138094  1.0000
  O   O6        1.0  0.7528289346308239  0.24717113920581377  0.7528289080565281  1.0000
