data_image0
_chemical_formula_structural       Au2MnS6
_chemical_formula_sum              "Au2 Mn1 S6"
_cell_length_a       6.39517714623647
_cell_length_b       6.395178256042561
_cell_length_c       6.395177535866956
_cell_angle_alpha    60.000000750618085
_cell_angle_beta     59.99999973723876
_cell_angle_gamma    59.999999632155856

_space_group_name_H-M_alt    "P 1"
_space_group_IT_number       1

loop_
  _space_group_symop_operation_xyz
  'x, y, z'

loop_
  _atom_site_type_symbol
  _atom_site_label
  _atom_site_symmetry_multiplicity
  _atom_site_fract_x
  _atom_site_fract_y
  _atom_site_fract_z
  _atom_site_occupancy
  Au  Au1       1.0  0.24999986669052926  0.25000006980111505  0.2500000672969232  1.0000
  Au  Au2       1.0  0.7500001187332365  0.7499999642696716  0.7500000526173685  1.0000
  Mn  Mn1       1.0  0.9999999791904584  0.9999999865942554  0.9999999889614347  1.0000
  S   S1        1.0  0.24625769213991258  0.2462576957984446  0.7537422950209196  1.0000
  S   S2        1.0  0.7537423052313866  0.7537422482623353  0.2462576919200038  1.0000
  S   S3        1.0  0.753742367872835  0.24625769315953877  0.24625762092174336  1.0000
  S   S4        1.0  0.24625762252955996  0.7537423638925341  0.7537423239537306  1.0000
  S   S5        1.0  0.24625765075232878  0.7537423173373639  0.2462576508264279  1.0000
  S   S6        1.0  0.7537423707110921  0.24625765736512126  0.7537423196933294  1.0000
