data_image0
_chemical_formula_structural       Au2MgO6
_chemical_formula_sum              "Au2 Mg1 O6"
_cell_length_a       5.290291480908362
_cell_length_b       5.290291500369695
_cell_length_c       5.290291341876115
_cell_angle_alpha    59.9999995712083
_cell_angle_beta     60.00000113798765
_cell_angle_gamma    60.000001375508056

_space_group_name_H-M_alt    "P 1"
_space_group_IT_number       1

loop_
  _space_group_symop_operation_xyz
  'x, y, z'

loop_
  _atom_site_type_symbol
  _atom_site_label
  _atom_site_symmetry_multiplicity
  _atom_site_fract_x
  _atom_site_fract_y
  _atom_site_fract_z
  _atom_site_occupancy
  Au  Au1       1.0  0.25000042376528653  0.24999970360859997  0.24999960127579177  1.0000
  Au  Au2       1.0  0.7499999594866453  0.7500002567904273  0.7499998205356555  1.0000
  Mg  Mg1       1.0  2.9123796957559336e-08  3.7041282650571845e-08  0.9999999574661845  1.0000
  O   O1        1.0  0.26349024967728296  0.26349016722072705  0.7365098153675038  1.0000
  O   O2        1.0  0.7365098592646073  0.7365096797393645  0.2634900914177126  1.0000
  O   O3        1.0  0.7365097255979555  0.26348993073619237  0.2634905000461823  1.0000
  O   O4        1.0  0.26349016035896233  0.7365098583468892  0.7365097607688479  1.0000
  O   O5        1.0  0.2634902018157916  0.7365101164692468  0.2634903331576711  1.0000
  O   O6        1.0  0.7365094085180999  0.263490276849738  0.7365101073773351  1.0000
