data_image0
_chemical_formula_structural       Au2MoSe6
_chemical_formula_sum              "Au2 Mo1 Se6"
_cell_length_a       6.696435820555571
_cell_length_b       6.6964357788336875
_cell_length_c       6.69643588431168
_cell_angle_alpha    60.0000001047972
_cell_angle_beta     60.000000212327016
_cell_angle_gamma    60.00000095407119

_space_group_name_H-M_alt    "P 1"
_space_group_IT_number       1

loop_
  _space_group_symop_operation_xyz
  'x, y, z'

loop_
  _atom_site_type_symbol
  _atom_site_label
  _atom_site_symmetry_multiplicity
  _atom_site_fract_x
  _atom_site_fract_y
  _atom_site_fract_z
  _atom_site_occupancy
  Au  Au1       1.0  0.24999995897807717  0.25000000078894696  0.25000000853324666  1.0000
  Au  Au2       1.0  0.74999997173764  0.750000064551154  0.7499998828926164  1.0000
  Mo  Mo1       1.0  0.9999999712956844  0.9999999981710493  2.7213286616908467e-08  1.0000
  Se  Se1       1.0  0.25472104338637697  0.25472101078694065  0.7452789535826456  1.0000
  Se  Se2       1.0  0.7452789959126884  0.7452789667635447  0.2547210663261997  1.0000
  Se  Se3       1.0  0.7452789391992144  0.254721014926004  0.2547210693668102  1.0000
  Se  Se4       1.0  0.25472106176367915  0.7452789534797293  0.7452789832424869  1.0000
  Se  Se5       1.0  0.254721083122396  0.7452789436609409  0.2547210169765475  1.0000
  Se  Se6       1.0  0.745278977373931  0.2547210375474455  0.7452789875180528  1.0000
