data_image0
_chemical_formula_structural       Au2NiO6
_chemical_formula_sum              "Au2 Ni1 O6"
_cell_length_a       5.2854076023323895
_cell_length_b       5.2854075761576365
_cell_length_c       5.2854074877997785
_cell_angle_alpha    59.99999920499506
_cell_angle_beta     60.00000027744268
_cell_angle_gamma    59.999999013233506

_space_group_name_H-M_alt    "P 1"
_space_group_IT_number       1

loop_
  _space_group_symop_operation_xyz
  'x, y, z'

loop_
  _atom_site_type_symbol
  _atom_site_label
  _atom_site_symmetry_multiplicity
  _atom_site_fract_x
  _atom_site_fract_y
  _atom_site_fract_z
  _atom_site_occupancy
  Au  Au1       1.0  0.2499998148339904  0.250000206968901  0.2500001079637531  1.0000
  Au  Au2       1.0  0.7499997377059072  0.7499998330521184  0.7500001360561976  1.0000
  Ni  Ni1       1.0  4.022944673091524e-08  0.9999999907311222  0.9999999826277137  1.0000
  O   O1        1.0  0.24403285191501453  0.24403286440976035  0.7559671238214355  1.0000
  O   O2        1.0  0.7559671796032595  0.7559671478046233  0.2440329021806506  1.0000
  O   O3        1.0  0.7559671458655957  0.2440329504206821  0.24403268777540935  1.0000
  O   O4        1.0  0.24403298522099562  0.7559671104553086  0.7559672111356659  1.0000
  O   O5        1.0  0.24403284629312733  0.7559670293740606  0.24403280213753428  1.0000
  O   O6        1.0  0.7559673996358146  0.2440328901515482  0.7559670343474891  1.0000
