data_image0
_chemical_formula_structural       Au2NiS6
_chemical_formula_sum              "Au2 Ni1 S6"
_cell_length_a       6.363628938372778
_cell_length_b       6.363628767185914
_cell_length_c       6.363628941296449
_cell_angle_alpha    60.0000000391806
_cell_angle_beta     59.999999834458
_cell_angle_gamma    60.00000101530342

_space_group_name_H-M_alt    "P 1"
_space_group_IT_number       1

loop_
  _space_group_symop_operation_xyz
  'x, y, z'

loop_
  _atom_site_type_symbol
  _atom_site_label
  _atom_site_symmetry_multiplicity
  _atom_site_fract_x
  _atom_site_fract_y
  _atom_site_fract_z
  _atom_site_occupancy
  Au  Au1       1.0  0.25000008619911424  0.24999999125145342  0.2500000145300415  1.0000
  Au  Au2       1.0  0.7499998871120741  0.7500000430400036  0.7500001742613428  1.0000
  Ni  Ni1       1.0  0.9999999732946055  3.6567427374777714e-08  1.443548722344613e-07  1.0000
  S   S1        1.0  0.23999286159276428  0.23999283171008215  0.7600070712989808  1.0000
  S   S2        1.0  0.7600071918346069  0.7600070928790935  0.23999276457073682  1.0000
  S   S3        1.0  0.7600070937289763  0.23999285668048778  0.23999292646246234  1.0000
  S   S4        1.0  0.23999296558226757  0.7600070448134731  0.760007067298815  1.0000
  S   S5        1.0  0.23999294476962293  0.7600071640507675  0.23999278870154672  1.0000
  S   S6        1.0  0.7600070111100857  0.23999292797872684  0.7600070782219214  1.0000
