data_image0
_chemical_formula_structural       Au2NbS6
_chemical_formula_sum              "Au2 Nb1 S6"
_cell_length_a       6.352039277017478
_cell_length_b       6.352011878904188
_cell_length_c       6.351993968823132
_cell_angle_alpha    60.000107585603864
_cell_angle_beta     60.000237796583896
_cell_angle_gamma    60.00000826889729

_space_group_name_H-M_alt    "P 1"
_space_group_IT_number       1

loop_
  _space_group_symop_operation_xyz
  'x, y, z'

loop_
  _atom_site_type_symbol
  _atom_site_label
  _atom_site_symmetry_multiplicity
  _atom_site_fract_x
  _atom_site_fract_y
  _atom_site_fract_z
  _atom_site_occupancy
  Au  Au1       1.0  0.24999914812675716  0.24999834146238098  0.25000050575668753  1.0000
  Au  Au2       1.0  0.7500014761836712  0.7500043449213135  0.7499950016818394  1.0000
  Nb  Nb1       1.0  1.1496726019012126e-06  4.66604733846039e-07  0.9999975104996006  1.0000
  S   S1        1.0  0.26552760609935455  0.2655315583493526  0.7344699765193828  1.0000
  S   S2        1.0  0.7344719056078258  0.7344727534400892  0.2655249061297956  1.0000
  S   S3        1.0  0.7344732453501348  0.26552857173776157  0.2655300099895154  1.0000
  S   S4        1.0  0.26552317211960824  0.7344710508643915  0.7344779299973069  1.0000
  S   S5        1.0  0.26552716723273073  0.7344676886609124  0.2655289031655022  1.0000
  S   S6        1.0  0.7344744359739364  0.26552643301174417  0.7344744777879197  1.0000
