data_image0
_chemical_formula_structural       Au2NbO6
_chemical_formula_sum              "Au2 Nb1 O6"
_cell_length_a       5.430171483809009
_cell_length_b       5.430170990824002
_cell_length_c       5.430170948503257
_cell_angle_alpha    60.00000142509262
_cell_angle_beta     60.00000465878678
_cell_angle_gamma    60.00000083285866

_space_group_name_H-M_alt    "P 1"
_space_group_IT_number       1

loop_
  _space_group_symop_operation_xyz
  'x, y, z'

loop_
  _atom_site_type_symbol
  _atom_site_label
  _atom_site_symmetry_multiplicity
  _atom_site_fract_x
  _atom_site_fract_y
  _atom_site_fract_z
  _atom_site_occupancy
  Au  Au1       1.0  0.2499998631633702  0.2500002354500983  0.2500001057648184  1.0000
  Au  Au2       1.0  0.7500003307971038  0.7499999688199853  0.750000088893909  1.0000
  Nb  Nb1       1.0  0.9999999412332619  0.9999999594020006  6.62564316472539e-08  1.0000
  O   O1        1.0  0.26120508595901215  0.2612052263560197  0.738794928368909  1.0000
  O   O2        1.0  0.7387950402388785  0.7387947027498438  0.2612049294819254  1.0000
  O   O3        1.0  0.7387945827739275  0.2612052673772664  0.2612051261266285  1.0000
  O   O4        1.0  0.261205113404938  0.7387948353978102  0.7387947788703526  1.0000
  O   O5        1.0  0.2612049691457755  0.7387947504046415  0.26120533423690745  1.0000
  O   O6        1.0  0.7387950689462732  0.2612050411191134  0.7387946290916497  1.0000
