data_image0
_chemical_formula_structural       Au2NiSe6
_chemical_formula_sum              "Au2 Ni1 Se6"
_cell_length_a       6.520406111203881
_cell_length_b       6.520405646101666
_cell_length_c       6.520406043822327
_cell_angle_alpha    59.99999810158631
_cell_angle_beta     59.99999737016152
_cell_angle_gamma    59.99999721990146

_space_group_name_H-M_alt    "P 1"
_space_group_IT_number       1

loop_
  _space_group_symop_operation_xyz
  'x, y, z'

loop_
  _atom_site_type_symbol
  _atom_site_label
  _atom_site_symmetry_multiplicity
  _atom_site_fract_x
  _atom_site_fract_y
  _atom_site_fract_z
  _atom_site_occupancy
  Au  Au1       1.0  0.24999994535490624  0.24999990390075447  0.25000008195907397  1.0000
  Au  Au2       1.0  0.7500000727179886  0.7499999314664346  0.7500001020190713  1.0000
  Ni  Ni1       1.0  3.7207389880044824e-08  0.9999999680684543  4.183783485258007e-08  1.0000
  Se  Se1       1.0  0.2488467239586395  0.24884672682274864  0.7511532257166796  1.0000
  Se  Se2       1.0  0.7511532359935751  0.751153277593799  0.24884660220235127  1.0000
  Se  Se3       1.0  0.7511532974278798  0.2488467506259404  0.24884668868535892  1.0000
  Se  Se4       1.0  0.24884658197114537  0.7511534848247382  0.7511532725691707  1.0000
  Se  Se5       1.0  0.24884679916383434  0.7511532343223163  0.24884680739026865  1.0000
  Se  Se6       1.0  0.7511533206177534  0.24884671562277277  0.7511532009641181  1.0000
