data_image0
_chemical_formula_structural       Au2NbSe6
_chemical_formula_sum              "Au2 Nb1 Se6"
_cell_length_a       6.524665927390104
_cell_length_b       6.524665852032876
_cell_length_c       6.524665972509979
_cell_angle_alpha    60.00000138283828
_cell_angle_beta     60.000000837200574
_cell_angle_gamma    59.99999966616791

_space_group_name_H-M_alt    "P 1"
_space_group_IT_number       1

loop_
  _space_group_symop_operation_xyz
  'x, y, z'

loop_
  _atom_site_type_symbol
  _atom_site_label
  _atom_site_symmetry_multiplicity
  _atom_site_fract_x
  _atom_site_fract_y
  _atom_site_fract_z
  _atom_site_occupancy
  Au  Au1       1.0  0.25000003891916633  0.2499999553529899  0.2499999755004416  1.0000
  Au  Au2       1.0  0.7499999352924244  0.7500000706628462  0.7500000498047301  1.0000
  Nb  Nb1       1.0  8.614714137329506e-08  0.9999999061450121  1.9180377604323976e-08  1.0000
  Se  Se1       1.0  0.2732063609235541  0.2732061336735291  0.7267937892870184  1.0000
  Se  Se2       1.0  0.7267936916415576  0.7267937740850222  0.2732062513720977  1.0000
  Se  Se3       1.0  0.7267937261385075  0.2732063102872358  0.2732063338541433  1.0000
  Se  Se4       1.0  0.27320633763394564  0.7267936594156077  0.7267937131432314  1.0000
  Se  Se5       1.0  0.27320619784858924  0.7267938199303143  0.2732062375398574  1.0000
  Se  Se6       1.0  0.7267936418775158  0.27320636000769893  0.7267935956621543  1.0000
