data_image0
_chemical_formula_structural       Au2OsS6
_chemical_formula_sum              "Au2 Os1 S6"
_cell_length_a       6.312876652496376
_cell_length_b       6.312876513719822
_cell_length_c       6.312876314477302
_cell_angle_alpha    60.0000007085414
_cell_angle_beta     60.00000145300111
_cell_angle_gamma    59.99999943080369

_space_group_name_H-M_alt    "P 1"
_space_group_IT_number       1

loop_
  _space_group_symop_operation_xyz
  'x, y, z'

loop_
  _atom_site_type_symbol
  _atom_site_label
  _atom_site_symmetry_multiplicity
  _atom_site_fract_x
  _atom_site_fract_y
  _atom_site_fract_z
  _atom_site_occupancy
  Au  Au1       1.0  0.2500000887708626  0.24999985230557534  0.2500000460887602  1.0000
  Au  Au2       1.0  0.7499999461372701  0.7499998809091164  0.7500002044724955  1.0000
  Os  Os1       1.0  1.7812569739138725e-08  0.9999998971760682  1.5339016009405816e-07  1.0000
  S   S1        1.0  0.26440232740670483  0.2644023426828326  0.7355976581875103  1.0000
  S   S2        1.0  0.7355975825409563  0.7355978367489214  0.26440225433028297  1.0000
  S   S3        1.0  0.7355976554647681  0.2644023564720879  0.26440221485965976  1.0000
  S   S4        1.0  0.26440227042826886  0.7355977860982569  0.735597651089847  1.0000
  S   S5        1.0  0.26440237978168346  0.7355977698630578  0.2644021602008125  1.0000
  S   S6        1.0  0.7355977150941436  0.2644022718234282  0.7355976416020126  1.0000
