data_image0
_chemical_formula_structural       Au2OsSe6
_chemical_formula_sum              "Au2 Os1 Se6"
_cell_length_a       6.439429358334399
_cell_length_b       6.43943003856735
_cell_length_c       6.439429745320218
_cell_angle_alpha    60.00000042457999
_cell_angle_beta     59.99999422922756
_cell_angle_gamma    59.99999630322204

_space_group_name_H-M_alt    "P 1"
_space_group_IT_number       1

loop_
  _space_group_symop_operation_xyz
  'x, y, z'

loop_
  _atom_site_type_symbol
  _atom_site_label
  _atom_site_symmetry_multiplicity
  _atom_site_fract_x
  _atom_site_fract_y
  _atom_site_fract_z
  _atom_site_occupancy
  Au  Au1       1.0  0.24999992964415388  0.2499999416220138  0.2500001044565165  1.0000
  Au  Au2       1.0  0.7500000186883303  0.7500001577065901  0.7499998814368749  1.0000
  Os  Os1       1.0  8.496907178836648e-08  0.9999999010987999  0.9999998749667965  1.0000
  Se  Se1       1.0  0.2770872093427211  0.2770870177010798  0.7229128304298672  1.0000
  Se  Se2       1.0  0.7229129078401589  0.7229129408835061  0.27708705444610937  1.0000
  Se  Se3       1.0  0.7229127932951128  0.2770869706993753  0.2770873928448239  1.0000
  Se  Se4       1.0  0.27708710443396933  0.7229128984937577  0.7229129057935195  1.0000
  Se  Se5       1.0  0.277087159784058  0.7229129394314685  0.2770871691115344  1.0000
  Se  Se6       1.0  0.7229127919886716  0.27708723026913956  0.7229127814286641  1.0000
