data_image0
_chemical_formula_structural       Au2OsO6
_chemical_formula_sum              "Au2 Os1 O6"
_cell_length_a       5.536446748639948
_cell_length_b       5.536446777107522
_cell_length_c       5.5364467759316875
_cell_angle_alpha    59.99999966776755
_cell_angle_beta     59.9999997701692
_cell_angle_gamma    59.99999972548971

_space_group_name_H-M_alt    "P 1"
_space_group_IT_number       1

loop_
  _space_group_symop_operation_xyz
  'x, y, z'

loop_
  _atom_site_type_symbol
  _atom_site_label
  _atom_site_symmetry_multiplicity
  _atom_site_fract_x
  _atom_site_fract_y
  _atom_site_fract_z
  _atom_site_occupancy
  Au  Au1       1.0  0.2500000007500551  0.2500000039279395  0.24999999545507204  1.0000
  Au  Au2       1.0  0.7500000115831169  0.749999996298771  0.7499999966661146  1.0000
  Os  Os1       1.0  4.297784349926117e-09  0.999999993363551  6.587970156508134e-09  1.0000
  O   O1        1.0  0.23835716859043618  0.2383571798550218  0.7616428275869038  1.0000
  O   O2        1.0  0.761642831839796  0.7616428247959879  0.2383571700798158  1.0000
  O   O3        1.0  0.7616428263024351  0.2383571710263965  0.2383571733506386  1.0000
  O   O4        1.0  0.23835716664915652  0.7616428247760146  0.7616428306734879  1.0000
  O   O5        1.0  0.23835717827731745  0.7616428222322065  0.238357177907508  1.0000
  O   O6        1.0  0.7616428081643399  0.2383571868431026  0.7616428191227113  1.0000
