data_image0
_chemical_formula_structural       Au2PSe6
_chemical_formula_sum              "Au2 P1 Se6"
_cell_length_a       6.5100721494767
_cell_length_b       6.510072009955957
_cell_length_c       6.5100719492431915
_cell_angle_alpha    59.99999791969069
_cell_angle_beta     59.99999867791965
_cell_angle_gamma    59.99999942465232

_space_group_name_H-M_alt    "P 1"
_space_group_IT_number       1

loop_
  _space_group_symop_operation_xyz
  'x, y, z'

loop_
  _atom_site_type_symbol
  _atom_site_label
  _atom_site_symmetry_multiplicity
  _atom_site_fract_x
  _atom_site_fract_y
  _atom_site_fract_z
  _atom_site_occupancy
  Au  Au1       1.0  0.24999998830149878  0.2499999868721893  0.25000004270775195  1.0000
  Au  Au2       1.0  0.7500000280941737  0.75000002646234  0.7500000774302609  1.0000
  P   P1        1.0  0.9999999723552745  0.9999999924747693  0.9999999822551081  1.0000
  Se  Se1       1.0  0.24778228615537984  0.24778223570375446  0.7522177441570621  1.0000
  Se  Se2       1.0  0.752217749465288  0.7522177305980847  0.24778219480246913  1.0000
  Se  Se3       1.0  0.7522177383775912  0.2477822932818235  0.2477822486751609  1.0000
  Se  Se4       1.0  0.24778221237220924  0.7522177520349395  0.7522177454391078  1.0000
  Se  Se5       1.0  0.24778227494658037  0.7522177330160486  0.24778221732540973  1.0000
  Se  Se6       1.0  0.7522177574309801  0.2477822483362519  0.7522177556685594  1.0000
