data_image0
_chemical_formula_structural       Au2PS6
_chemical_formula_sum              "Au2 P1 S6"
_cell_length_a       6.452921779944734
_cell_length_b       6.452921273192623
_cell_length_c       6.452921829204381
_cell_angle_alpha    59.999998702689744
_cell_angle_beta     60.00000046893986
_cell_angle_gamma    59.99999876414074

_space_group_name_H-M_alt    "P 1"
_space_group_IT_number       1

loop_
  _space_group_symop_operation_xyz
  'x, y, z'

loop_
  _atom_site_type_symbol
  _atom_site_label
  _atom_site_symmetry_multiplicity
  _atom_site_fract_x
  _atom_site_fract_y
  _atom_site_fract_z
  _atom_site_occupancy
  Au  Au1       1.0  0.2500000502110004  0.2500000625273488  0.24999990537339725  1.0000
  Au  Au2       1.0  0.7500000765659136  0.7499999427439568  0.7499999360105153  1.0000
  P   P1        1.0  7.157690967093109e-09  0.9999999999999988  0.9999999111884474  1.0000
  S   S1        1.0  0.2382124806227443  0.2382125184441438  0.7617874488958308  1.0000
  S   S2        1.0  0.761787446262927  0.7617874906231005  0.23821253857598623  1.0000
  S   S3        1.0  0.7617875485208441  0.23821253349303634  0.23821247123596756  1.0000
  S   S4        1.0  0.23821249216530735  0.7617874509006051  0.7617876266409704  1.0000
  S   S5        1.0  0.2382124001819799  0.7617875114373533  0.23821255042539413  1.0000
  S   S6        1.0  0.7617875269207854  0.23821248624207506  0.7617875976003431  1.0000
