data_image0
_chemical_formula_structural       Au2PbSe6
_chemical_formula_sum              "Au2 Pb1 Se6"
_cell_length_a       6.89270746640486
_cell_length_b       6.892707096372186
_cell_length_c       6.8927074830308745
_cell_angle_alpha    59.99999980403768
_cell_angle_beta     59.99999911548259
_cell_angle_gamma    60.0000004324313

_space_group_name_H-M_alt    "P 1"
_space_group_IT_number       1

loop_
  _space_group_symop_operation_xyz
  'x, y, z'

loop_
  _atom_site_type_symbol
  _atom_site_label
  _atom_site_symmetry_multiplicity
  _atom_site_fract_x
  _atom_site_fract_y
  _atom_site_fract_z
  _atom_site_occupancy
  Au  Au1       1.0  0.25000004541973525  0.24999995997920224  0.25000000014685336  1.0000
  Au  Au2       1.0  0.7499999769216961  0.7500000363022182  0.7499999946729684  1.0000
  Pb  Pb1       1.0  0.9999999476259054  8.173605130452556e-08  1.5361283249967115e-07  1.0000
  Se  Se1       1.0  0.30572115910503567  0.30572119707549095  0.694278968526303  1.0000
  Se  Se2       1.0  0.694278802881082  0.6942785380059541  0.3057214989950315  1.0000
  Se  Se3       1.0  0.6942789477295889  0.3057212299330721  0.30572100712410294  1.0000
  Se  Se4       1.0  0.3057216186355879  0.6942783203538239  0.6942785585692194  1.0000
  Se  Se5       1.0  0.30572108043943735  0.694278853807173  0.30572127389581083  1.0000
  Se  Se6       1.0  0.694278420719034  0.30572179636262414  0.6942785356050004  1.0000
