data_image0
_chemical_formula_structural       Au2PdO6
_chemical_formula_sum              "Au2 Pd1 O6"
_cell_length_a       5.422305488789767
_cell_length_b       5.422305551986828
_cell_length_c       5.422305515740932
_cell_angle_alpha    59.999998514040165
_cell_angle_beta     59.99999903185083
_cell_angle_gamma    59.99999799963729

_space_group_name_H-M_alt    "P 1"
_space_group_IT_number       1

loop_
  _space_group_symop_operation_xyz
  'x, y, z'

loop_
  _atom_site_type_symbol
  _atom_site_label
  _atom_site_symmetry_multiplicity
  _atom_site_fract_x
  _atom_site_fract_y
  _atom_site_fract_z
  _atom_site_occupancy
  Au  Au1       1.0  0.2500002397123793  0.24999997352805306  0.2499997839073167  1.0000
  Au  Au2       1.0  0.7499999906135033  0.7500003045659013  0.7500000477553418  1.0000
  Pd  Pd1       1.0  1.7575180605064316e-08  0.9999999344972312  8.851198357223327e-08  1.0000
  O   O1        1.0  0.2518375429613782  0.2518373405571494  0.7481625155185632  1.0000
  O   O2        1.0  0.7481625667818781  0.7481626348688506  0.2518372953959108  1.0000
  O   O3        1.0  0.7481625859684102  0.2518374073747181  0.2518373990462973  1.0000
  O   O4        1.0  0.2518373163940685  0.7481624618916252  0.7481627124886456  1.0000
  O   O5        1.0  0.25183733642641604  0.7481626055120617  0.2518373807870136  1.0000
  O   O6        1.0  0.7481624268480379  0.2518373360331994  0.7481627659967168  1.0000
