data_image0
_chemical_formula_structural       Au2PdSe6
_chemical_formula_sum              "Au2 Pd1 Se6"
_cell_length_a       6.4716574258813155
_cell_length_b       6.4716573260140295
_cell_length_c       6.471657856799522
_cell_angle_alpha    60.00000026603805
_cell_angle_beta     59.99999652316022
_cell_angle_gamma    60.00000054996406

_space_group_name_H-M_alt    "P 1"
_space_group_IT_number       1

loop_
  _space_group_symop_operation_xyz
  'x, y, z'

loop_
  _atom_site_type_symbol
  _atom_site_label
  _atom_site_symmetry_multiplicity
  _atom_site_fract_x
  _atom_site_fract_y
  _atom_site_fract_z
  _atom_site_occupancy
  Au  Au1       1.0  0.24999985957147075  0.25000006194397045  0.2500001168803509  1.0000
  Au  Au2       1.0  0.749999950579084  0.7499999909069968  0.7499999392245509  1.0000
  Pd  Pd1       1.0  0.9999999890038007  1.4004314318516767e-07  9.154164204924072e-08  1.0000
  Se  Se1       1.0  0.28669196417444404  0.28669185685448145  0.7133081168520764  1.0000
  Se  Se2       1.0  0.7133080769752829  0.7133080275662333  0.2866920145870982  1.0000
  Se  Se3       1.0  0.7133081704526415  0.28669183007463017  0.2866918938342745  1.0000
  Se  Se4       1.0  0.28669201215626483  0.7133080903031019  0.7133079804700977  1.0000
  Se  Se5       1.0  0.28669194602158643  0.7133080000346776  0.28669192242161157  1.0000
  Se  Se6       1.0  0.7133080451136513  0.28669198090224396  0.7133079586224369  1.0000
