data_image0
_chemical_formula_structural       Au2RuO6
_chemical_formula_sum              "Au2 Ru1 O6"
_cell_length_a       5.543719098382714
_cell_length_b       5.543718887788396
_cell_length_c       5.543719255682413
_cell_angle_alpha    59.99999998720113
_cell_angle_beta     59.99999832843456
_cell_angle_gamma    60.000001333144475

_space_group_name_H-M_alt    "P 1"
_space_group_IT_number       1

loop_
  _space_group_symop_operation_xyz
  'x, y, z'

loop_
  _atom_site_type_symbol
  _atom_site_label
  _atom_site_symmetry_multiplicity
  _atom_site_fract_x
  _atom_site_fract_y
  _atom_site_fract_z
  _atom_site_occupancy
  Au  Au1       1.0  0.25000018313914685  0.2500002751072395  0.24999971628189213  1.0000
  Au  Au2       1.0  0.7499998851715559  0.750000268591263  0.7499998242721941  1.0000
  Ru  Ru1       1.0  0.9999999675977027  9.720689979415974e-08  0.9999999062670335  1.0000
  O   O1        1.0  0.23746414009460537  0.23746411084962082  0.7625359230041149  1.0000
  O   O2        1.0  0.7625359247545032  0.7625358496074753  0.23746418688946405  1.0000
  O   O3        1.0  0.7625358481916145  0.23746397118845394  0.23746414643194508  1.0000
  O   O4        1.0  0.23746420616372316  0.7625357020664285  0.7625360365482095  1.0000
  O   O5        1.0  0.2374639974121179  0.7625358400595784  0.23746412189744473  1.0000
  O   O6        1.0  0.762535847516207  0.23746389284498814  0.762536110717572  1.0000
