data_image0
_chemical_formula_structural       Au2RhO6
_chemical_formula_sum              "Au2 Rh1 O6"
_cell_length_a       5.47275440747531
_cell_length_b       5.4727544470928615
_cell_length_c       5.472754214896919
_cell_angle_alpha    59.99999997720515
_cell_angle_beta     59.999998766864444
_cell_angle_gamma    59.99999986453465

_space_group_name_H-M_alt    "P 1"
_space_group_IT_number       1

loop_
  _space_group_symop_operation_xyz
  'x, y, z'

loop_
  _atom_site_type_symbol
  _atom_site_label
  _atom_site_symmetry_multiplicity
  _atom_site_fract_x
  _atom_site_fract_y
  _atom_site_fract_z
  _atom_site_occupancy
  Au  Au1       1.0  0.25000015252094643  0.2500001986704216  0.24999977379299881  1.0000
  Au  Au2       1.0  0.7500000804565559  0.749999828413348  0.7500002335965481  1.0000
  Rh  Rh1       1.0  1.0790141879388601e-07  1.320357962069559e-07  0.9999994049506714  1.0000
  O   O1        1.0  0.2475727228519314  0.24757296099474477  0.7524271390646811  1.0000
  O   O2        1.0  0.7524270405121201  0.7524270190932372  0.24757271915641707  1.0000
  O   O3        1.0  0.7524269139690908  0.2475731393642394  0.24757300149116077  1.0000
  O   O4        1.0  0.24757285710680593  0.7524270264690065  0.7524273410616431  1.0000
  O   O5        1.0  0.24757308444944104  0.7524267861282318  0.24757315321753612  1.0000
  O   O6        1.0  0.7524270889023129  0.24757290079552796  0.7524272185159122  1.0000
