data_image0
_chemical_formula_structural       Au2ReSe6
_chemical_formula_sum              "Au2 Re1 Se6"
_cell_length_a       6.529829239045151
_cell_length_b       6.529828999215981
_cell_length_c       6.5298292813878165
_cell_angle_alpha    59.99999882172585
_cell_angle_beta     59.99999945515947
_cell_angle_gamma    60.000000158441516

_space_group_name_H-M_alt    "P 1"
_space_group_IT_number       1

loop_
  _space_group_symop_operation_xyz
  'x, y, z'

loop_
  _atom_site_type_symbol
  _atom_site_label
  _atom_site_symmetry_multiplicity
  _atom_site_fract_x
  _atom_site_fract_y
  _atom_site_fract_z
  _atom_site_occupancy
  Au  Au1       1.0  0.24999997405874394  0.2500000179151453  0.24999999303722154  1.0000
  Au  Au2       1.0  0.7499999766915957  0.7500000387405121  0.7499998858476313  1.0000
  Re  Re1       1.0  0.999999970581707  0.9999999662389192  0.9999999672694755  1.0000
  Se  Se1       1.0  0.2684693140811994  0.26846917665014153  0.7315307573240835  1.0000
  Se  Se2       1.0  0.7315306733785158  0.7315307168269635  0.2684693272186829  1.0000
  Se  Se3       1.0  0.7315308161504012  0.2684692133015772  0.2684692583843533  1.0000
  Se  Se4       1.0  0.2684692490245698  0.7315308396028519  0.7315307964102722  1.0000
  Se  Se5       1.0  0.268469185591581  0.7315307851889965  0.2684692683150893  1.0000
  Se  Se6       1.0  0.7315308470390712  0.26846924333242944  0.7315307307143488  1.0000
