data_image0
_chemical_formula_structural       Au2ReS6
_chemical_formula_sum              "Au2 Re1 S6"
_cell_length_a       6.33316136272843
_cell_length_b       6.333161424422172
_cell_length_c       6.333160965383888
_cell_angle_alpha    60.00000187226321
_cell_angle_beta     60.000002906650984
_cell_angle_gamma    60.000000020802844

_space_group_name_H-M_alt    "P 1"
_space_group_IT_number       1

loop_
  _space_group_symop_operation_xyz
  'x, y, z'

loop_
  _atom_site_type_symbol
  _atom_site_label
  _atom_site_symmetry_multiplicity
  _atom_site_fract_x
  _atom_site_fract_y
  _atom_site_fract_z
  _atom_site_occupancy
  Au  Au1       1.0  0.2500000417087704  0.24999995640582456  0.2499999837265348  1.0000
  Au  Au2       1.0  0.7500000894510085  0.7499999871829433  0.7499999921420182  1.0000
  Re  Re1       1.0  1.6936845921933147e-09  3.867720345634999e-08  0.9999999450767683  1.0000
  S   S1        1.0  0.26005949515712123  0.2600596911023856  0.7399404192530876  1.0000
  S   S2        1.0  0.7399403598591451  0.7399403917243186  0.26005961717329923  1.0000
  S   S3        1.0  0.7399404701902499  0.2600594914078195  0.2600595438535874  1.0000
  S   S4        1.0  0.2600595233781222  0.7399404328423499  0.7399404252144886  1.0000
  S   S5        1.0  0.2600595454166831  0.7399405242316092  0.26005954648900964  1.0000
  S   S6        1.0  0.7399404449822601  0.2600595025131478  0.7399404929197528  1.0000
