data_image0
_chemical_formula_structural       Au2RuS6
_chemical_formula_sum              "Au2 Ru1 S6"
_cell_length_a       6.273525071624805
_cell_length_b       6.273525251148869
_cell_length_c       6.273525266283297
_cell_angle_alpha    60.00000106223899
_cell_angle_beta     60.00000172187716
_cell_angle_gamma    60.000002054493564

_space_group_name_H-M_alt    "P 1"
_space_group_IT_number       1

loop_
  _space_group_symop_operation_xyz
  'x, y, z'

loop_
  _atom_site_type_symbol
  _atom_site_label
  _atom_site_symmetry_multiplicity
  _atom_site_fract_x
  _atom_site_fract_y
  _atom_site_fract_z
  _atom_site_occupancy
  Au  Au1       1.0  0.2499999433874262  0.24999985499511326  0.2500000056422408  1.0000
  Au  Au2       1.0  0.749999999024499  0.7500000081446027  0.7499999579860059  1.0000
  Ru  Ru1       1.0  0.9999999225101094  0.9999999453371827  0.9999999656543446  1.0000
  S   S1        1.0  0.26259652980773324  0.26259640458017447  0.7374035809691427  1.0000
  S   S2        1.0  0.7374035417965196  0.7374036010733144  0.26259650981607663  1.0000
  S   S3        1.0  0.7374035978749023  0.2625964627422549  0.2625964457136839  1.0000
  S   S4        1.0  0.26259646534296666  0.737403628809945  0.7374035282093667  1.0000
  S   S5        1.0  0.26259643720457276  0.7374036627341749  0.2625964123190831  1.0000
  S   S6        1.0  0.737403594407422  0.2625964132000772  0.7374035820278774  1.0000
