data_image0
_chemical_formula_structural       Au2SnS6
_chemical_formula_sum              "Au2 Sn1 S6"
_cell_length_a       6.50635372023859
_cell_length_b       6.506354024482318
_cell_length_c       6.506353744334939
_cell_angle_alpha    60.0000009098473
_cell_angle_beta     60.00000264900407
_cell_angle_gamma    60.00000293957987

_space_group_name_H-M_alt    "P 1"
_space_group_IT_number       1

loop_
  _space_group_symop_operation_xyz
  'x, y, z'

loop_
  _atom_site_type_symbol
  _atom_site_label
  _atom_site_symmetry_multiplicity
  _atom_site_fract_x
  _atom_site_fract_y
  _atom_site_fract_z
  _atom_site_occupancy
  Au  Au1       1.0  0.25000007628847526  0.2499998566717781  0.24999991603134855  1.0000
  Au  Au2       1.0  0.7500000736303521  0.7500001102591701  0.7500000136034894  1.0000
  Sn  Sn1       1.0  2.9705973824997107e-08  0.9999999002337144  9.34346050613998e-08  1.0000
  S   S1        1.0  0.2746286000978396  0.27462853048363767  0.7253715171123974  1.0000
  S   S2        1.0  0.725371425230158  0.7253715173897656  0.2746284927510735  1.0000
  S   S3        1.0  0.7253714428245058  0.27462853123444686  0.27462862831357354  1.0000
  S   S4        1.0  0.27462846121302875  0.725371486520831  0.7253714434215567  1.0000
  S   S5        1.0  0.274628449884393  0.7253715785774941  0.2746285053856341  1.0000
  S   S6        1.0  0.725371440761148  0.27462849000211986  0.7253714031591632  1.0000
