data_image0
_chemical_formula_structural       Au2SeO6
_chemical_formula_sum              "Au2 Se1 O6"
_cell_length_a       5.282692469789957
_cell_length_b       5.282692485913818
_cell_length_c       5.282692470162705
_cell_angle_alpha    59.999999413394875
_cell_angle_beta     59.99999923327878
_cell_angle_gamma    59.999997698617484

_space_group_name_H-M_alt    "P 1"
_space_group_IT_number       1

loop_
  _space_group_symop_operation_xyz
  'x, y, z'

loop_
  _atom_site_type_symbol
  _atom_site_label
  _atom_site_symmetry_multiplicity
  _atom_site_fract_x
  _atom_site_fract_y
  _atom_site_fract_z
  _atom_site_occupancy
  Au  Au1       1.0  0.2500002568232576  0.2500001162101607  0.24999980599656968  1.0000
  Au  Au2       1.0  0.7500001011323382  0.7499998385802227  0.7499999906467957  1.0000
  Se  Se1       1.0  1.7007329570229654e-07  6.027866482606492e-08  0.9999999302553967  1.0000
  O   O1        1.0  0.24678876643841602  0.2467889091849543  0.7532111518819148  1.0000
  O   O2        1.0  0.7532110879606806  0.7532111267498018  0.246788910863765  1.0000
  O   O3        1.0  0.7532109926810052  0.24678891556494698  0.24678883635548868  1.0000
  O   O4        1.0  0.24678880029549666  0.7532110554543213  0.7532112081613471  1.0000
  O   O5        1.0  0.24678877557431259  0.7532111019752494  0.2467889069028612  1.0000
  O   O6        1.0  0.7532110223912861  0.24678891309381457  0.7532112456027146  1.0000
