data_image0
_chemical_formula_structural       Au2SiO6
_chemical_formula_sum              "Au2 Si1 O6"
_cell_length_a       5.176467822762222
_cell_length_b       5.176468011085424
_cell_length_c       5.176468122609437
_cell_angle_alpha    59.99999649101264
_cell_angle_beta     59.999995299547685
_cell_angle_gamma    59.999997103464544

_space_group_name_H-M_alt    "P 1"
_space_group_IT_number       1

loop_
  _space_group_symop_operation_xyz
  'x, y, z'

loop_
  _atom_site_type_symbol
  _atom_site_label
  _atom_site_symmetry_multiplicity
  _atom_site_fract_x
  _atom_site_fract_y
  _atom_site_fract_z
  _atom_site_occupancy
  Au  Au1       1.0  0.2499999759105385  0.2500002272440544  0.24999991274043704  1.0000
  Au  Au2       1.0  0.7499997963773009  0.7500002392928526  0.749999669663421  1.0000
  Si  Si1       1.0  1.7710068645506795e-08  7.097955988445586e-09  2.623236919977674e-08  1.0000
  O   O1        1.0  0.23894931629845642  0.23894923480567679  0.7610507428433309  1.0000
  O   O2        1.0  0.7610508261344745  0.7610505763531874  0.23894941876812592  1.0000
  O   O3        1.0  0.7610506770416976  0.23894922282030692  0.23894933563599804  1.0000
  O   O4        1.0  0.2389493785070913  0.7610506214623575  0.7610508547874499  1.0000
  O   O5        1.0  0.23894930380336243  0.761050601761815  0.2389493114870636  1.0000
  O   O6        1.0  0.7610507290327622  0.23894926381472323  0.7610507521457187  1.0000
