data_image0
_chemical_formula_structural       Au2SO6
_chemical_formula_sum              "Au2 S1 O6"
_cell_length_a       5.1675149274900445
_cell_length_b       5.167523383123524
_cell_length_c       5.167519124984694
_cell_angle_alpha    60.0000075666194
_cell_angle_beta     59.99997508425065
_cell_angle_gamma    59.999991731333154

_space_group_name_H-M_alt    "P 1"
_space_group_IT_number       1

loop_
  _space_group_symop_operation_xyz
  'x, y, z'

loop_
  _atom_site_type_symbol
  _atom_site_label
  _atom_site_symmetry_multiplicity
  _atom_site_fract_x
  _atom_site_fract_y
  _atom_site_fract_z
  _atom_site_occupancy
  Au  Au1       1.0  0.25000109812864807  0.24999834612983785  0.2500027073408429  1.0000
  Au  Au2       1.0  0.7499964796627882  0.7499998899477506  0.7500058215650305  1.0000
  S   S1        1.0  0.9999988747878934  1.2371822391038073e-06  9.270783418996349e-07  1.0000
  O   O1        1.0  0.22799086962842488  0.22798978580857265  0.7720085319056763  1.0000
  O   O2        1.0  0.7720104775142825  0.772009677971337  0.22798831611732046  1.0000
  O   O3        1.0  0.7720090782783171  0.22799098859978556  0.22798859371565053  1.0000
  O   O4        1.0  0.22799088477859042  0.7720114140803415  0.7720081213094864  1.0000
  O   O5        1.0  0.22799189977721895  0.7720095771128979  0.22798733720893394  1.0000
  O   O6        1.0  0.7720094721081141  0.22798960462740686  0.7720097091285198  1.0000
