data_image0
_chemical_formula_structural       Au2TiO6
_chemical_formula_sum              "Au2 Ti1 O6"
_cell_length_a       5.345895542426079
_cell_length_b       5.345894747519068
_cell_length_c       5.3458952063753715
_cell_angle_alpha    60.000001593076895
_cell_angle_beta     59.9999991152878
_cell_angle_gamma    60.000002735803534

_space_group_name_H-M_alt    "P 1"
_space_group_IT_number       1

loop_
  _space_group_symop_operation_xyz
  'x, y, z'

loop_
  _atom_site_type_symbol
  _atom_site_label
  _atom_site_symmetry_multiplicity
  _atom_site_fract_x
  _atom_site_fract_y
  _atom_site_fract_z
  _atom_site_occupancy
  Au  Au1       1.0  0.2500001332405841  0.24999985454910548  0.2499999633887152  1.0000
  Au  Au2       1.0  0.7500000075342426  0.7500001570164577  0.7499995557510967  1.0000
  Ti  Ti1       1.0  4.732486027677302e-08  0.9999998969049715  2.227329729613533e-08  1.0000
  O   O1        1.0  0.25241259392915916  0.2524128222964676  0.7475873084602584  1.0000
  O   O2        1.0  0.7475872676172113  0.7475873336021644  0.2524129365763791  1.0000
  O   O3        1.0  0.747587406872172  0.2524125049889141  0.2524127458515496  1.0000
  O   O4        1.0  0.2524126496224703  0.7475873576616271  0.7475873219930979  1.0000
  O   O5        1.0  0.2524126079440425  0.7475873845092454  0.2524127874827512  1.0000
  O   O6        1.0  0.7475872963676684  0.2524126430933491  0.7475874741309123  1.0000
