data_image0
_chemical_formula_structural       Au2TaO6
_chemical_formula_sum              "Au2 Ta1 O6"
_cell_length_a       5.401710674495216
_cell_length_b       5.4017109581485805
_cell_length_c       5.401710770660376
_cell_angle_alpha    59.999998642416
_cell_angle_beta     59.99999874511188
_cell_angle_gamma    60.000000267790476

_space_group_name_H-M_alt    "P 1"
_space_group_IT_number       1

loop_
  _space_group_symop_operation_xyz
  'x, y, z'

loop_
  _atom_site_type_symbol
  _atom_site_label
  _atom_site_symmetry_multiplicity
  _atom_site_fract_x
  _atom_site_fract_y
  _atom_site_fract_z
  _atom_site_occupancy
  Au  Au1       1.0  0.24999980922674891  0.24999996398757948  0.2500003137552151  1.0000
  Au  Au2       1.0  0.7499997642668541  0.7499997287151731  0.7499998234413237  1.0000
  Ta  Ta1       1.0  0.999999807525679  0.9999999297128418  1.0916555768447046e-07  1.0000
  O   O1        1.0  0.2598926564800124  0.259892684933184  0.7401072618496785  1.0000
  O   O2        1.0  0.7401075102595419  0.7401074725717356  0.25989272583218664  1.0000
  O   O3        1.0  0.7401073443536997  0.25989264736625123  0.2598926858415344  1.0000
  O   O4        1.0  0.2598928649463979  0.7401074081089233  0.7401073130622797  1.0000
  O   O5        1.0  0.25989269472030463  0.7401072935709645  0.25989260867959063  1.0000
  O   O6        1.0  0.7401075676099633  0.2598928208547324  0.7401072342655467  1.0000
