data_image0
_chemical_formula_structural       Au2TeS6
_chemical_formula_sum              "Au2 Te1 S6"
_cell_length_a       6.719461302747552
_cell_length_b       6.719461350538448
_cell_length_c       6.719461651752206
_cell_angle_alpha    59.99999983172052
_cell_angle_beta     60.000001761766086
_cell_angle_gamma    60.00000063871896

_space_group_name_H-M_alt    "P 1"
_space_group_IT_number       1

loop_
  _space_group_symop_operation_xyz
  'x, y, z'

loop_
  _atom_site_type_symbol
  _atom_site_label
  _atom_site_symmetry_multiplicity
  _atom_site_fract_x
  _atom_site_fract_y
  _atom_site_fract_z
  _atom_site_occupancy
  Au  Au1       1.0  0.2499998997676985  0.25000006158507954  0.25000001262557014  1.0000
  Au  Au2       1.0  0.7499999718951285  0.7500000681035203  0.7500000119940655  1.0000
  Te  Te1       1.0  1.4834299825157446e-07  0.9999999106885281  5.97771074998113e-08  1.0000
  S   S1        1.0  0.24811550562889909  0.24811553934807665  0.7518844847528448  1.0000
  S   S2        1.0  0.7518844693341188  0.7518844299444095  0.24811555055617954  1.0000
  S   S3        1.0  0.7518845126244411  0.24811548053750102  0.2481155266505835  1.0000
  S   S4        1.0  0.24811548499104735  0.751884472350837  0.7518845070224947  1.0000
  S   S5        1.0  0.24811547950937493  0.7518845389071073  0.2481154060690724  1.0000
  S   S6        1.0  0.7518845010765144  0.24811549600197064  0.7518844447987751  1.0000
