data_image0
_chemical_formula_structural       Au2TiS6
_chemical_formula_sum              "Au2 Ti1 S6"
_cell_length_a       6.338773993354179
_cell_length_b       6.338773600138949
_cell_length_c       6.338773066439595
_cell_angle_alpha    59.999998855078054
_cell_angle_beta     60.000000118478596
_cell_angle_gamma    59.99999277868247

_space_group_name_H-M_alt    "P 1"
_space_group_IT_number       1

loop_
  _space_group_symop_operation_xyz
  'x, y, z'

loop_
  _atom_site_type_symbol
  _atom_site_label
  _atom_site_symmetry_multiplicity
  _atom_site_fract_x
  _atom_site_fract_y
  _atom_site_fract_z
  _atom_site_occupancy
  Au  Au1       1.0  0.25000003906723933  0.2500001197440881  0.25000011198765343  1.0000
  Au  Au2       1.0  0.7500000363235063  0.7499997602663745  0.750000328814711  1.0000
  Ti  Ti1       1.0  0.9999999590776836  0.9999999806785207  7.271689379947416e-08  1.0000
  S   S1        1.0  0.26327978520106854  0.26327990998409484  0.7367201184066529  1.0000
  S   S2        1.0  0.7367202096488575  0.736720085955271  0.26327979987211186  1.0000
  S   S3        1.0  0.7367201297030178  0.26327990341505014  0.263279702273287  1.0000
  S   S4        1.0  0.2632798857185722  0.7367200963886137  0.7367200886232533  1.0000
  S   S5        1.0  0.26327981526716576  0.7367201457505406  0.26327974745563304  1.0000
  S   S6        1.0  0.7367201202386702  0.26328000089638076  0.7367200715032564  1.0000
