data_image0
_chemical_formula_structural       Au2TeO6
_chemical_formula_sum              "Au2 Te1 O6"
_cell_length_a       5.502950745849434
_cell_length_b       5.502951060090109
_cell_length_c       5.502950573330075
_cell_angle_alpha    60.000002621288196
_cell_angle_beta     60.00000075141713
_cell_angle_gamma    60.00000063749441

_space_group_name_H-M_alt    "P 1"
_space_group_IT_number       1

loop_
  _space_group_symop_operation_xyz
  'x, y, z'

loop_
  _atom_site_type_symbol
  _atom_site_label
  _atom_site_symmetry_multiplicity
  _atom_site_fract_x
  _atom_site_fract_y
  _atom_site_fract_z
  _atom_site_occupancy
  Au  Au1       1.0  0.24999992411779698  0.2499999840066832  0.2500000054497477  1.0000
  Au  Au2       1.0  0.750000124276299  0.7500001300692126  0.7499997331911369  1.0000
  Te  Te1       1.0  4.255934354906477e-08  4.2286676882390104e-08  1.391040489086335e-08  1.0000
  O   O1        1.0  0.24903634034517316  0.24903630283385841  0.7509636548876659  1.0000
  O   O2        1.0  0.7509635957393013  0.750963575326889  0.24903649955412815  1.0000
  O   O3        1.0  0.7509639739412542  0.24903605759792222  0.2490361009455536  1.0000
  O   O4        1.0  0.24903603997047674  0.7509639207154817  0.7509639808611462  1.0000
  O   O5        1.0  0.2490360572116501  0.7509638796211022  0.24903621364570558  1.0000
  O   O6        1.0  0.7509638726396051  0.24903610536914741  0.7509638505193938  1.0000
