data_image0
_chemical_formula_structural       Au2TaS6
_chemical_formula_sum              "Au2 Ta1 S6"
_cell_length_a       6.323721941819143
_cell_length_b       6.323722026265146
_cell_length_c       6.323722042342307
_cell_angle_alpha    60.000002775739034
_cell_angle_beta     60.00000154129844
_cell_angle_gamma    60.00000552288006

_space_group_name_H-M_alt    "P 1"
_space_group_IT_number       1

loop_
  _space_group_symop_operation_xyz
  'x, y, z'

loop_
  _atom_site_type_symbol
  _atom_site_label
  _atom_site_symmetry_multiplicity
  _atom_site_fract_x
  _atom_site_fract_y
  _atom_site_fract_z
  _atom_site_occupancy
  Au  Au1       1.0  0.24999983293626787  0.24999980354546786  0.25000018297609855  1.0000
  Au  Au2       1.0  0.7499999477154394  0.7499999045068466  0.7500000680516906  1.0000
  Ta  Ta1       1.0  0.9999999914081585  0.9999998121355671  2.358053374154303e-07  1.0000
  S   S1        1.0  0.26890383717108796  0.26890390791386715  0.731096095984903  1.0000
  S   S2        1.0  0.7310962013584411  0.7310963850359803  0.2689037320738782  1.0000
  S   S3        1.0  0.7310961697468534  0.26890393881991753  0.26890385174250364  1.0000
  S   S4        1.0  0.2689040597419811  0.73109601132576  0.7310960158677202  1.0000
  S   S5        1.0  0.26890387665257026  0.7310962304246971  0.2689039137660108  1.0000
  S   S6        1.0  0.7310960908124127  0.26890399086551503  0.7310958970994167  1.0000
