data_image0
_chemical_formula_structural       Au2TaSe6
_chemical_formula_sum              "Au2 Ta1 Se6"
_cell_length_a       6.522161160773745
_cell_length_b       6.522156217533219
_cell_length_c       6.522155555334646
_cell_angle_alpha    60.00005674318417
_cell_angle_beta     59.999995814443835
_cell_angle_gamma    60.00004690963306

_space_group_name_H-M_alt    "P 1"
_space_group_IT_number       1

loop_
  _space_group_symop_operation_xyz
  'x, y, z'

loop_
  _atom_site_type_symbol
  _atom_site_label
  _atom_site_symmetry_multiplicity
  _atom_site_fract_x
  _atom_site_fract_y
  _atom_site_fract_z
  _atom_site_occupancy
  Au  Au1       1.0  0.24999939881058542  0.2500018738729801  0.24999966390694459  1.0000
  Au  Au2       1.0  0.7500012627629971  0.7499977610612952  0.7500000518488109  1.0000
  Ta  Ta1       1.0  2.282240503108294e-06  0.9999946669889934  3.9998772940494024e-07  1.0000
  Se  Se1       1.0  0.27421330038319336  0.27421471205651243  0.7257859470759117  1.0000
  Se  Se2       1.0  0.7257890612287511  0.7257870673495291  0.27421160724049815  1.0000
  Se  Se3       1.0  0.7257850266439001  0.27421497312455223  0.27421339504381337  1.0000
  Se  Se4       1.0  0.2742117064709989  0.7257882465708354  0.7257901477964156  1.0000
  Se  Se5       1.0  0.2742124762689705  0.7257861487224676  0.27421290095771406  1.0000
  Se  Se6       1.0  0.7257854730862343  0.27421444202035017  0.7257859681141505  1.0000
