data_image0
_chemical_formula_structural       Au2TeSe6
_chemical_formula_sum              "Au2 Te1 Se6"
_cell_length_a       6.713469658370038
_cell_length_b       6.713469913880697
_cell_length_c       6.713469727967921
_cell_angle_alpha    60.00000122948816
_cell_angle_beta     60.00000118145458
_cell_angle_gamma    60.000000817470585

_space_group_name_H-M_alt    "P 1"
_space_group_IT_number       1

loop_
  _space_group_symop_operation_xyz
  'x, y, z'

loop_
  _atom_site_type_symbol
  _atom_site_label
  _atom_site_symmetry_multiplicity
  _atom_site_fract_x
  _atom_site_fract_y
  _atom_site_fract_z
  _atom_site_occupancy
  Au  Au1       1.0  0.24999990564472985  0.24999995552332377  0.24999997398504697  1.0000
  Au  Au2       1.0  0.7499998254476341  0.7499999486639083  0.7500000754050868  1.0000
  Te  Te1       1.0  3.793960823745529e-07  3.685105627701759e-07  2.57612798525973e-07  1.0000
  Se  Se1       1.0  0.30322017100538434  0.30322008044662924  0.6967803614000364  1.0000
  Se  Se2       1.0  0.6967791116893646  0.6967791049625675  0.3032213231950804  1.0000
  Se  Se3       1.0  0.6967802856589812  0.3032200324906692  0.3032199904476463  1.0000
  Se  Se4       1.0  0.303221197215679  0.6967791054864624  0.6967790150255996  1.0000
  Se  Se5       1.0  0.303220065354274  0.6967802538459509  0.30321993418656146  1.0000
  Se  Se6       1.0  0.6967790747184848  0.3032211499238905  0.6967790472304638  1.0000
