data_image0
_chemical_formula_structural       Au2VO6
_chemical_formula_sum              "Au2 V1 O6"
_cell_length_a       5.30909583756682
_cell_length_b       5.3090960172358885
_cell_length_c       5.309096082766776
_cell_angle_alpha    59.99999851928825
_cell_angle_beta     59.999999075622554
_cell_angle_gamma    60.00000080667727

_space_group_name_H-M_alt    "P 1"
_space_group_IT_number       1

loop_
  _space_group_symop_operation_xyz
  'x, y, z'

loop_
  _atom_site_type_symbol
  _atom_site_label
  _atom_site_symmetry_multiplicity
  _atom_site_fract_x
  _atom_site_fract_y
  _atom_site_fract_z
  _atom_site_occupancy
  Au  Au1       1.0  0.24999950919808742  0.2500000147475616  0.25000060794177353  1.0000
  Au  Au2       1.0  0.7499999426748145  0.7499998966023755  0.7500005591126712  1.0000
  V   V1        1.0  1.8937501735584415e-08  0.9999999953862391  4.181068476323693e-08  1.0000
  O   O1        1.0  0.25026027660662997  0.2502601175091998  0.7497396414313289  1.0000
  O   O2        1.0  0.7497398768734531  0.7497398030682845  0.2502599929808746  1.0000
  O   O3        1.0  0.7497398992247477  0.25026039056171023  0.25025985516832944  1.0000
  O   O4        1.0  0.25026010204651483  0.7497399083441341  0.7497397076224165  1.0000
  O   O5        1.0  0.2502603083259539  0.7497397240841426  0.25026002085251353  1.0000
  O   O6        1.0  0.7497401208033576  0.25026007422869057  0.7497395952577578  1.0000
