data_image0
_chemical_formula_structural       Au2VS6
_chemical_formula_sum              "Au2 V1 S6"
_cell_length_a       6.308294617560526
_cell_length_b       6.308293741862876
_cell_length_c       6.308293858571874
_cell_angle_alpha    59.999999832427406
_cell_angle_beta     60.00000139991816
_cell_angle_gamma    60.000001216920225

_space_group_name_H-M_alt    "P 1"
_space_group_IT_number       1

loop_
  _space_group_symop_operation_xyz
  'x, y, z'

loop_
  _atom_site_type_symbol
  _atom_site_label
  _atom_site_symmetry_multiplicity
  _atom_site_fract_x
  _atom_site_fract_y
  _atom_site_fract_z
  _atom_site_occupancy
  Au  Au1       1.0  0.2500000284359067  0.2499999980479872  0.24999990357543142  1.0000
  Au  Au2       1.0  0.7500001233220327  0.7499999844365473  0.7499998360717359  1.0000
  V   V1        1.0  1.7933271719768268e-08  8.348379489323146e-08  0.9999999223428171  1.0000
  S   S1        1.0  0.2543970677896676  0.25439711648635455  0.7456029816578451  1.0000
  S   S2        1.0  0.7456029100757056  0.7456028659981776  0.2543971366151099  1.0000
  S   S3        1.0  0.7456028441606235  0.25439710828549056  0.2543972348722836  1.0000
  S   S4        1.0  0.2543972165952558  0.7456027188803568  0.7456029005921827  1.0000
  S   S5        1.0  0.2543970899893541  0.7456028844085649  0.2543971970791636  1.0000
  S   S6        1.0  0.7456027430833917  0.2543972359212956  0.7456028358954225  1.0000
