data_image0
_chemical_formula_structural       Au2WSe6
_chemical_formula_sum              "Au2 W1 Se6"
_cell_length_a       6.652177801911106
_cell_length_b       6.6521779667769865
_cell_length_c       6.652177919369731
_cell_angle_alpha    60.000000383604444
_cell_angle_beta     59.999999552485676
_cell_angle_gamma    60.00000044011598

_space_group_name_H-M_alt    "P 1"
_space_group_IT_number       1

loop_
  _space_group_symop_operation_xyz
  'x, y, z'

loop_
  _atom_site_type_symbol
  _atom_site_label
  _atom_site_symmetry_multiplicity
  _atom_site_fract_x
  _atom_site_fract_y
  _atom_site_fract_z
  _atom_site_occupancy
  Au  Au1       1.0  0.2500000372173653  0.24999998158539763  0.24999997013766703  1.0000
  Au  Au2       1.0  0.749999945677861  0.7500000312887676  0.7499999907220419  1.0000
  W   W1        1.0  0.9999999885682381  0.9999999926355255  0.9999999943654474  1.0000
  Se  Se1       1.0  0.2546389513267408  0.2546389566544807  0.7453610436449878  1.0000
  Se  Se2       1.0  0.7453610400550771  0.7453610359673797  0.25463894264004966  1.0000
  Se  Se3       1.0  0.7453609788011486  0.25463899270813367  0.2546390810077879  1.0000
  Se  Se4       1.0  0.25463905711643503  0.7453609704558292  0.7453609804180042  1.0000
  Se  Se5       1.0  0.25463905754235056  0.7453609827743943  0.25463901056747995  1.0000
  Se  Se6       1.0  0.745360937590869  0.25463905587543123  0.7453609869062835  1.0000
