data_image0
_chemical_formula_structural       Au2WO6
_chemical_formula_sum              "Au2 W1 O6"
_cell_length_a       5.450362250220625
_cell_length_b       5.450361981622722
_cell_length_c       5.45036204081912
_cell_angle_alpha    59.99999880332313
_cell_angle_beta     59.999999084386275
_cell_angle_gamma    60.00000024360656

_space_group_name_H-M_alt    "P 1"
_space_group_IT_number       1

loop_
  _space_group_symop_operation_xyz
  'x, y, z'

loop_
  _atom_site_type_symbol
  _atom_site_label
  _atom_site_symmetry_multiplicity
  _atom_site_fract_x
  _atom_site_fract_y
  _atom_site_fract_z
  _atom_site_occupancy
  Au  Au1       1.0  0.24999966839682916  0.24999995111166837  0.25000033307126485  1.0000
  Au  Au2       1.0  0.7500002292094617  0.7500001027619181  0.7499996331748361  1.0000
  W   W1        1.0  1.3504582791856129e-08  0.9999999213518826  3.991072955531127e-08  1.0000
  O   O1        1.0  0.25262210455879125  0.252621968683121  0.7473779849766119  1.0000
  O   O2        1.0  0.7473780166104708  0.7473781009200933  0.2526220872962679  1.0000
  O   O3        1.0  0.7473780744501516  0.25262183082937245  0.25262223341904816  1.0000
  O   O4        1.0  0.25262192919517296  0.7473780320416448  0.7473778505331808  1.0000
  O   O5        1.0  0.2526218966881762  0.747377965237818  0.2526220876747636  1.0000
  O   O6        1.0  0.7473781010896431  0.25262213133046285  0.7473778108077054  1.0000
