data_image0
_chemical_formula_structural       Au2WS6
_chemical_formula_sum              "Au2 W1 S6"
_cell_length_a       6.379943243292126
_cell_length_b       6.379943623285419
_cell_length_c       6.3799431283364045
_cell_angle_alpha    59.999999704510614
_cell_angle_beta     59.999999244548526
_cell_angle_gamma    59.999996717396634

_space_group_name_H-M_alt    "P 1"
_space_group_IT_number       1

loop_
  _space_group_symop_operation_xyz
  'x, y, z'

loop_
  _atom_site_type_symbol
  _atom_site_label
  _atom_site_symmetry_multiplicity
  _atom_site_fract_x
  _atom_site_fract_y
  _atom_site_fract_z
  _atom_site_occupancy
  Au  Au1       1.0  0.25000000791818117  0.24999997968781182  0.2500000618471252  1.0000
  Au  Au2       1.0  0.7499998802209309  0.7500001579069467  0.7499998328365926  1.0000
  W   W1        1.0  2.617911535016958e-08  1.9196797703221458e-08  0.9999999412615647  1.0000
  S   S1        1.0  0.2543105613754943  0.2543103226817364  0.7456895814826845  1.0000
  S   S2        1.0  0.7456894810844664  0.7456895365594384  0.25431063540781246  1.0000
  S   S3        1.0  0.7456895571898902  0.25431040889209866  0.25431035162992854  1.0000
  S   S4        1.0  0.25431041329148846  0.7456896499957829  0.7456896086348155  1.0000
  S   S5        1.0  0.2543104236804729  0.7456895194515928  0.25431035592888246  1.0000
  S   S6        1.0  0.7456896436599798  0.2543103954602998  0.7456896341639693  1.0000
