data_image0
_chemical_formula_structural       Au2ZrS6
_chemical_formula_sum              "Au2 Zr1 S6"
_cell_length_a       6.489326448833434
_cell_length_b       6.489326523683808
_cell_length_c       6.489326533168746
_cell_angle_alpha    60.0000003843518
_cell_angle_beta     60.0000009562913
_cell_angle_gamma    60.000000329270904

_space_group_name_H-M_alt    "P 1"
_space_group_IT_number       1

loop_
  _space_group_symop_operation_xyz
  'x, y, z'

loop_
  _atom_site_type_symbol
  _atom_site_label
  _atom_site_symmetry_multiplicity
  _atom_site_fract_x
  _atom_site_fract_y
  _atom_site_fract_z
  _atom_site_occupancy
  Au  Au1       1.0  0.2500000202249805  0.24999995114129003  0.25000002598474774  1.0000
  Au  Au2       1.0  0.7499999771116042  0.7500000987757294  0.7500000402077572  1.0000
  Zr  Zr1       1.0  0.9999999914977914  4.152108386466823e-08  0.9999999850315544  1.0000
  S   S1        1.0  0.27372237671246286  0.27372226158143353  0.7262777164882545  1.0000
  S   S2        1.0  0.7262776130224534  0.7262777203919941  0.27372236436200087  1.0000
  S   S3        1.0  0.7262776595267497  0.2737222869861844  0.27372228582851055  1.0000
  S   S4        1.0  0.2737222322340931  0.7262777006492094  0.7262776963245533  1.0000
  S   S5        1.0  0.2737223731011059  0.7262777555321879  0.27372221154010024  1.0000
  S   S6        1.0  0.7262777623644797  0.2737221735962236  0.7262776703091259  1.0000
