data_image0
_chemical_formula_structural       Au2ZrSe6
_chemical_formula_sum              "Au2 Zr1 Se6"
_cell_length_a       6.61780606065047
_cell_length_b       6.617806299043949
_cell_length_c       6.6178063108129335
_cell_angle_alpha    60.0000008980326
_cell_angle_beta     60.000001736710445
_cell_angle_gamma    60.00000320840982

_space_group_name_H-M_alt    "P 1"
_space_group_IT_number       1

loop_
  _space_group_symop_operation_xyz
  'x, y, z'

loop_
  _atom_site_type_symbol
  _atom_site_label
  _atom_site_symmetry_multiplicity
  _atom_site_fract_x
  _atom_site_fract_y
  _atom_site_fract_z
  _atom_site_occupancy
  Au  Au1       1.0  0.25000002630124274  0.24999989209792453  0.25000003534661414  1.0000
  Au  Au2       1.0  0.7499999733272312  0.7499999668506907  0.7499999349737451  1.0000
  Zr  Zr1       1.0  0.9999999470955275  0.9999997242485277  1.8699409039406622e-07  1.0000
  Se  Se1       1.0  0.2822895019231985  0.2822895237148327  0.7177105438267433  1.0000
  Se  Se2       1.0  0.7177105249995896  0.7177107035193049  0.2822894266544929  1.0000
  Se  Se3       1.0  0.7177105366406074  0.28228940721519397  0.2822895871178033  1.0000
  Se  Se4       1.0  0.2822896554825609  0.717710544267476  0.7177103525077178  1.0000
  Se  Se5       1.0  0.2822893996010574  0.7177106758576507  0.2822894572143808  1.0000
  Se  Se6       1.0  0.7177104406239702  0.2822895513764829  0.7177104857297537  1.0000
