data_image0
_chemical_formula_structural       Au2ZnSe6
_chemical_formula_sum              "Au2 Zn1 Se6"
_cell_length_a       6.4983919286291645
_cell_length_b       6.498392324411808
_cell_length_c       6.498391892972222
_cell_angle_alpha    60.00000068158159
_cell_angle_beta     59.99999903953637
_cell_angle_gamma    59.999999988262374

_space_group_name_H-M_alt    "P 1"
_space_group_IT_number       1

loop_
  _space_group_symop_operation_xyz
  'x, y, z'

loop_
  _atom_site_type_symbol
  _atom_site_label
  _atom_site_symmetry_multiplicity
  _atom_site_fract_x
  _atom_site_fract_y
  _atom_site_fract_z
  _atom_site_occupancy
  Au  Au1       1.0  0.2500000736477237  0.24999989319717714  0.2500000967352692  1.0000
  Au  Au2       1.0  0.74999993370694  0.7500000508752723  0.7500000235110826  1.0000
  Zn  Zn1       1.0  2.0192644231351446e-08  0.9999999660755973  3.610388221671447e-08  1.0000
  Se  Se1       1.0  0.2885559559592143  0.2885559794224988  0.7114440106699047  1.0000
  Se  Se2       1.0  0.7114440099322898  0.7114440890394266  0.28855599732654436  1.0000
  Se  Se3       1.0  0.7114439781461479  0.2885560366988504  0.2885560496808675  1.0000
  Se  Se4       1.0  0.28855603270684177  0.7114440034927395  0.7114439253485303  1.0000
  Se  Se5       1.0  0.28855599939769383  0.7114439900821151  0.2885559426815777  1.0000
  Se  Se6       1.0  0.7114440042768876  0.2885559916841177  0.7114439097266364  1.0000
