data_image0
_chemical_formula_structural       Au2ZrO6
_chemical_formula_sum              "Au2 Zr1 O6"
_cell_length_a       5.516953990397807
_cell_length_b       5.516954522485868
_cell_length_c       5.516954880980789
_cell_angle_alpha    59.999998575871054
_cell_angle_beta     59.99999751761097
_cell_angle_gamma    59.999996538913486

_space_group_name_H-M_alt    "P 1"
_space_group_IT_number       1

loop_
  _space_group_symop_operation_xyz
  'x, y, z'

loop_
  _atom_site_type_symbol
  _atom_site_label
  _atom_site_symmetry_multiplicity
  _atom_site_fract_x
  _atom_site_fract_y
  _atom_site_fract_z
  _atom_site_occupancy
  Au  Au1       1.0  0.2499995816209652  0.250000065632591  0.25000048756971055  1.0000
  Au  Au2       1.0  0.749999957473851  0.7500001569383423  0.7499996746334909  1.0000
  Zr  Zr1       1.0  0.9999999822620581  1.553975942609371e-08  4.8226538151783345e-08  1.0000
  O   O1        1.0  0.26928541775652226  0.2692853392167698  0.7307144799946474  1.0000
  O   O2        1.0  0.7307147629874285  0.730714528159649  0.2692854954789967  1.0000
  O   O3        1.0  0.7307147756953399  0.2692852348921375  0.26928551484641494  1.0000
  O   O4        1.0  0.2692853267585657  0.7307148234013208  0.7307144804426846  1.0000
  O   O5        1.0  0.2692852988530392  0.7307145093541917  0.269285434592166  1.0000
  O   O6        1.0  0.7307148763518846  0.2692853558022622  0.7307144106290089  1.0000
