data_image0
_chemical_formula_structural       Ba2AgO6
_chemical_formula_sum              "Ba2 Ag1 O6"
_cell_length_a       5.94216835119036
_cell_length_b       5.942168702098547
_cell_length_c       5.942168321003259
_cell_angle_alpha    60.00000030138927
_cell_angle_beta     60.00000028295469
_cell_angle_gamma    59.99999901966304

_space_group_name_H-M_alt    "P 1"
_space_group_IT_number       1

loop_
  _space_group_symop_operation_xyz
  'x, y, z'

loop_
  _atom_site_type_symbol
  _atom_site_label
  _atom_site_symmetry_multiplicity
  _atom_site_fract_x
  _atom_site_fract_y
  _atom_site_fract_z
  _atom_site_occupancy
  Ba  Ba1       1.0  0.25000008460024375  0.24999999780138488  0.24999997400468513  1.0000
  Ba  Ba2       1.0  0.749999945493821  0.7500000263818843  0.7499999856316009  1.0000
  Ag  Ag1       1.0  0.9999999980567691  0.9999999999999999  7.703164960508789e-09  1.0000
  O   O1        1.0  0.23402160596718627  0.23402159363705968  0.7659784054275534  1.0000
  O   O2        1.0  0.7659784410670225  0.7659783913851654  0.2340215922453811  1.0000
  O   O3        1.0  0.7659784112756644  0.2340215532678284  0.23402160870321792  1.0000
  O   O4        1.0  0.23402159175126835  0.7659784296932908  0.7659783884434843  1.0000
  O   O5        1.0  0.23402152863117665  0.7659784656337613  0.23402156418553877  1.0000
  O   O6        1.0  0.765978395939033  0.23402158946612397  0.7659784108768304  1.0000
