data_image0
_chemical_formula_structural       Ba2AgSe6
_chemical_formula_sum              "Ba2 Ag1 Se6"
_cell_length_a       6.908176350398441
_cell_length_b       6.908176315154767
_cell_length_c       6.908176401188079
_cell_angle_alpha    60.000000040142986
_cell_angle_beta     60.00000070762588
_cell_angle_gamma    59.99999711337323

_space_group_name_H-M_alt    "P 1"
_space_group_IT_number       1

loop_
  _space_group_symop_operation_xyz
  'x, y, z'

loop_
  _atom_site_type_symbol
  _atom_site_label
  _atom_site_symmetry_multiplicity
  _atom_site_fract_x
  _atom_site_fract_y
  _atom_site_fract_z
  _atom_site_occupancy
  Ba  Ba1       1.0  0.2500000149044915  0.25000000160608393  0.24999998707160706  1.0000
  Ba  Ba2       1.0  0.7500000019468751  0.749999997726686  0.7500000136475438  1.0000
  Ag  Ag1       1.0  2.3823947313980616e-08  0.9999999485861379  0.9999998473255546  1.0000
  Se  Se1       1.0  0.2701407471341714  0.27014070451437505  0.7298592566021374  1.0000
  Se  Se2       1.0  0.7298592340247652  0.7298592965912879  0.2701407422585013  1.0000
  Se  Se3       1.0  0.7298593167316761  0.2701406746559441  0.27014068596173474  1.0000
  Se  Se4       1.0  0.27014056200809494  0.7298594381419031  0.7298594110391561  1.0000
  Se  Se5       1.0  0.27014069574705035  0.7298593346097471  0.2701406864578378  1.0000
  Se  Se6       1.0  0.7298593964579315  0.2701405991260256  0.7298593803134457  1.0000
