data_image0
_chemical_formula_structural       Ba2AuS6
_chemical_formula_sum              "Ba2 Au1 S6"
_cell_length_a       6.710023061251219
_cell_length_b       6.710023102608705
_cell_length_c       6.710023289276411
_cell_angle_alpha    60.00000054542239
_cell_angle_beta     59.99999975718524
_cell_angle_gamma    60.00000158655479

_space_group_name_H-M_alt    "P 1"
_space_group_IT_number       1

loop_
  _space_group_symop_operation_xyz
  'x, y, z'

loop_
  _atom_site_type_symbol
  _atom_site_label
  _atom_site_symmetry_multiplicity
  _atom_site_fract_x
  _atom_site_fract_y
  _atom_site_fract_z
  _atom_site_occupancy
  Ba  Ba1       1.0  0.24999991285568585  0.24999998706017101  0.25000007464950796  1.0000
  Ba  Ba2       1.0  0.7500000596549367  0.7499999684815033  0.7499999390391603  1.0000
  Au  Au1       1.0  0.9999999063280472  0.9999998886599413  1.6062800783176732e-07  1.0000
  S   S1        1.0  0.25956801834519744  0.2595680729222502  0.740431971000652  1.0000
  S   S2        1.0  0.7404319323310325  0.740432004910964  0.2595680595232947  1.0000
  S   S3        1.0  0.7404320292966726  0.25956804005009  0.2595679910486699  1.0000
  S   S4        1.0  0.2595680612583456  0.7404318917633769  0.7404319769722126  1.0000
  S   S5        1.0  0.25956806822254574  0.7404320697250577  0.2595679275753858  1.0000
  S   S6        1.0  0.7404319938561671  0.2595680920695122  0.7404319083966366  1.0000
