data_image0
_chemical_formula_structural       Ba2AgS6
_chemical_formula_sum              "Ba2 Ag1 S6"
_cell_length_a       6.675860601028376
_cell_length_b       6.675860431268804
_cell_length_c       6.6758606004911805
_cell_angle_alpha    60.000000333257866
_cell_angle_beta     60.000000555521375
_cell_angle_gamma    60.000000532188494

_space_group_name_H-M_alt    "P 1"
_space_group_IT_number       1

loop_
  _space_group_symop_operation_xyz
  'x, y, z'

loop_
  _atom_site_type_symbol
  _atom_site_label
  _atom_site_symmetry_multiplicity
  _atom_site_fract_x
  _atom_site_fract_y
  _atom_site_fract_z
  _atom_site_occupancy
  Ba  Ba1       1.0  0.249999996462302  0.25000000432386243  0.2500000208038233  1.0000
  Ba  Ba2       1.0  0.7499999899115151  0.7499999854527776  0.7500000384602146  1.0000
  Ag  Ag1       1.0  0.9999998943345708  0.9999999174435724  2.0046425637995872e-07  1.0000
  S   S1        1.0  0.26244913089533656  0.26244910840713764  0.7375508821979968  1.0000
  S   S2        1.0  0.7375509022303636  0.737550969429692  0.2624490617261109  1.0000
  S   S3        1.0  0.7375509061051683  0.26244911498709705  0.26244902946438853  1.0000
  S   S4        1.0  0.26244914070201686  0.7375508802933038  0.7375508575232033  1.0000
  S   S5        1.0  0.26244914001990477  0.7375508951552753  0.2624490516080197  1.0000
  S   S6        1.0  0.7375509060708295  0.2624491074634755  0.7375508740107806  1.0000
