data_image0
_chemical_formula_structural       Ba2AgTe6
_chemical_formula_sum              "Ba2 Ag1 Te6"
_cell_length_a       7.451264912536445
_cell_length_b       7.451265036414592
_cell_length_c       7.451264539046906
_cell_angle_alpha    60.000002884591964
_cell_angle_beta     60.00000446706781
_cell_angle_gamma    59.99999917513469

_space_group_name_H-M_alt    "P 1"
_space_group_IT_number       1

loop_
  _space_group_symop_operation_xyz
  'x, y, z'

loop_
  _atom_site_type_symbol
  _atom_site_label
  _atom_site_symmetry_multiplicity
  _atom_site_fract_x
  _atom_site_fract_y
  _atom_site_fract_z
  _atom_site_occupancy
  Ba  Ba1       1.0  0.25000000090645125  0.24999996917581213  0.25000001355592744  1.0000
  Ba  Ba2       1.0  0.7500000269956748  0.7500000160099011  0.7499999595257956  1.0000
  Ag  Ag1       1.0  1.1788508820191306e-07  0.9999999671265211  9.834306937145244e-09  1.0000
  Te  Te1       1.0  0.2728727759017419  0.2728725758697652  0.7271272817740916  1.0000
  Te  Te2       1.0  0.7271272458634496  0.7271274602698331  0.2728727655270502  1.0000
  Te  Te3       1.0  0.7271272945658152  0.2728725645449367  0.2728726996789596  1.0000
  Te  Te4       1.0  0.2728726825114554  0.7271273499628086  0.7271273328121196  1.0000
  Te  Te5       1.0  0.2728725411786955  0.7271274285532474  0.27287253773566505  1.0000
  Te  Te6       1.0  0.7271273137377156  0.27287266182759035  0.7271273967704296  1.0000
