data_image0
_chemical_formula_structural       Ba2AuO6
_chemical_formula_sum              "Ba2 Au1 O6"
_cell_length_a       5.960026259607871
_cell_length_b       5.96002616934795
_cell_length_c       5.9600263218646825
_cell_angle_alpha    59.99999941641204
_cell_angle_beta     59.99999968115481
_cell_angle_gamma    59.99999932922106

_space_group_name_H-M_alt    "P 1"
_space_group_IT_number       1

loop_
  _space_group_symop_operation_xyz
  'x, y, z'

loop_
  _atom_site_type_symbol
  _atom_site_label
  _atom_site_symmetry_multiplicity
  _atom_site_fract_x
  _atom_site_fract_y
  _atom_site_fract_z
  _atom_site_occupancy
  Ba  Ba1       1.0  0.2499999994234343  0.2500000264672583  0.2499999757005024  1.0000
  Ba  Ba2       1.0  0.7500000210122432  0.7499999704903758  0.7499999164951983  1.0000
  Au  Au1       1.0  1.1292044281927836e-08  0.9999999835605435  0.9999999824395668  1.0000
  O   O1        1.0  0.23671130967791884  0.23671131249918367  0.763288702539453  1.0000
  O   O2        1.0  0.7632886778218143  0.7632886844584508  0.23671134202965952  1.0000
  O   O3        1.0  0.7632887119421101  0.2367113154010104  0.23671127862813976  1.0000
  O   O4        1.0  0.23671130598870502  0.7632886774467598  0.7632887309683796  1.0000
  O   O5        1.0  0.2367112852558928  0.7632886985346518  0.23671132986786877  1.0000
  O   O6        1.0  0.7632886593656426  0.23671134568641988  0.7632887125086242  1.0000
