data_image0
_chemical_formula_structural       Ba2AuSe6
_chemical_formula_sum              "Ba2 Au1 Se6"
_cell_length_a       6.945638391713896
_cell_length_b       6.945638747465577
_cell_length_c       6.945638259525761
_cell_angle_alpha    59.99999975027106
_cell_angle_beta     60.00000190479307
_cell_angle_gamma    60.00000133509446

_space_group_name_H-M_alt    "P 1"
_space_group_IT_number       1

loop_
  _space_group_symop_operation_xyz
  'x, y, z'

loop_
  _atom_site_type_symbol
  _atom_site_label
  _atom_site_symmetry_multiplicity
  _atom_site_fract_x
  _atom_site_fract_y
  _atom_site_fract_z
  _atom_site_occupancy
  Ba  Ba1       1.0  0.2500000169692869  0.24999997755191372  0.2500000046396423  1.0000
  Ba  Ba2       1.0  0.7499999809481274  0.7499999978989278  0.7499999932411586  1.0000
  Au  Au1       1.0  1.4458114280875041e-08  2.6449940114134632e-08  0.9999999867447349  1.0000
  Se  Se1       1.0  0.2662207029332692  0.2662207321171694  0.7337792741717268  1.0000
  Se  Se2       1.0  0.7337792824564492  0.7337792609669653  0.2662207297947901  1.0000
  Se  Se3       1.0  0.7337792855296351  0.26622073633962334  0.266220732832825  1.0000
  Se  Se4       1.0  0.26622070229473305  0.7337792743778054  0.7337792452624424  1.0000
  Se  Se5       1.0  0.2662206982435544  0.7337792585320441  0.26622079785155456  1.0000
  Se  Se6       1.0  0.7337793179438712  0.26622074689539454  0.7337792306165366  1.0000
