data_image0
_chemical_formula_structural       Ba2BeSe6
_chemical_formula_sum              "Ba2 Be1 Se6"
_cell_length_a       6.704229768463968
_cell_length_b       6.70422981316996
_cell_length_c       6.704230090719927
_cell_angle_alpha    59.99999996497581
_cell_angle_beta     59.999999737589945
_cell_angle_gamma    59.99999895263761

_space_group_name_H-M_alt    "P 1"
_space_group_IT_number       1

loop_
  _space_group_symop_operation_xyz
  'x, y, z'

loop_
  _atom_site_type_symbol
  _atom_site_label
  _atom_site_symmetry_multiplicity
  _atom_site_fract_x
  _atom_site_fract_y
  _atom_site_fract_z
  _atom_site_occupancy
  Ba  Ba1       1.0  0.24999999647760907  0.2499999625925342  0.25000002916993574  1.0000
  Ba  Ba2       1.0  0.750000054219268  0.7499999827724557  0.7499999494469342  1.0000
  Be  Be1       1.0  1.0265450201428836e-08  0.9999999433684504  0.9999998710402995  1.0000
  Se  Se1       1.0  0.2452933789061923  0.24529349148669255  0.7547065785807674  1.0000
  Se  Se2       1.0  0.7547065115049222  0.7547066402143603  0.2452934108764821  1.0000
  Se  Se3       1.0  0.7547065842083662  0.2452934442165226  0.2452934019949294  1.0000
  Se  Se4       1.0  0.24529338852916407  0.7547065851823789  0.7547066630803935  1.0000
  Se  Se5       1.0  0.24529344898457706  0.75470657455133  0.24529341341517227  1.0000
  Se  Se6       1.0  0.7547066241028034  0.245293370813661  0.7547066942164304  1.0000
