data_image0
_chemical_formula_structural       Ba2BeS6
_chemical_formula_sum              "Ba2 Be1 S6"
_cell_length_a       6.525560785296984
_cell_length_b       6.525560448794894
_cell_length_c       6.525560605087795
_cell_angle_alpha    60.000000023172895
_cell_angle_beta     60.00000041522754
_cell_angle_gamma    59.99999911013432

_space_group_name_H-M_alt    "P 1"
_space_group_IT_number       1

loop_
  _space_group_symop_operation_xyz
  'x, y, z'

loop_
  _atom_site_type_symbol
  _atom_site_label
  _atom_site_symmetry_multiplicity
  _atom_site_fract_x
  _atom_site_fract_y
  _atom_site_fract_z
  _atom_site_occupancy
  Ba  Ba1       1.0  0.2500000327902176  0.24999996971176489  0.2500000081530224  1.0000
  Ba  Ba2       1.0  0.7500000066232136  0.7499999879626774  0.7500000370488381  1.0000
  Be  Be1       1.0  0.9999999957096222  3.941369157330272e-08  1.0022180371531651e-08  1.0000
  S   S1        1.0  0.2506330986358431  0.2506330999193586  0.7493669112705303  1.0000
  S   S2        1.0  0.7493669200434001  0.7493668934150896  0.2506330743656184  1.0000
  S   S3        1.0  0.7493669100185418  0.25063311149361095  0.25063309007590706  1.0000
  S   S4        1.0  0.2506331148279214  0.7493668367966188  0.7493669241933528  1.0000
  S   S5        1.0  0.25063307156481573  0.7493669157050081  0.25063309375964715  1.0000
  S   S6        1.0  0.7493668521499965  0.25063313956524025  0.7493668624177559  1.0000
