data_image0
_chemical_formula_structural       Ba2BeO6
_chemical_formula_sum              "Ba2 Be1 O6"
_cell_length_a       5.870220072898073
_cell_length_b       5.870220452051588
_cell_length_c       5.870219661052807
_cell_angle_alpha    60.000006636971385
_cell_angle_beta     60.000006210463404
_cell_angle_gamma    60.00000469731729

_space_group_name_H-M_alt    "P 1"
_space_group_IT_number       1

loop_
  _space_group_symop_operation_xyz
  'x, y, z'

loop_
  _atom_site_type_symbol
  _atom_site_label
  _atom_site_symmetry_multiplicity
  _atom_site_fract_x
  _atom_site_fract_y
  _atom_site_fract_z
  _atom_site_occupancy
  Ba  Ba1       1.0  0.24999998569609544  0.2499999217348931  0.25000003551613387  1.0000
  Ba  Ba2       1.0  0.7500000195120925  0.7500000677282316  0.7500001438280048  1.0000
  Be  Be1       1.0  0.9999999882965613  2.9209170419553708e-08  0.9999999827295655  1.0000
  O   O1        1.0  0.20301679208354978  0.20301679709564524  0.7969831583270615  1.0000
  O   O2        1.0  0.7969832465849159  0.796983156899198  0.20301674094130817  1.0000
  O   O3        1.0  0.7969831768358483  0.20301675377596615  0.20301680160301455  1.0000
  O   O4        1.0  0.20301682696094833  0.7969832753281736  0.7969831712397988  1.0000
  O   O5        1.0  0.20301674851928328  0.7969832401734174  0.20301674103696127  1.0000
  O   O6        1.0  0.7969832529934435  0.2030167367714891  0.7969832181431723  1.0000
