data_image0
_chemical_formula_structural       Ba2BeTe6
_chemical_formula_sum              "Ba2 Be1 Te6"
_cell_length_a       7.413487231368672
_cell_length_b       7.413487156170232
_cell_length_c       7.413487947741232
_cell_angle_alpha    59.999998616587256
_cell_angle_beta     59.99999677390987
_cell_angle_gamma    60.00000278799092

_space_group_name_H-M_alt    "P 1"
_space_group_IT_number       1

loop_
  _space_group_symop_operation_xyz
  'x, y, z'

loop_
  _atom_site_type_symbol
  _atom_site_label
  _atom_site_symmetry_multiplicity
  _atom_site_fract_x
  _atom_site_fract_y
  _atom_site_fract_z
  _atom_site_occupancy
  Ba  Ba1       1.0  0.25000002224355766  0.25000001362643864  0.249999988244446  1.0000
  Ba  Ba2       1.0  0.7499999960436051  0.7499999632329795  0.7500000119221841  1.0000
  Be  Be1       1.0  3.547853825517462e-08  0.999999963654912  8.136683814720813e-08  1.0000
  Te  Te1       1.0  0.23080587161498764  0.2308061076523254  0.7691939320849425  1.0000
  Te  Te2       1.0  0.76919417842006  0.7691939468534258  0.23080598101115454  1.0000
  Te  Te3       1.0  0.7691939588529402  0.23080602252940974  0.23080605697522436  1.0000
  Te  Te4       1.0  0.2308059711252943  0.7691939295492605  0.7691940253652055  1.0000
  Te  Te5       1.0  0.23080598447174694  0.7691939180272654  0.23080602299731953  1.0000
  Te  Te6       1.0  0.7691939785284939  0.2308061265661836  0.7691939250834045  1.0000
