data_image0
_chemical_formula_structural       Ba2CrSe6
_chemical_formula_sum              "Ba2 Cr1 Se6"
_cell_length_a       6.854040973267556
_cell_length_b       6.854041126161618
_cell_length_c       6.854041359834854
_cell_angle_alpha    59.999997579104935
_cell_angle_beta     59.999997620785635
_cell_angle_gamma    60.00000366574754

_space_group_name_H-M_alt    "P 1"
_space_group_IT_number       1

loop_
  _space_group_symop_operation_xyz
  'x, y, z'

loop_
  _atom_site_type_symbol
  _atom_site_label
  _atom_site_symmetry_multiplicity
  _atom_site_fract_x
  _atom_site_fract_y
  _atom_site_fract_z
  _atom_site_occupancy
  Ba  Ba1       1.0  0.2500000196156605  0.2500000447262135  0.24999997318165884  1.0000
  Ba  Ba2       1.0  0.7500000091936484  0.7499999697843391  0.7500000046838972  1.0000
  Cr  Cr1       1.0  4.151888167672968e-09  1.7868946537044245e-08  0.9999999277118664  1.0000
  Se  Se1       1.0  0.2578700489578164  0.25787011208964616  0.7421298984715787  1.0000
  Se  Se2       1.0  0.7421299114766022  0.7421298952733242  0.2578701273681663  1.0000
  Se  Se3       1.0  0.7421298116094583  0.2578700974170216  0.2578701531033387  1.0000
  Se  Se4       1.0  0.2578701637828758  0.7421299206673169  0.7421298730277034  1.0000
  Se  Se5       1.0  0.257870133146117  0.7421298785802708  0.25787015871894886  1.0000
  Se  Se6       1.0  0.7421298973829559  0.25787007517586685  0.7421298822207775  1.0000
