data_image0
_chemical_formula_structural       Ba2CrO6
_chemical_formula_sum              "Ba2 Cr1 O6"
_cell_length_a       5.92018794238845
_cell_length_b       5.920187694044092
_cell_length_c       5.920187866545813
_cell_angle_alpha    59.999999359905516
_cell_angle_beta     59.99999701218222
_cell_angle_gamma    59.99999837320806

_space_group_name_H-M_alt    "P 1"
_space_group_IT_number       1

loop_
  _space_group_symop_operation_xyz
  'x, y, z'

loop_
  _atom_site_type_symbol
  _atom_site_label
  _atom_site_symmetry_multiplicity
  _atom_site_fract_x
  _atom_site_fract_y
  _atom_site_fract_z
  _atom_site_occupancy
  Ba  Ba1       1.0  0.24999999246105073  0.24999997039133903  0.2500000020521077  1.0000
  Ba  Ba2       1.0  0.7500000165880937  0.7499999690993048  0.7500000504936647  1.0000
  Cr  Cr1       1.0  0.9999999461716421  2.3170114202994548e-07  0.999999715123882  1.0000
  O   O1        1.0  0.22131243809153195  0.2213123317183039  0.7786876358509873  1.0000
  O   O2        1.0  0.7786877038245563  0.7786875953597785  0.22131235308931924  1.0000
  O   O3        1.0  0.7786875986713295  0.2213123656828118  0.22131247624629852  1.0000
  O   O4        1.0  0.22131240899864044  0.7786875779453529  0.7786876019464699  1.0000
  O   O5        1.0  0.22131241413584402  0.7786875790578996  0.22131248600692666  1.0000
  O   O6        1.0  0.7786875640814079  0.22131230664497964  0.7786876831706405  1.0000
