data_image0
_chemical_formula_structural       Ba2CaS6
_chemical_formula_sum              "Ba2 Ca1 S6"
_cell_length_a       6.971560118189845
_cell_length_b       6.971560038265779
_cell_length_c       6.971560164936041
_cell_angle_alpha    59.99999849970589
_cell_angle_beta     59.99999877021091
_cell_angle_gamma    60.000001855526754

_space_group_name_H-M_alt    "P 1"
_space_group_IT_number       1

loop_
  _space_group_symop_operation_xyz
  'x, y, z'

loop_
  _atom_site_type_symbol
  _atom_site_label
  _atom_site_symmetry_multiplicity
  _atom_site_fract_x
  _atom_site_fract_y
  _atom_site_fract_z
  _atom_site_occupancy
  Ba  Ba1       1.0  0.2500001152022363  0.24999991995931  0.24999997702734214  1.0000
  Ba  Ba2       1.0  0.7500000431349344  0.7500000163667847  0.7499999612454827  1.0000
  Ca  Ca1       1.0  0.9999999096411937  0.9999999033774802  0.9999999457475516  1.0000
  S   S1        1.0  0.2759448936328529  0.2759448942018982  0.7240551229131471  1.0000
  S   S2        1.0  0.7240551692387067  0.7240551844228098  0.2759448579255375  1.0000
  S   S3        1.0  0.7240551259741664  0.2759448423593547  0.275944887639768  1.0000
  S   S4        1.0  0.27594477304125414  0.7240552011298863  0.7240552515050863  1.0000
  S   S5        1.0  0.27594484896513866  0.7240551460176535  0.2759448388233787  1.0000
  S   S6        1.0  0.7240551197154165  0.27594489220127144  0.7240551591097301  1.0000
