data_image0
_chemical_formula_structural       Ba2CaTe6
_chemical_formula_sum              "Ba2 Ca1 Te6"
_cell_length_a       7.775008830462987
_cell_length_b       7.775009137160631
_cell_length_c       7.775008958915475
_cell_angle_alpha    60.00000101806252
_cell_angle_beta     60.000000611395734
_cell_angle_gamma    60.00000279143411

_space_group_name_H-M_alt    "P 1"
_space_group_IT_number       1

loop_
  _space_group_symop_operation_xyz
  'x, y, z'

loop_
  _atom_site_type_symbol
  _atom_site_label
  _atom_site_symmetry_multiplicity
  _atom_site_fract_x
  _atom_site_fract_y
  _atom_site_fract_z
  _atom_site_occupancy
  Ba  Ba1       1.0  0.25000001483046236  0.24999996921541662  0.25000001844223246  1.0000
  Ba  Ba2       1.0  0.7500000108709689  0.750000035240096  0.749999978758024  1.0000
  Ca  Ca1       1.0  5.7913109258367385e-09  0.9999999558934849  1.9536318678903376e-07  1.0000
  Te  Te1       1.0  0.27967339406480035  0.27967339407427033  0.7203265743396081  1.0000
  Te  Te2       1.0  0.7203265914476616  0.7203266151069396  0.2796733647081269  1.0000
  Te  Te3       1.0  0.7203266065316657  0.2796733279869369  0.27967338042559153  1.0000
  Te  Te4       1.0  0.2796733858222604  0.7203266339372928  0.7203265916916232  1.0000
  Te  Te5       1.0  0.27967337920925717  0.7203267007278507  0.27967330343889635  1.0000
  Te  Te6       1.0  0.7203266095874798  0.2796733698874338  0.7203265891017704  1.0000
