data_image0
_chemical_formula_structural       Ba2CuO6
_chemical_formula_sum              "Ba2 Cu1 O6"
_cell_length_a       5.933493521763117
_cell_length_b       5.93349360287203
_cell_length_c       5.933493522210484
_cell_angle_alpha    59.99999905817214
_cell_angle_beta     59.99999915025985
_cell_angle_gamma    59.99999906744404

_space_group_name_H-M_alt    "P 1"
_space_group_IT_number       1

loop_
  _space_group_symop_operation_xyz
  'x, y, z'

loop_
  _atom_site_type_symbol
  _atom_site_label
  _atom_site_symmetry_multiplicity
  _atom_site_fract_x
  _atom_site_fract_y
  _atom_site_fract_z
  _atom_site_occupancy
  Ba  Ba1       1.0  0.24999998263005568  0.25000002563328744  0.24999999482287996  1.0000
  Ba  Ba2       1.0  0.7500000005926679  0.7500000005273845  0.7499999828208468  1.0000
  Cu  Cu1       1.0  2.1997037282586467e-08  0.999999969038185  0.9999999775168249  1.0000
  O   O1        1.0  0.22142366601378927  0.22142363671643106  0.7785763900203612  1.0000
  O   O2        1.0  0.7785763367101619  0.7785763192641253  0.22142368543276383  1.0000
  O   O3        1.0  0.7785763303564008  0.22142365534683206  0.22142367780380973  1.0000
  O   O4        1.0  0.2214236415237838  0.7785763873268077  0.7785763343323533  1.0000
  O   O5        1.0  0.22142368550093056  0.7785763922678325  0.2214235907162699  1.0000
  O   O6        1.0  0.7785763257728904  0.22142362563635568  0.7785763483792383  1.0000
