data_image0
_chemical_formula_structural       Ba2CS6
_chemical_formula_sum              "Ba2 C1 S6"
_cell_length_a       6.513842530817629
_cell_length_b       6.513845652988213
_cell_length_c       6.513846804491659
_cell_angle_alpha    59.999999642007495
_cell_angle_beta     60.00000041712713
_cell_angle_gamma    59.99999927005515

_space_group_name_H-M_alt    "P 1"
_space_group_IT_number       1

loop_
  _space_group_symop_operation_xyz
  'x, y, z'

loop_
  _atom_site_type_symbol
  _atom_site_label
  _atom_site_symmetry_multiplicity
  _atom_site_fract_x
  _atom_site_fract_y
  _atom_site_fract_z
  _atom_site_occupancy
  Ba  Ba1       1.0  0.2500003165627413  0.25000010861201705  0.249999690320388  1.0000
  Ba  Ba2       1.0  0.7499996760449407  0.7499999986782689  0.7500003994672276  1.0000
  C   C1        1.0  0.9999996547252222  0.9999996690817308  0.9999990669581756  1.0000
  S   S1        1.0  0.22100302226064097  0.22100305869943201  0.7789965674163416  1.0000
  S   S2        1.0  0.778996727562525  0.7789969207360821  0.2210030629105869  1.0000
  S   S3        1.0  0.7789963851593038  0.22100378335435197  0.22100368647648405  1.0000
  S   S4        1.0  0.22100304724823272  0.7789971004659253  0.778996642099348  1.0000
  S   S5        1.0  0.22100343348600818  0.7789967758223837  0.22100395211144047  1.0000
  S   S6        1.0  0.7789977076392742  0.2210025662191288  0.7789970974352881  1.0000
