data_image0
_chemical_formula_structural       Ba2CrS6
_chemical_formula_sum              "Ba2 Cr1 S6"
_cell_length_a       6.591488146639636
_cell_length_b       6.591487636326124
_cell_length_c       6.591487977796554
_cell_angle_alpha    59.99999927018538
_cell_angle_beta     60.000001193263365
_cell_angle_gamma    59.99999810916729

_space_group_name_H-M_alt    "P 1"
_space_group_IT_number       1

loop_
  _space_group_symop_operation_xyz
  'x, y, z'

loop_
  _atom_site_type_symbol
  _atom_site_label
  _atom_site_symmetry_multiplicity
  _atom_site_fract_x
  _atom_site_fract_y
  _atom_site_fract_z
  _atom_site_occupancy
  Ba  Ba1       1.0  0.25000000230652675  0.25000003132359133  0.24999998283033284  1.0000
  Ba  Ba2       1.0  0.7500000171845522  0.7499999843446123  0.7500000072742414  1.0000
  Cr  Cr1       1.0  1.8619564977477959e-07  0.9999994834563886  4.835665144888118e-08  1.0000
  S   S1        1.0  0.24695586501264438  0.2469560057529045  0.7530440735018171  1.0000
  S   S2        1.0  0.7530440103141549  0.7530441901481424  0.24695592739353062  1.0000
  S   S3        1.0  0.7530439693696644  0.24695611962894448  0.24695597236138586  1.0000
  S   S4        1.0  0.2469560109956675  0.7530440186719155  0.7530440381911678  1.0000
  S   S5        1.0  0.2469559964531348  0.7530440359856632  0.24695599549578348  1.0000
  S   S6        1.0  0.7530439525739946  0.24695612275397208  0.7530439507195099  1.0000
