data_image0
_chemical_formula_structural       Ba2CoTe6
_chemical_formula_sum              "Ba2 Co1 Te6"
_cell_length_a       7.289369144060373
_cell_length_b       7.289369591651295
_cell_length_c       7.289369508856748
_cell_angle_alpha    60.00000083718707
_cell_angle_beta     60.00000113825609
_cell_angle_gamma    60.00000213639775

_space_group_name_H-M_alt    "P 1"
_space_group_IT_number       1

loop_
  _space_group_symop_operation_xyz
  'x, y, z'

loop_
  _atom_site_type_symbol
  _atom_site_label
  _atom_site_symmetry_multiplicity
  _atom_site_fract_x
  _atom_site_fract_y
  _atom_site_fract_z
  _atom_site_occupancy
  Ba  Ba1       1.0  0.24999999094342878  0.24999992932001266  0.2500000714763939  1.0000
  Ba  Ba2       1.0  0.7499999518004885  0.7500000601490984  0.7499999845881332  1.0000
  Co  Co1       1.0  0.9999999202355209  1.6801786558280787e-09  8.84291359621579e-08  1.0000
  Te  Te1       1.0  0.24539199402197598  0.24539207331874321  0.7546079752671105  1.0000
  Te  Te2       1.0  0.7546080554955303  0.7546079379927003  0.24539201648945816  1.0000
  Te  Te3       1.0  0.7546079885164679  0.24539212299793475  0.24539198751545527  1.0000
  Te  Te4       1.0  0.24539209316325938  0.7546078631108186  0.7546079321683106  1.0000
  Te  Te5       1.0  0.24539205461027624  0.7546078977461008  0.2453920416566246  1.0000
  Te  Te6       1.0  0.754607958665376  0.24539210348426682  0.7546078950653452  1.0000
