data_image0
_chemical_formula_structural       Ba2CuS6
_chemical_formula_sum              "Ba2 Cu1 S6"
_cell_length_a       6.542240524189452
_cell_length_b       6.542240400116691
_cell_length_c       6.542239771687535
_cell_angle_alpha    60.000002542725476
_cell_angle_beta     60.00000085938499
_cell_angle_gamma    59.999996468013904

_space_group_name_H-M_alt    "P 1"
_space_group_IT_number       1

loop_
  _space_group_symop_operation_xyz
  'x, y, z'

loop_
  _atom_site_type_symbol
  _atom_site_label
  _atom_site_symmetry_multiplicity
  _atom_site_fract_x
  _atom_site_fract_y
  _atom_site_fract_z
  _atom_site_occupancy
  Ba  Ba1       1.0  0.25000002324160636  0.2500000412397822  0.24999997844381872  1.0000
  Ba  Ba2       1.0  0.7499999610998535  0.7499999889312295  0.7500000295244876  1.0000
  Cu  Cu1       1.0  3.3534858432735583e-08  0.9999999999999981  0.9999999557190579  1.0000
  S   S1        1.0  0.2530065590048798  0.2530065164578938  0.7469935178343936  1.0000
  S   S2        1.0  0.7469934728139879  0.7469934612955127  0.2530065476310368  1.0000
  S   S3        1.0  0.7469934915096077  0.25300653634362164  0.253006545782479  1.0000
  S   S4        1.0  0.25300651923641826  0.7469934357936138  0.7469934260304629  1.0000
  S   S5        1.0  0.25300651104757804  0.746993493756163  0.2530065644052198  1.0000
  S   S6        1.0  0.7469934270828833  0.25300655326336635  0.7469933955746592  1.0000
