data_image0
_chemical_formula_structural       Ba2CoS6
_chemical_formula_sum              "Ba2 Co1 S6"
_cell_length_a       6.5796240655942
_cell_length_b       6.579625598157604
_cell_length_c       6.579624636040651
_cell_angle_alpha    59.999996596497716
_cell_angle_beta     59.99999670035204
_cell_angle_gamma    59.99999490985237

_space_group_name_H-M_alt    "P 1"
_space_group_IT_number       1

loop_
  _space_group_symop_operation_xyz
  'x, y, z'

loop_
  _atom_site_type_symbol
  _atom_site_label
  _atom_site_symmetry_multiplicity
  _atom_site_fract_x
  _atom_site_fract_y
  _atom_site_fract_z
  _atom_site_occupancy
  Ba  Ba1       1.0  0.2500000254472296  0.2499999984173507  0.2500000190984976  1.0000
  Ba  Ba2       1.0  0.7499999992662384  0.7499999263795116  0.7500000512376287  1.0000
  Co  Co1       1.0  0.9999998607373373  1.861433998175623e-09  3.5264056847274056e-08  1.0000
  S   S1        1.0  0.23916629197808006  0.23916634907087644  0.7608336704814631  1.0000
  S   S2        1.0  0.760833785949999  0.7608336687970032  0.2391662932752853  1.0000
  S   S3        1.0  0.7608337394672624  0.23916633902723597  0.2391662847745679  1.0000
  S   S4        1.0  0.23916617505134724  0.7608338426456461  0.7608337046217443  1.0000
  S   S5        1.0  0.23916629981043883  0.76083368577157  0.23916630652331122  1.0000
  S   S6        1.0  0.7608338735975153  0.2391661720141514  0.7608336849750577  1.0000
