data_image0
_chemical_formula_structural       Ba2CdTe6
_chemical_formula_sum              "Ba2 Cd1 Te6"
_cell_length_a       7.6042929110666
_cell_length_b       7.6042929598754165
_cell_length_c       7.604288991445822
_cell_angle_alpha    60.000021872943606
_cell_angle_beta     60.00002157259951
_cell_angle_gamma    59.999968487071655

_space_group_name_H-M_alt    "P 1"
_space_group_IT_number       1

loop_
  _space_group_symop_operation_xyz
  'x, y, z'

loop_
  _atom_site_type_symbol
  _atom_site_label
  _atom_site_symmetry_multiplicity
  _atom_site_fract_x
  _atom_site_fract_y
  _atom_site_fract_z
  _atom_site_occupancy
  Ba  Ba1       1.0  0.25000007163683724  0.25000014387670655  0.2499998955928614  1.0000
  Ba  Ba2       1.0  0.750000151863621  0.7499999420087987  0.7500000328101797  1.0000
  Cd  Cd1       1.0  2.725457300320301e-07  0.9999999613455383  0.9999998396578117  1.0000
  Te  Te1       1.0  0.2744284872620716  0.27442866917691355  0.7255714944458402  1.0000
  Te  Te2       1.0  0.7255711292947219  0.7255711010319851  0.2744289833754765  1.0000
  Te  Te3       1.0  0.7255715966590669  0.27442825449162567  0.2744281843863335  1.0000
  Te  Te4       1.0  0.27442828133207975  0.7255718475000229  0.7255718219251561  1.0000
  Te  Te5       1.0  0.2744282126578103  0.7255718187483009  0.2744279788345665  1.0000
  Te  Te6       1.0  0.7255718055708168  0.27442828163266914  0.7255717161948169  1.0000
