data_image0
_chemical_formula_structural       Ba2CaO6
_chemical_formula_sum              "Ba2 Ca1 O6"
_cell_length_a       5.953673768569106
_cell_length_b       5.953673496256782
_cell_length_c       5.953673528383306
_cell_angle_alpha    60.000002274808374
_cell_angle_beta     60.00000079675959
_cell_angle_gamma    60.000000649248975

_space_group_name_H-M_alt    "P 1"
_space_group_IT_number       1

loop_
  _space_group_symop_operation_xyz
  'x, y, z'

loop_
  _atom_site_type_symbol
  _atom_site_label
  _atom_site_symmetry_multiplicity
  _atom_site_fract_x
  _atom_site_fract_y
  _atom_site_fract_z
  _atom_site_occupancy
  Ba  Ba1       1.0  0.24999995476997028  0.24999998296628131  0.24999994166708456  1.0000
  Ba  Ba2       1.0  0.7499999916664953  0.7500000846690826  0.7500000948706719  1.0000
  Ca  Ca1       1.0  1.4946074781953905e-07  0.9999997901732696  0.9999994641459033  1.0000
  O   O1        1.0  0.27409411869991485  0.2740940641516684  0.7259058909784946  1.0000
  O   O2        1.0  0.7259059099776999  0.7259060302263152  0.27409406755248367  1.0000
  O   O3        1.0  0.7259057783633575  0.274094158903307  0.2740942373590925  1.0000
  O   O4        1.0  0.2740939062606111  0.7259060774162871  0.7259061699124072  1.0000
  O   O5        1.0  0.2740941558968298  0.7259058129634881  0.2740941746678614  1.0000
  O   O6        1.0  0.7259060249070777  0.27409399958842295  0.725905964607834  1.0000
