data_image0
_chemical_formula_structural       Ba2CoO6
_chemical_formula_sum              "Ba2 Co1 O6"
_cell_length_a       5.903959870138272
_cell_length_b       5.903960286752782
_cell_length_c       5.903959768723486
_cell_angle_alpha    60.00000380224443
_cell_angle_beta     60.000001873156684
_cell_angle_gamma    60.000004834610394

_space_group_name_H-M_alt    "P 1"
_space_group_IT_number       1

loop_
  _space_group_symop_operation_xyz
  'x, y, z'

loop_
  _atom_site_type_symbol
  _atom_site_label
  _atom_site_symmetry_multiplicity
  _atom_site_fract_x
  _atom_site_fract_y
  _atom_site_fract_z
  _atom_site_occupancy
  Ba  Ba1       1.0  0.2500000077443179  0.2500000413218026  0.2499998942046856  1.0000
  Ba  Ba2       1.0  0.749999982361068  0.7499999766797283  0.750000173037002  1.0000
  Co  Co1       1.0  6.3179014391082e-08  0.9999999688833076  0.9999999094425863  1.0000
  O   O1        1.0  0.2148145658007911  0.21481459781573345  0.7851853389920047  1.0000
  O   O2        1.0  0.7851854153356794  0.7851854118880114  0.21481453193583744  1.0000
  O   O3        1.0  0.7851853822514415  0.21481461401334284  0.2148146296193412  1.0000
  O   O4        1.0  0.21481445085378076  0.7851855346782972  0.7851855642605312  1.0000
  O   O5        1.0  0.21481462599135057  0.7851853740152954  0.21481451421241815  1.0000
  O   O6        1.0  0.7851855278120944  0.21481446973275597  0.7851854363549298  1.0000
