data_image0
_chemical_formula_structural       Ba2CrTe6
_chemical_formula_sum              "Ba2 Cr1 Te6"
_cell_length_a       7.406818648287219
_cell_length_b       7.406818804314862
_cell_length_c       7.406817358880418
_cell_angle_alpha    60.000001829286006
_cell_angle_beta     60.0000067319296
_cell_angle_gamma    59.99999133976832

_space_group_name_H-M_alt    "P 1"
_space_group_IT_number       1

loop_
  _space_group_symop_operation_xyz
  'x, y, z'

loop_
  _atom_site_type_symbol
  _atom_site_label
  _atom_site_symmetry_multiplicity
  _atom_site_fract_x
  _atom_site_fract_y
  _atom_site_fract_z
  _atom_site_occupancy
  Ba  Ba1       1.0  0.25000000262156097  0.2499999957437959  0.25000002504365587  1.0000
  Ba  Ba2       1.0  0.7499999955658304  0.7500000054203014  0.7499999830788382  1.0000
  Cr  Cr1       1.0  0.9999998971997653  1.5873957250001524e-07  0.999999858621291  1.0000
  Te  Te1       1.0  0.2620712098752855  0.2620715139239533  0.7379287201236586  1.0000
  Te  Te2       1.0  0.737928882433921  0.737928429366333  0.26207133467999844  1.0000
  Te  Te3       1.0  0.7379287063983784  0.26207136186741126  0.2620714101656298  1.0000
  Te  Te4       1.0  0.2620712880415544  0.7379286178007078  0.7379285673751422  1.0000
  Te  Te5       1.0  0.2620711536105389  0.7379287966319399  0.2620714125870071  1.0000
  Te  Te6       1.0  0.7379288563569831  0.2620711317765234  0.7379286935286187  1.0000
