data_image0
_chemical_formula_structural       Ba2CdSe6
_chemical_formula_sum              "Ba2 Cd1 Se6"
_cell_length_a       7.070697900886733
_cell_length_b       7.070698181807374
_cell_length_c       7.070695227332694
_cell_angle_alpha    59.99995053396737
_cell_angle_beta     60.000084696145265
_cell_angle_gamma    59.99998763820278

_space_group_name_H-M_alt    "P 1"
_space_group_IT_number       1

loop_
  _space_group_symop_operation_xyz
  'x, y, z'

loop_
  _atom_site_type_symbol
  _atom_site_label
  _atom_site_symmetry_multiplicity
  _atom_site_fract_x
  _atom_site_fract_y
  _atom_site_fract_z
  _atom_site_occupancy
  Ba  Ba1       1.0  0.2500008196145713  0.24999955466413495  0.24999983481520327  1.0000
  Ba  Ba2       1.0  0.7499999489392192  0.7499994278672204  0.750000480701745  1.0000
  Cd  Cd1       1.0  3.28605888007377e-07  2.2084815365334157e-06  0.9999988955128284  1.0000
  Se  Se1       1.0  0.27968962482741144  0.27969029387270744  0.7203112959270981  1.0000
  Se  Se2       1.0  0.7203099034313982  0.7203085587478587  0.2796898404637766  1.0000
  Se  Se3       1.0  0.7203090995985163  0.2796890051962221  0.2796902151299881  1.0000
  Se  Se4       1.0  0.27969093675178763  0.7203103220329216  0.7203088727797213  1.0000
  Se  Se5       1.0  0.27969044791856135  0.7203099598307785  0.27969047089285326  1.0000
  Se  Se6       1.0  0.7203090804324412  0.2796902300036629  0.7203101453445966  1.0000
