data_image0
_chemical_formula_structural       Ba2CaSe6
_chemical_formula_sum              "Ba2 Ca1 Se6"
_cell_length_a       7.255649974738269
_cell_length_b       7.255650321581702
_cell_length_c       7.255649735851251
_cell_angle_alpha    59.999998812605575
_cell_angle_beta     60.000002881117474
_cell_angle_gamma    59.99999755700075

_space_group_name_H-M_alt    "P 1"
_space_group_IT_number       1

loop_
  _space_group_symop_operation_xyz
  'x, y, z'

loop_
  _atom_site_type_symbol
  _atom_site_label
  _atom_site_symmetry_multiplicity
  _atom_site_fract_x
  _atom_site_fract_y
  _atom_site_fract_z
  _atom_site_occupancy
  Ba  Ba1       1.0  0.24999998567571488  0.2499999682559089  0.250000023551637  1.0000
  Ba  Ba2       1.0  0.7500000159245162  0.7500000431827223  0.7499999609728335  1.0000
  Ca  Ca1       1.0  1.0199903392755658e-07  0.9999999088486649  0.9999998360789777  1.0000
  Se  Se1       1.0  0.2820877692962829  0.2820877082156905  0.7179123042717126  1.0000
  Se  Se2       1.0  0.7179121868110963  0.7179122964709883  0.28208776563932136  1.0000
  Se  Se3       1.0  0.7179121895081559  0.2820877206857666  0.2820877899649005  1.0000
  Se  Se4       1.0  0.2820876501474681  0.7179124376078008  0.7179123082285958  1.0000
  Se  Se5       1.0  0.28208777235422344  0.7179123195160826  0.282087730134129  1.0000
  Se  Se6       1.0  0.7179123248792472  0.2820876007712045  0.7179122769576516  1.0000
