data_image0
_chemical_formula_structural       Ba2CoSe6
_chemical_formula_sum              "Ba2 Co1 Se6"
_cell_length_a       6.799045159378838
_cell_length_b       6.799045059067685
_cell_length_c       6.799044962113613
_cell_angle_alpha    60.000000350879326
_cell_angle_beta     60.00000146662629
_cell_angle_gamma    60.00000664600263

_space_group_name_H-M_alt    "P 1"
_space_group_IT_number       1

loop_
  _space_group_symop_operation_xyz
  'x, y, z'

loop_
  _atom_site_type_symbol
  _atom_site_label
  _atom_site_symmetry_multiplicity
  _atom_site_fract_x
  _atom_site_fract_y
  _atom_site_fract_z
  _atom_site_occupancy
  Ba  Ba1       1.0  0.24999998401220289  0.2500000049126425  0.2500000002283129  1.0000
  Ba  Ba2       1.0  0.7500000105862318  0.7500000021284935  0.7499999850688182  1.0000
  Co  Co1       1.0  1.563814700958582e-07  1.1168360768995267e-07  0.999999795369311  1.0000
  Se  Se1       1.0  0.24716705869645705  0.24716719548510827  0.7528329527423521  1.0000
  Se  Se2       1.0  0.7528329282345048  0.7528327683236672  0.24716713889841002  1.0000
  Se  Se3       1.0  0.7528328510899946  0.24716715054284963  0.24716713903630072  1.0000
  Se  Se4       1.0  0.24716705660235294  0.7528328420874933  0.7528329101564234  1.0000
  Se  Se5       1.0  0.2471671037123043  0.7528328509540733  0.24716718512425742  1.0000
  Se  Se6       1.0  0.7528328415669616  0.24716710024526112  0.7528328689321018  1.0000
