data_image0
_chemical_formula_structural       Ba2CuTe6
_chemical_formula_sum              "Ba2 Cu1 Te6"
_cell_length_a       7.331495489230125
_cell_length_b       7.331494598936269
_cell_length_c       7.33149532177068
_cell_angle_alpha    59.999998139382825
_cell_angle_beta     60.00000206841502
_cell_angle_gamma    59.99999263917508

_space_group_name_H-M_alt    "P 1"
_space_group_IT_number       1

loop_
  _space_group_symop_operation_xyz
  'x, y, z'

loop_
  _atom_site_type_symbol
  _atom_site_label
  _atom_site_symmetry_multiplicity
  _atom_site_fract_x
  _atom_site_fract_y
  _atom_site_fract_z
  _atom_site_occupancy
  Ba  Ba1       1.0  0.24999991290127715  0.25000009332724127  0.2500000332635861  1.0000
  Ba  Ba2       1.0  0.7500000134258953  0.7499999141366014  0.7500000389619849  1.0000
  Cu  Cu1       1.0  3.5289248594754214e-07  0.9999999949884076  1.4932239675787246e-07  1.0000
  Te  Te1       1.0  0.26651914003546495  0.2665188497298511  0.733481088088467  1.0000
  Te  Te2       1.0  0.7334808095343454  0.7334811777802983  0.26651902250767423  1.0000
  Te  Te3       1.0  0.7334809929656525  0.2665188770745613  0.26651910473879686  1.0000
  Te  Te4       1.0  0.2665191288073812  0.7334808747988506  0.7334806729322398  1.0000
  Te  Te5       1.0  0.26651887472811314  0.7334812121578096  0.2665190634613514  1.0000
  Te  Te6       1.0  0.7334807678912081  0.26651899911016913  0.7334808277516036  1.0000
