data_image0
_chemical_formula_structural       Ba2CdS6
_chemical_formula_sum              "Ba2 Cd1 S6"
_cell_length_a       6.8140001406942
_cell_length_b       6.814000729292169
_cell_length_c       6.814000667040838
_cell_angle_alpha    60.00000244463385
_cell_angle_beta     59.99999971871369
_cell_angle_gamma    59.999999725147894

_space_group_name_H-M_alt    "P 1"
_space_group_IT_number       1

loop_
  _space_group_symop_operation_xyz
  'x, y, z'

loop_
  _atom_site_type_symbol
  _atom_site_label
  _atom_site_symmetry_multiplicity
  _atom_site_fract_x
  _atom_site_fract_y
  _atom_site_fract_z
  _atom_site_occupancy
  Ba  Ba1       1.0  0.2499999837917702  0.2500000296321041  0.25000001725884263  1.0000
  Ba  Ba2       1.0  0.7500000460350772  0.7499999828500233  0.7499999136482591  1.0000
  Cd  Cd1       1.0  1.574773806534125e-08  3.5947887150935557e-09  0.9999999873936036  1.0000
  S   S1        1.0  0.2719670830649991  0.27196697620803006  0.7280329784075757  1.0000
  S   S2        1.0  0.7280329169433367  0.7280330596402296  0.27196701296081427  1.0000
  S   S3        1.0  0.7280329189332871  0.27196700627415  0.271967083232154  1.0000
  S   S4        1.0  0.27196709299015887  0.7280329379069826  0.7280329436095431  1.0000
  S   S5        1.0  0.2719671031728678  0.7280329217623566  0.27196705933111937  1.0000
  S   S6        1.0  0.7280328420267694  0.2719670853275911  0.7280330061072404  1.0000
