data_image0
_chemical_formula_structural       Ba2FeO6
_chemical_formula_sum              "Ba2 Fe1 O6"
_cell_length_a       5.932195818594066
_cell_length_b       5.9321956091966594
_cell_length_c       5.93219541198842
_cell_angle_alpha    60.000000735607
_cell_angle_beta     60.00000190748863
_cell_angle_gamma    60.00000190163232

_space_group_name_H-M_alt    "P 1"
_space_group_IT_number       1

loop_
  _space_group_symop_operation_xyz
  'x, y, z'

loop_
  _atom_site_type_symbol
  _atom_site_label
  _atom_site_symmetry_multiplicity
  _atom_site_fract_x
  _atom_site_fract_y
  _atom_site_fract_z
  _atom_site_occupancy
  Ba  Ba1       1.0  0.2500000092586176  0.2500000391951719  0.24999997508054514  1.0000
  Ba  Ba2       1.0  0.7500000175340236  0.7500000081631666  0.7500000693595523  1.0000
  Fe  Fe1       1.0  0.9999999779205937  0.9999999669668378  0.9999999870990871  1.0000
  O   O1        1.0  0.2188371375546896  0.21883709112278507  0.7811628790716003  1.0000
  O   O2        1.0  0.7811629134224475  0.7811629128795292  0.21883706706840214  1.0000
  O   O3        1.0  0.781162904248063  0.2188371054382549  0.21883713009124753  1.0000
  O   O4        1.0  0.2188370811182705  0.7811629026932031  0.7811628872467822  1.0000
  O   O5        1.0  0.21883709412202068  0.7811628464414158  0.21883714946331373  1.0000
  O   O6        1.0  0.7811628991888953  0.21883708530085563  0.7811628599541045  1.0000
