data_image0
_chemical_formula_structural       Ba2FeS6
_chemical_formula_sum              "Ba2 Fe1 S6"
_cell_length_a       6.619163190606482
_cell_length_b       6.619163197021911
_cell_length_c       6.619163282313843
_cell_angle_alpha    59.99999865496424
_cell_angle_beta     59.99999866889233
_cell_angle_gamma    59.999998720224994

_space_group_name_H-M_alt    "P 1"
_space_group_IT_number       1

loop_
  _space_group_symop_operation_xyz
  'x, y, z'

loop_
  _atom_site_type_symbol
  _atom_site_label
  _atom_site_symmetry_multiplicity
  _atom_site_fract_x
  _atom_site_fract_y
  _atom_site_fract_z
  _atom_site_occupancy
  Ba  Ba1       1.0  0.2500000551342618  0.2500000175958702  0.24999996158595536  1.0000
  Ba  Ba2       1.0  0.7499999381092868  0.7500000490870087  0.7499999488889092  1.0000
  Fe  Fe1       1.0  1.0417607934706222e-07  0.9999999648442669  1.3834305370284866e-08  1.0000
  S   S1        1.0  0.23754194092132483  0.23754195867107228  0.7624580421056598  1.0000
  S   S2        1.0  0.762458023300967  0.7624580747063758  0.23754193881243788  1.0000
  S   S3        1.0  0.7624579993924716  0.2375419914557648  0.2375419638197166  1.0000
  S   S4        1.0  0.23754190728009764  0.7624580104665548  0.7624580555577475  1.0000
  S   S5        1.0  0.2375419632850319  0.7624580290050534  0.23754198708859073  1.0000
  S   S6        1.0  0.7624580740482957  0.23754192110881772  0.7624580623579065  1.0000
