data_image0
_chemical_formula_structural       Ba2FeSe6
_chemical_formula_sum              "Ba2 Fe1 Se6"
_cell_length_a       6.873439116810969
_cell_length_b       6.873439110909277
_cell_length_c       6.873439321392476
_cell_angle_alpha    60.000001307787336
_cell_angle_beta     60.00000075506483
_cell_angle_gamma    60.00000073290839

_space_group_name_H-M_alt    "P 1"
_space_group_IT_number       1

loop_
  _space_group_symop_operation_xyz
  'x, y, z'

loop_
  _atom_site_type_symbol
  _atom_site_label
  _atom_site_symmetry_multiplicity
  _atom_site_fract_x
  _atom_site_fract_y
  _atom_site_fract_z
  _atom_site_occupancy
  Ba  Ba1       1.0  0.2499999831036132  0.25000000755481994  0.2500000064216613  1.0000
  Ba  Ba2       1.0  0.7500000123685029  0.7500000048459436  0.7500000024649136  1.0000
  Fe  Fe1       1.0  2.7371177793953764e-08  3.5637031526855566e-09  0.9999999816228085  1.0000
  Se  Se1       1.0  0.23753407864828452  0.2375340641785932  0.7624659167597254  1.0000
  Se  Se2       1.0  0.7624659203875345  0.7624659375310601  0.2375340636832871  1.0000
  Se  Se3       1.0  0.7624659599228654  0.23753402138572974  0.2375340269605537  1.0000
  Se  Se4       1.0  0.23753405060182547  0.7624659357776337  0.7624659787404217  1.0000
  Se  Se5       1.0  0.23753403741991988  0.7624659628368813  0.23753404306988485  1.0000
  Se  Se6       1.0  0.7624659287972613  0.23753405669128883  0.7624659797902055  1.0000
