data_image0
_chemical_formula_structural       Ba2GeTe6
_chemical_formula_sum              "Ba2 Ge1 Te6"
_cell_length_a       7.529221764880326
_cell_length_b       7.529221732164155
_cell_length_c       7.529221532788487
_cell_angle_alpha    59.99999960590509
_cell_angle_beta     60.00000017267278
_cell_angle_gamma    59.99999810302497

_space_group_name_H-M_alt    "P 1"
_space_group_IT_number       1

loop_
  _space_group_symop_operation_xyz
  'x, y, z'

loop_
  _atom_site_type_symbol
  _atom_site_label
  _atom_site_symmetry_multiplicity
  _atom_site_fract_x
  _atom_site_fract_y
  _atom_site_fract_z
  _atom_site_occupancy
  Ba  Ba1       1.0  0.2500000208273836  0.2499999811363461  0.24999999018444508  1.0000
  Ba  Ba2       1.0  0.7499999648244601  0.7500000247418075  0.7499999973100157  1.0000
  Ge  Ge1       1.0  0.9999999945937772  0.9999999886134124  2.3006149462589606e-08  1.0000
  Te  Te1       1.0  0.26866383971431357  0.26866369658187034  0.7313362178858684  1.0000
  Te  Te2       1.0  0.731336119541665  0.7313362458567251  0.26866380655735334  1.0000
  Te  Te3       1.0  0.731336262838562  0.2686637945880144  0.268663847111335  1.0000
  Te  Te4       1.0  0.26866374913207913  0.7313362519565222  0.7313361387663405  1.0000
  Te  Te5       1.0  0.26866379195677387  0.7313362457504533  0.26866383556944934  1.0000
  Te  Te6       1.0  0.731336250160118  0.26866377476759706  0.731336141607551  1.0000
