data_image0
_chemical_formula_structural       Ba2GeSe6
_chemical_formula_sum              "Ba2 Ge1 Se6"
_cell_length_a       6.971265024700987
_cell_length_b       6.971264781350007
_cell_length_c       6.9712647519479995
_cell_angle_alpha    60.0000008348883
_cell_angle_beta     60.00000010397762
_cell_angle_gamma    59.99999800951551

_space_group_name_H-M_alt    "P 1"
_space_group_IT_number       1

loop_
  _space_group_symop_operation_xyz
  'x, y, z'

loop_
  _atom_site_type_symbol
  _atom_site_label
  _atom_site_symmetry_multiplicity
  _atom_site_fract_x
  _atom_site_fract_y
  _atom_site_fract_z
  _atom_site_occupancy
  Ba  Ba1       1.0  0.2500000155051862  0.24999999536396786  0.2499999841666538  1.0000
  Ba  Ba2       1.0  0.7499999687493288  0.7500000106877698  0.7500000077743427  1.0000
  Ge  Ge1       1.0  0.9999999483855324  0.9999999560788146  2.768538761032256e-08  1.0000
  Se  Se1       1.0  0.25432737270786376  0.25432733984703154  0.7456726295817315  1.0000
  Se  Se2       1.0  0.745672687036413  0.7456727030985012  0.25432732768438526  1.0000
  Se  Se3       1.0  0.7456726934307759  0.2543273159715941  0.2543272758811261  1.0000
  Se  Se4       1.0  0.25432728234092844  0.7456727006212289  0.7456727480233118  1.0000
  Se  Se5       1.0  0.2543273270867047  0.7456727033222856  0.2543272766832543  1.0000
  Se  Se6       1.0  0.7456726996650958  0.25432727461989224  0.7456727238429381  1.0000
