data_image0
_chemical_formula_structural       Ba2GeS6
_chemical_formula_sum              "Ba2 Ge1 S6"
_cell_length_a       6.800835243152484
_cell_length_b       6.800835284840385
_cell_length_c       6.8008351800982405
_cell_angle_alpha    59.999998997565264
_cell_angle_beta     59.99999962278238
_cell_angle_gamma    60.00000094168515

_space_group_name_H-M_alt    "P 1"
_space_group_IT_number       1

loop_
  _space_group_symop_operation_xyz
  'x, y, z'

loop_
  _atom_site_type_symbol
  _atom_site_label
  _atom_site_symmetry_multiplicity
  _atom_site_fract_x
  _atom_site_fract_y
  _atom_site_fract_z
  _atom_site_occupancy
  Ba  Ba1       1.0  0.24999997369033675  0.25000000702233693  0.2500000172509634  1.0000
  Ba  Ba2       1.0  0.7500000502305904  0.7499999850495291  0.7499999860665413  1.0000
  Ge  Ge1       1.0  0.9999999457708184  0.9999999945973763  4.893120229854926e-08  1.0000
  S   S1        1.0  0.24530506163542556  0.24530505220897908  0.7546949595782333  1.0000
  S   S2        1.0  0.7546949431968419  0.7546949614733769  0.24530506012324763  1.0000
  S   S3        1.0  0.7546949200480053  0.24530508563627731  0.24530507516386837  1.0000
  S   S4        1.0  0.2453051199601249  0.7546948938294705  0.7546948675967885  1.0000
  S   S5        1.0  0.24530507244632793  0.7546949246550052  0.24530507038619087  1.0000
  S   S6        1.0  0.7546948833357227  0.24530510883696738  0.75469488306317  1.0000
