data_image0
_chemical_formula_structural       Ba2GeO6
_chemical_formula_sum              "Ba2 Ge1 O6"
_cell_length_a       6.001266043713615
_cell_length_b       6.001265924894192
_cell_length_c       6.001266190797561
_cell_angle_alpha    59.99999989814444
_cell_angle_beta     59.999999783506915
_cell_angle_gamma    60.00000051478955

_space_group_name_H-M_alt    "P 1"
_space_group_IT_number       1

loop_
  _space_group_symop_operation_xyz
  'x, y, z'

loop_
  _atom_site_type_symbol
  _atom_site_label
  _atom_site_symmetry_multiplicity
  _atom_site_fract_x
  _atom_site_fract_y
  _atom_site_fract_z
  _atom_site_occupancy
  Ba  Ba1       1.0  0.2500000218176311  0.25000002609467986  0.24999993218698052  1.0000
  Ba  Ba2       1.0  0.749999983107011  0.7499999905291735  0.7500000532417618  1.0000
  Ge  Ge1       1.0  0.9999999792817946  1.0204053981904687e-08  0.9999999952591856  1.0000
  O   O1        1.0  0.22066755534561333  0.22066752719729577  0.7793324568621957  1.0000
  O   O2        1.0  0.7793324474415274  0.7793324669776384  0.22066755585659187  1.0000
  O   O3        1.0  0.7793324762068832  0.22066753347270315  0.22066751550552194  1.0000
  O   O4        1.0  0.2206675019938369  0.7793325056000693  0.7793324420670514  1.0000
  O   O5        1.0  0.2206675301076396  0.7793324574009459  0.22066753650555435  1.0000
  O   O6        1.0  0.7793324918237591  0.2206675082026361  0.7793324575983697  1.0000
