data_image0
_chemical_formula_structural       Ba2HgO6
_chemical_formula_sum              "Ba2 Hg1 O6"
_cell_length_a       6.091069956397189
_cell_length_b       6.091069957036505
_cell_length_c       6.091069886765834
_cell_angle_alpha    59.999999586620035
_cell_angle_beta     60.00000000947783
_cell_angle_gamma    60.00000113702331

_space_group_name_H-M_alt    "P 1"
_space_group_IT_number       1

loop_
  _space_group_symop_operation_xyz
  'x, y, z'

loop_
  _atom_site_type_symbol
  _atom_site_label
  _atom_site_symmetry_multiplicity
  _atom_site_fract_x
  _atom_site_fract_y
  _atom_site_fract_z
  _atom_site_occupancy
  Ba  Ba1       1.0  0.2499999958532971  0.2499999660078303  0.25000003601637266  1.0000
  Ba  Ba2       1.0  0.7500000383600741  0.7499999844845403  0.7500000049417993  1.0000
  Hg  Hg1       1.0  5.457190725506603e-09  1.206433258351771e-08  0.9999999698965181  1.0000
  O   O1        1.0  0.23944218090753128  0.23944216320049055  0.7605578378633965  1.0000
  O   O2        1.0  0.7605578200435268  0.7605578415813753  0.2394421810889502  1.0000
  O   O3        1.0  0.7605578632783426  0.2394421751148672  0.23944216289282014  1.0000
  O   O4        1.0  0.23944216488313314  0.7605578276562771  0.7605578270422014  1.0000
  O   O5        1.0  0.2394421391656866  0.7605578537447445  0.2394421576872186  1.0000
  O   O6        1.0  0.7605577853813192  0.23944218119795133  0.760557836776056  1.0000
