data_image0
_chemical_formula_structural       Ba2HgS6
_chemical_formula_sum              "Ba2 Hg1 S6"
_cell_length_a       6.794106570920426
_cell_length_b       6.794106863047068
_cell_length_c       6.7941067063098215
_cell_angle_alpha    59.99999642793293
_cell_angle_beta     59.999998231338246
_cell_angle_gamma    59.9999981709695

_space_group_name_H-M_alt    "P 1"
_space_group_IT_number       1

loop_
  _space_group_symop_operation_xyz
  'x, y, z'

loop_
  _atom_site_type_symbol
  _atom_site_label
  _atom_site_symmetry_multiplicity
  _atom_site_fract_x
  _atom_site_fract_y
  _atom_site_fract_z
  _atom_site_occupancy
  Ba  Ba1       1.0  0.2499999858117646  0.24999996936967125  0.25000002637654506  1.0000
  Ba  Ba2       1.0  0.7500000102394672  0.7500000505189719  0.7499999991849305  1.0000
  Hg  Hg1       1.0  0.9999999201059289  0.9999998521820818  0.9999998062364572  1.0000
  S   S1        1.0  0.2645305242403985  0.2645303810762423  0.7354695281687259  1.0000
  S   S2        1.0  0.735469606694808  0.7354696063645649  0.26453036522216894  1.0000
  S   S3        1.0  0.7354695338050481  0.26453044689372684  0.2645305025842339  1.0000
  S   S4        1.0  0.26453027290547076  0.7354697280234717  0.7354697403067996  1.0000
  S   S5        1.0  0.26453037993883594  0.7354696572578463  0.26453037895825093  1.0000
  S   S6        1.0  0.7354697692968591  0.2645303211696659  0.7354696525598399  1.0000
