data_image0
_chemical_formula_structural       Ba2HgTe6
_chemical_formula_sum              "Ba2 Hg1 Te6"
_cell_length_a       7.611534316017073
_cell_length_b       7.6115345911194074
_cell_length_c       7.611534764279815
_cell_angle_alpha    59.999995896297385
_cell_angle_beta     59.999994526229194
_cell_angle_gamma    59.99999341912741

_space_group_name_H-M_alt    "P 1"
_space_group_IT_number       1

loop_
  _space_group_symop_operation_xyz
  'x, y, z'

loop_
  _atom_site_type_symbol
  _atom_site_label
  _atom_site_symmetry_multiplicity
  _atom_site_fract_x
  _atom_site_fract_y
  _atom_site_fract_z
  _atom_site_occupancy
  Ba  Ba1       1.0  0.24999989905396416  0.2499998754736172  0.2500003175523353  1.0000
  Ba  Ba2       1.0  0.7499999110984278  0.7500003408454501  0.7499998736201288  1.0000
  Hg  Hg1       1.0  0.9999997666202602  4.022663193855967e-08  0.9999996590826629  1.0000
  Te  Te1       1.0  0.27569450273931156  0.27569404104820383  0.724305860360905  1.0000
  Te  Te2       1.0  0.7243057525081905  0.7243059049480253  0.275694159342507  1.0000
  Te  Te3       1.0  0.7243057263609222  0.27569407341984964  0.27569423707481666  1.0000
  Te  Te4       1.0  0.2756941226508062  0.7243062265705704  0.7243056681732719  1.0000
  Te  Te5       1.0  0.2756944604748238  0.7243057114723918  0.2756942775559377  1.0000
  Te  Te6       1.0  0.7243059054485455  0.2756937341048046  0.7243059041741797  1.0000
