data_image0
_chemical_formula_structural       Ba2InS6
_chemical_formula_sum              "Ba2 In1 S6"
_cell_length_a       6.882228885668772
_cell_length_b       6.882229032656823
_cell_length_c       6.882229152484636
_cell_angle_alpha    59.99999898328301
_cell_angle_beta     59.999999231682246
_cell_angle_gamma    59.99999814516577

_space_group_name_H-M_alt    "P 1"
_space_group_IT_number       1

loop_
  _space_group_symop_operation_xyz
  'x, y, z'

loop_
  _atom_site_type_symbol
  _atom_site_label
  _atom_site_symmetry_multiplicity
  _atom_site_fract_x
  _atom_site_fract_y
  _atom_site_fract_z
  _atom_site_occupancy
  Ba  Ba1       1.0  0.2500000034331162  0.2499999833283072  0.2499999971328163  1.0000
  Ba  Ba2       1.0  0.750000002366839  0.7500000140496536  0.7499999996577771  1.0000
  In  In1       1.0  1.557415679895967e-08  3.38119414557822e-08  1.1632390508868231e-08  1.0000
  S   S1        1.0  0.2654533033825991  0.2654533076877743  0.7345466797208392  1.0000
  S   S2        1.0  0.7345466295944385  0.7345466665557013  0.26545335633034983  1.0000
  S   S3        1.0  0.7345466894730763  0.26545328138226143  0.26545335488370503  1.0000
  S   S4        1.0  0.26545333596906573  0.7345467124365473  0.7345466236942478  1.0000
  S   S5        1.0  0.2654533524186634  0.7345466658636411  0.26545331761380203  1.0000
  S   S6        1.0  0.734546668769359  0.2654533457509266  0.7345466600054014  1.0000
