data_image0
_chemical_formula_structural       Ba2InO6
_chemical_formula_sum              "Ba2 In1 O6"
_cell_length_a       6.1004407993458925
_cell_length_b       6.10044061214644
_cell_length_c       6.100440707172935
_cell_angle_alpha    59.999999298688
_cell_angle_beta     60.00000008419648
_cell_angle_gamma    59.99999635202414

_space_group_name_H-M_alt    "P 1"
_space_group_IT_number       1

loop_
  _space_group_symop_operation_xyz
  'x, y, z'

loop_
  _atom_site_type_symbol
  _atom_site_label
  _atom_site_symmetry_multiplicity
  _atom_site_fract_x
  _atom_site_fract_y
  _atom_site_fract_z
  _atom_site_occupancy
  Ba  Ba1       1.0  0.24999997138110333  0.25000005251742624  0.2499999715730713  1.0000
  Ba  Ba2       1.0  0.7500000212531207  0.749999966827092  0.7499999630838051  1.0000
  In  In1       1.0  0.9999999595816749  2.0076347807882066e-09  4.2154506947150565e-08  1.0000
  O   O1        1.0  0.24742986420558893  0.24742979358415543  0.7525701950318928  1.0000
  O   O2        1.0  0.7525702038164775  0.7525702096992922  0.24742981815050213  1.0000
  O   O3        1.0  0.7525702181006338  0.24742973550412262  0.2474297930003607  1.0000
  O   O4        1.0  0.2474298021811871  0.7525702236113894  0.752570198927866  1.0000
  O   O5        1.0  0.24742976946617698  0.7525702258909789  0.2474298008674571  1.0000
  O   O6        1.0  0.7525702043547164  0.24742978743063918  0.7525702216119231  1.0000
