data_image0
_chemical_formula_structural       Ba2MgTe6
_chemical_formula_sum              "Ba2 Mg1 Te6"
_cell_length_a       7.580569855559483
_cell_length_b       7.580569930256887
_cell_length_c       7.5805696641353535
_cell_angle_alpha    60.00000145671638
_cell_angle_beta     60.00000261227286
_cell_angle_gamma    59.999999324210876

_space_group_name_H-M_alt    "P 1"
_space_group_IT_number       1

loop_
  _space_group_symop_operation_xyz
  'x, y, z'

loop_
  _atom_site_type_symbol
  _atom_site_label
  _atom_site_symmetry_multiplicity
  _atom_site_fract_x
  _atom_site_fract_y
  _atom_site_fract_z
  _atom_site_occupancy
  Ba  Ba1       1.0  0.25000006668464503  0.2499999848799733  0.24999995939215008  1.0000
  Ba  Ba2       1.0  0.7499999664442617  0.7499999837213894  0.7500000463986529  1.0000
  Mg  Mg1       1.0  5.2006574847937044e-09  0.9999999935374521  3.2290835034114786e-08  1.0000
  Te  Te1       1.0  0.27399464310773236  0.27399456585293186  0.7260054256486795  1.0000
  Te  Te2       1.0  0.7260053388303509  0.7260054512175396  0.273994578864656  1.0000
  Te  Te3       1.0  0.7260052857636261  0.27399477284786855  0.2739947215511448  1.0000
  Te  Te4       1.0  0.2739947399180408  0.7260052135255004  0.7260052579706817  1.0000
  Te  Te5       1.0  0.27399470449836244  0.7260052635158879  0.2739947446396931  1.0000
  Te  Te6       1.0  0.7260052539602182  0.2739947600171319  0.7260052354030675  1.0000
