data_image0
_chemical_formula_structural       Ba2MnS6
_chemical_formula_sum              "Ba2 Mn1 S6"
_cell_length_a       6.712232055329437
_cell_length_b       6.7122322631328775
_cell_length_c       6.712232000058495
_cell_angle_alpha    59.999999057710205
_cell_angle_beta     59.99999885004516
_cell_angle_gamma    59.999998525692334

_space_group_name_H-M_alt    "P 1"
_space_group_IT_number       1

loop_
  _space_group_symop_operation_xyz
  'x, y, z'

loop_
  _atom_site_type_symbol
  _atom_site_label
  _atom_site_symmetry_multiplicity
  _atom_site_fract_x
  _atom_site_fract_y
  _atom_site_fract_z
  _atom_site_occupancy
  Ba  Ba1       1.0  0.25000000017127727  0.24999999918169233  0.2500000261778807  1.0000
  Ba  Ba2       1.0  0.7499999828070406  0.7499999938957864  0.7500000117411785  1.0000
  Mn  Mn1       1.0  2.695280737500711e-09  0.9999998886965833  9.303932214724996e-08  1.0000
  S   S1        1.0  0.23780275929395137  0.23780280088009662  0.7621972163041216  1.0000
  S   S2        1.0  0.7621971293813138  0.7621971757755686  0.23780284569120688  1.0000
  S   S3        1.0  0.7621972498166127  0.23780281467900122  0.23780272515920883  1.0000
  S   S4        1.0  0.23780282876763895  0.7621972167160475  0.7621971474701487  1.0000
  S   S5        1.0  0.23780283947708006  0.7621972071353595  0.23780279343745842  1.0000
  S   S6        1.0  0.7621971513185172  0.23780291731664346  0.7621971361504445  1.0000
