data_image0
_chemical_formula_structural       Ba2MnSe6
_chemical_formula_sum              "Ba2 Mn1 Se6"
_cell_length_a       6.907873831098758
_cell_length_b       6.907874033019299
_cell_length_c       6.90787396292824
_cell_angle_alpha    59.99999925847844
_cell_angle_beta     59.99999991932034
_cell_angle_gamma    59.99999527867874

_space_group_name_H-M_alt    "P 1"
_space_group_IT_number       1

loop_
  _space_group_symop_operation_xyz
  'x, y, z'

loop_
  _atom_site_type_symbol
  _atom_site_label
  _atom_site_symmetry_multiplicity
  _atom_site_fract_x
  _atom_site_fract_y
  _atom_site_fract_z
  _atom_site_occupancy
  Ba  Ba1       1.0  0.24999996639104727  0.2500000394525953  0.24999997560464216  1.0000
  Ba  Ba2       1.0  0.7500000456660467  0.7499999747472585  0.7500000180206373  1.0000
  Mn  Mn1       1.0  0.9999999705693027  5.318908195409001e-08  1.707327512990552e-08  1.0000
  Se  Se1       1.0  0.2434595434106112  0.24345950614885611  0.7565404998847574  1.0000
  Se  Se2       1.0  0.756540484197618  0.756540481456456  0.24345954558617455  1.0000
  Se  Se3       1.0  0.7565404476388589  0.24345949418753557  0.24345950238025016  1.0000
  Se  Se4       1.0  0.2434595342633451  0.7565404650502705  0.7565404831366794  1.0000
  Se  Se5       1.0  0.24345956905526375  0.7565405326639992  0.24345941901717275  1.0000
  Se  Se6       1.0  0.7565404263035126  0.2434594513953771  0.7565405473606854  1.0000
