data_image0
_chemical_formula_structural       Ba2MnTe6
_chemical_formula_sum              "Ba2 Mn1 Te6"
_cell_length_a       7.324584363445429
_cell_length_b       7.324584075937381
_cell_length_c       7.324583841289928
_cell_angle_alpha    60.00000480156718
_cell_angle_beta     59.99999953729118
_cell_angle_gamma    60.00000187195327

_space_group_name_H-M_alt    "P 1"
_space_group_IT_number       1

loop_
  _space_group_symop_operation_xyz
  'x, y, z'

loop_
  _atom_site_type_symbol
  _atom_site_label
  _atom_site_symmetry_multiplicity
  _atom_site_fract_x
  _atom_site_fract_y
  _atom_site_fract_z
  _atom_site_occupancy
  Ba  Ba1       1.0  0.24999998433368986  0.24999992682048308  0.25000001603902045  1.0000
  Ba  Ba2       1.0  0.7500000016284196  0.7500000413092877  0.7499999466248193  1.0000
  Mn  Mn1       1.0  0.9999999998251505  0.9999999816068817  0.999999977882882  1.0000
  Te  Te1       1.0  0.2588006458262211  0.2588011616734609  0.7411991142585002  1.0000
  Te  Te2       1.0  0.7411993559934252  0.7411989669780581  0.2588008216526388  1.0000
  Te  Te3       1.0  0.7411987674404363  0.2588010847393092  0.25880074276657283  1.0000
  Te  Te4       1.0  0.2588012129479996  0.7411989001114787  0.7411992552815542  1.0000
  Te  Te5       1.0  0.2588012305942234  0.7411988126390369  0.2588006643393864  1.0000
  Te  Te6       1.0  0.7411988148285007  0.25880112372081404  0.7411994469456722  1.0000
