data_image0
_chemical_formula_structural       Ba2MgS6
_chemical_formula_sum              "Ba2 Mg1 S6"
_cell_length_a       6.723941925732358
_cell_length_b       6.723941896442214
_cell_length_c       6.723941314164035
_cell_angle_alpha    60.00000426931563
_cell_angle_beta     60.00000082508205
_cell_angle_gamma    60.00000773916933

_space_group_name_H-M_alt    "P 1"
_space_group_IT_number       1

loop_
  _space_group_symop_operation_xyz
  'x, y, z'

loop_
  _atom_site_type_symbol
  _atom_site_label
  _atom_site_symmetry_multiplicity
  _atom_site_fract_x
  _atom_site_fract_y
  _atom_site_fract_z
  _atom_site_occupancy
  Ba  Ba1       1.0  0.25000005749302273  0.25000009059323947  0.24999991302130545  1.0000
  Ba  Ba2       1.0  0.7500000038954309  0.7499998965572103  0.7499999678375214  1.0000
  Mg  Mg1       1.0  1.9077659491620936e-09  2.0036154890487644e-08  7.379974929420726e-08  1.0000
  S   S1        1.0  0.263059065207838  0.2630590795103443  0.736940922498551  1.0000
  S   S2        1.0  0.7369410176899757  0.7369409203903875  0.26305901410438054  1.0000
  S   S3        1.0  0.7369409270619283  0.2630589997145128  0.26305916626168196  1.0000
  S   S4        1.0  0.2630589457184983  0.7369410020076755  0.7369409250547995  1.0000
  S   S5        1.0  0.2630589764082503  0.7369410288022756  0.26305909527906524  1.0000
  S   S6        1.0  0.7369410115352444  0.26305896745551427  0.7369409233414037  1.0000
