data_image0
_chemical_formula_structural       Ba2MnO6
_chemical_formula_sum              "Ba2 Mn1 O6"
_cell_length_a       6.57891878655297
_cell_length_b       6.578918275674543
_cell_length_c       6.57891853635214
_cell_angle_alpha    60.00000062444032
_cell_angle_beta     60.000000245589575
_cell_angle_gamma    60.000000020267

_space_group_name_H-M_alt    "P 1"
_space_group_IT_number       1

loop_
  _space_group_symop_operation_xyz
  'x, y, z'

loop_
  _atom_site_type_symbol
  _atom_site_label
  _atom_site_symmetry_multiplicity
  _atom_site_fract_x
  _atom_site_fract_y
  _atom_site_fract_z
  _atom_site_occupancy
  Ba  Ba1       1.0  0.24999999814301346  0.25000006017213655  0.24999995158291016  1.0000
  Ba  Ba2       1.0  0.7499998016665438  0.7500000111089514  0.7500001665542797  1.0000
  Mn  Mn1       1.0  2.322458529591248e-08  9.30810321150349e-09  1.4133788932524803e-08  1.0000
  O   O1        1.0  0.20179303489489187  0.201793199130343  0.7982068849490369  1.0000
  O   O2        1.0  0.7982069001678705  0.798206866565885  0.20179316835397926  1.0000
  O   O3        1.0  0.7982069831120747  0.2017931141078043  0.20179309470424603  1.0000
  O   O4        1.0  0.2017931345596127  0.7982068249982336  0.7982068333089735  1.0000
  O   O5        1.0  0.20179316319298218  0.7982068468650411  0.20179305429083236  1.0000
  O   O6        1.0  0.7982069696545369  0.20179309410261767  0.7982068773637139  1.0000
