data_image0
_chemical_formula_structural       Ba2MgO6
_chemical_formula_sum              "Ba2 Mg1 O6"
_cell_length_a       5.989567742417878
_cell_length_b       5.989567931910266
_cell_length_c       5.9895676906569815
_cell_angle_alpha    60.00000062629068
_cell_angle_beta     59.99999953828703
_cell_angle_gamma    60.00000000539804

_space_group_name_H-M_alt    "P 1"
_space_group_IT_number       1

loop_
  _space_group_symop_operation_xyz
  'x, y, z'

loop_
  _atom_site_type_symbol
  _atom_site_label
  _atom_site_symmetry_multiplicity
  _atom_site_fract_x
  _atom_site_fract_y
  _atom_site_fract_z
  _atom_site_occupancy
  Ba  Ba1       1.0  0.2500000205823588  0.25000000444342  0.2499999738334651  1.0000
  Ba  Ba2       1.0  0.7500000058594064  0.7499999785687168  0.750000026929507  1.0000
  Mg  Mg1       1.0  8.48988992077777e-09  2.6582356517576617e-08  2.4203116033933492e-08  1.0000
  O   O1        1.0  0.2312075917786034  0.2312075701083287  0.7687924247545559  1.0000
  O   O2        1.0  0.7687923978201335  0.7687923904110451  0.23120759732846446  1.0000
  O   O3        1.0  0.7687924016210468  0.23120760780113722  0.2312075853501034  1.0000
  O   O4        1.0  0.23120755504711893  0.7687924283757139  0.7687924053520462  1.0000
  O   O5        1.0  0.23120758913120174  0.7687924250259468  0.23120756979449866  1.0000
  O   O6        1.0  0.7687924201737113  0.2312075804789538  0.7687924015774046  1.0000
