data_image0
_chemical_formula_structural       Ba2NbSe6
_chemical_formula_sum              "Ba2 Nb1 Se6"
_cell_length_a       7.029792346766936
_cell_length_b       7.029792196234487
_cell_length_c       7.029792511439141
_cell_angle_alpha    59.99999962345887
_cell_angle_beta     59.99999847630509
_cell_angle_gamma    59.99999938112227

_space_group_name_H-M_alt    "P 1"
_space_group_IT_number       1

loop_
  _space_group_symop_operation_xyz
  'x, y, z'

loop_
  _atom_site_type_symbol
  _atom_site_label
  _atom_site_symmetry_multiplicity
  _atom_site_fract_x
  _atom_site_fract_y
  _atom_site_fract_z
  _atom_site_occupancy
  Ba  Ba1       1.0  0.25000001618201556  0.24999997561737627  0.2499999797800963  1.0000
  Ba  Ba2       1.0  0.750000004244703  0.7500000104787188  0.7500000007611409  1.0000
  Nb  Nb1       1.0  4.7421417163267356e-08  0.999999867591235  7.094401435595539e-08  1.0000
  Se  Se1       1.0  0.2574727039270379  0.2574726793244391  0.7425273444288824  1.0000
  Se  Se2       1.0  0.742527310094443  0.7425273555538329  0.25747263910667645  1.0000
  Se  Se3       1.0  0.7425272139531554  0.25747276019820053  0.2574727543934714  1.0000
  Se  Se4       1.0  0.2574727512548913  0.7425273077822631  0.7425272526453971  1.0000
  Se  Se5       1.0  0.25747276619446763  0.7425272985821427  0.257472666094658  1.0000
  Se  Se6       1.0  0.7425271924603499  0.25747273978056967  0.7425273049740507  1.0000
