data_image0
_chemical_formula_structural       Ba2NiSe6
_chemical_formula_sum              "Ba2 Ni1 Se6"
_cell_length_a       6.7842514412618105
_cell_length_b       6.78425190029856
_cell_length_c       6.7842523310216025
_cell_angle_alpha    59.99999971904006
_cell_angle_beta     59.99999784097627
_cell_angle_gamma    59.999997529818856

_space_group_name_H-M_alt    "P 1"
_space_group_IT_number       1

loop_
  _space_group_symop_operation_xyz
  'x, y, z'

loop_
  _atom_site_type_symbol
  _atom_site_label
  _atom_site_symmetry_multiplicity
  _atom_site_fract_x
  _atom_site_fract_y
  _atom_site_fract_z
  _atom_site_occupancy
  Ba  Ba1       1.0  0.25000003130453535  0.2499999640256618  0.24999998991550584  1.0000
  Ba  Ba2       1.0  0.7499999914966884  0.7500000563571269  0.7499999417629096  1.0000
  Ni  Ni1       1.0  1.2796205900413492e-07  0.9999999837525114  1.1070491761100552e-07  1.0000
  Se  Se1       1.0  0.25049564861641616  0.2504956773942741  0.7495043237779451  1.0000
  Se  Se2       1.0  0.7495043218348307  0.7495043213252014  0.2504956257450913  1.0000
  Se  Se3       1.0  0.7495043230032843  0.2504956640505316  0.25049555096147225  1.0000
  Se  Se4       1.0  0.25049566348895974  0.7495042967581427  0.7495044389765013  1.0000
  Se  Se5       1.0  0.2504956515287431  0.7495043916719991  0.2504955598537201  1.0000
  Se  Se6       1.0  0.7495042563249134  0.25049564676355585  0.7495044173240907  1.0000
