data_image0
_chemical_formula_structural       Ba2NiTe6
_chemical_formula_sum              "Ba2 Ni1 Te6"
_cell_length_a       7.264880459433216
_cell_length_b       7.264880333709357
_cell_length_c       7.264880324087731
_cell_angle_alpha    60.000005834726224
_cell_angle_beta     60.00000315879293
_cell_angle_gamma    59.99999963438225

_space_group_name_H-M_alt    "P 1"
_space_group_IT_number       1

loop_
  _space_group_symop_operation_xyz
  'x, y, z'

loop_
  _atom_site_type_symbol
  _atom_site_label
  _atom_site_symmetry_multiplicity
  _atom_site_fract_x
  _atom_site_fract_y
  _atom_site_fract_z
  _atom_site_occupancy
  Ba  Ba1       1.0  0.2500000557630689  0.24999999652907273  0.24999995765840538  1.0000
  Ba  Ba2       1.0  0.7499999821607689  0.7500000013881303  0.7500000174513529  1.0000
  Ni  Ni1       1.0  0.9999999637352451  0.9999998179289649  3.693235827458047e-07  1.0000
  Te  Te1       1.0  0.2576530369810876  0.2576528650133275  0.7423469724425659  1.0000
  Te  Te2       1.0  0.7423469991108619  0.7423472289969272  0.25765290047720835  1.0000
  Te  Te3       1.0  0.7423470844398858  0.25765278149828386  0.25765272199586425  1.0000
  Te  Te4       1.0  0.2576529487156671  0.7423472164189137  0.7423471563911072  1.0000
  Te  Te5       1.0  0.25765285294191587  0.7423470897920346  0.2576527918510762  1.0000
  Te  Te6       1.0  0.7423470725484289  0.2576529974748505  0.7423471080820239  1.0000
