data_image0
_chemical_formula_structural       Ba2NbTe6
_chemical_formula_sum              "Ba2 Nb1 Te6"
_cell_length_a       7.549430011306207
_cell_length_b       7.549429978619047
_cell_length_c       7.549430597401981
_cell_angle_alpha    59.999998555217765
_cell_angle_beta     59.999996732422716
_cell_angle_gamma    60.00000480527774

_space_group_name_H-M_alt    "P 1"
_space_group_IT_number       1

loop_
  _space_group_symop_operation_xyz
  'x, y, z'

loop_
  _atom_site_type_symbol
  _atom_site_label
  _atom_site_symmetry_multiplicity
  _atom_site_fract_x
  _atom_site_fract_y
  _atom_site_fract_z
  _atom_site_occupancy
  Ba  Ba1       1.0  0.2500000087015492  0.2499999809069291  0.2500000183607633  1.0000
  Ba  Ba2       1.0  0.7499999469698365  0.7500000287027385  0.7499999470150676  1.0000
  Nb  Nb1       1.0  0.9999999060047733  0.9999999561978654  1.7089312786688767e-07  1.0000
  Te  Te1       1.0  0.2624102192657532  0.2624100875570136  0.7375898175915732  1.0000
  Te  Te2       1.0  0.7375899409742964  0.7375899690994008  0.26241004846861615  1.0000
  Te  Te3       1.0  0.7375897629690564  0.2624102042175126  0.262410250565117  1.0000
  Te  Te4       1.0  0.26241028118390713  0.7375897372555151  0.7375897245072919  1.0000
  Te  Te5       1.0  0.2624102249317361  0.7375897875797275  0.2624102879471145  1.0000
  Te  Te6       1.0  0.7375897030995886  0.2624102544759612  0.737589731983675  1.0000
