data_image0
_chemical_formula_structural       Ba2NbS6
_chemical_formula_sum              "Ba2 Nb1 S6"
_cell_length_a       6.783637672092371
_cell_length_b       6.783638166992777
_cell_length_c       6.78363759377744
_cell_angle_alpha    59.99999928091908
_cell_angle_beta     60.000000292087186
_cell_angle_gamma    60.000000430610996

_space_group_name_H-M_alt    "P 1"
_space_group_IT_number       1

loop_
  _space_group_symop_operation_xyz
  'x, y, z'

loop_
  _atom_site_type_symbol
  _atom_site_label
  _atom_site_symmetry_multiplicity
  _atom_site_fract_x
  _atom_site_fract_y
  _atom_site_fract_z
  _atom_site_occupancy
  Ba  Ba1       1.0  0.2499999860404507  0.2500000401728902  0.25000002624064266  1.0000
  Ba  Ba2       1.0  0.7499999966373946  0.750000004970545  0.7499999491865422  1.0000
  Nb  Nb1       1.0  0.9999998803808932  1.1374269939153363e-07  0.9999998437315827  1.0000
  S   S1        1.0  0.2501337589326335  0.2501338359918695  0.7498662084349491  1.0000
  S   S2        1.0  0.7498662061746955  0.7498661188795881  0.2501338091204024  1.0000
  S   S3        1.0  0.7498661824274084  0.25013384864245136  0.25013376905119933  1.0000
  S   S4        1.0  0.25013381708349197  0.7498661766411465  0.7498662565358438  1.0000
  S   S5        1.0  0.2501338597352289  0.7498661674933943  0.2501338302710534  1.0000
  S   S6        1.0  0.7498663155845936  0.2501337133550328  0.7498663049306228  1.0000
