data_image0
_chemical_formula_structural       Ba2NbO6
_chemical_formula_sum              "Ba2 Nb1 O6"
_cell_length_a       6.038902215100733
_cell_length_b       6.038902185119595
_cell_length_c       6.038901953264593
_cell_angle_alpha    60.00000594566009
_cell_angle_beta     60.00000237009353
_cell_angle_gamma    60.000003308540464

_space_group_name_H-M_alt    "P 1"
_space_group_IT_number       1

loop_
  _space_group_symop_operation_xyz
  'x, y, z'

loop_
  _atom_site_type_symbol
  _atom_site_label
  _atom_site_symmetry_multiplicity
  _atom_site_fract_x
  _atom_site_fract_y
  _atom_site_fract_z
  _atom_site_occupancy
  Ba  Ba1       1.0  0.2500000157293915  0.25000002369866503  0.24999997323049314  1.0000
  Ba  Ba2       1.0  0.7500000369152389  0.7499999412981215  0.750000006286181  1.0000
  Nb  Nb1       1.0  1.2500254774392923e-07  0.999999929016789  4.453003428218669e-09  1.0000
  O   O1        1.0  0.2336686003137842  0.23366864055060899  0.7663313790011271  1.0000
  O   O2        1.0  0.7663313879953632  0.766331322418087  0.23366865522442581  1.0000
  O   O3        1.0  0.7663313664804451  0.23366864373828589  0.23366860830423575  1.0000
  O   O4        1.0  0.23366863507753763  0.7663313597922408  0.7663312963483148  1.0000
  O   O5        1.0  0.23366854676514387  0.7663314490438916  0.23366859910132556  1.0000
  O   O6        1.0  0.7663312873760518  0.2336686437226762  0.7663313959754351  1.0000
