data_image0
_chemical_formula_structural       Ba2PbS6
_chemical_formula_sum              "Ba2 Pb1 S6"
_cell_length_a       6.85600082185683
_cell_length_b       6.856000820461599
_cell_length_c       6.856000891944694
_cell_angle_alpha    59.99999919098797
_cell_angle_beta     59.99999871406338
_cell_angle_gamma    60.00000073855812

_space_group_name_H-M_alt    "P 1"
_space_group_IT_number       1

loop_
  _space_group_symop_operation_xyz
  'x, y, z'

loop_
  _atom_site_type_symbol
  _atom_site_label
  _atom_site_symmetry_multiplicity
  _atom_site_fract_x
  _atom_site_fract_y
  _atom_site_fract_z
  _atom_site_occupancy
  Ba  Ba1       1.0  0.25000006895956417  0.25000000412789736  0.2500000065920295  1.0000
  Ba  Ba2       1.0  0.7500000445982277  0.7500000141700737  0.7499999629169647  1.0000
  Pb  Pb1       1.0  7.874962285232327e-08  2.1436606515626766e-08  7.09687125676041e-08  1.0000
  S   S1        1.0  0.2645663001965491  0.26456633772730304  0.7354336545942126  1.0000
  S   S2        1.0  0.7354335941588895  0.7354336055425456  0.26456638180832814  1.0000
  S   S3        1.0  0.7354335995764631  0.2645663686093138  0.2645663323556861  1.0000
  S   S4        1.0  0.2645663926504671  0.7354335943107577  0.7354336832089788  1.0000
  S   S5        1.0  0.26456636554615187  0.735433648693281  0.26456626875127504  1.0000
  S   S6        1.0  0.7354335542067864  0.26456640533236303  0.7354336368558393  1.0000
