data_image0
_chemical_formula_structural       Ba2PtO6
_chemical_formula_sum              "Ba2 Pt1 O6"
_cell_length_a       5.957374989302144
_cell_length_b       5.957374589881296
_cell_length_c       5.957374796226995
_cell_angle_alpha    60.00000126548469
_cell_angle_beta     60.00000052353959
_cell_angle_gamma    60.000001370395594

_space_group_name_H-M_alt    "P 1"
_space_group_IT_number       1

loop_
  _space_group_symop_operation_xyz
  'x, y, z'

loop_
  _atom_site_type_symbol
  _atom_site_label
  _atom_site_symmetry_multiplicity
  _atom_site_fract_x
  _atom_site_fract_y
  _atom_site_fract_z
  _atom_site_occupancy
  Ba  Ba1       1.0  0.2499999995890295  0.24999999696819739  0.24999998541431304  1.0000
  Ba  Ba2       1.0  0.750000002075923  0.7499999867928996  0.7499999784660605  1.0000
  Pt  Pt1       1.0  4.187944160448236e-08  0.9999999383246035  7.872023663496762e-08  1.0000
  O   O1        1.0  0.22955204459694664  0.22955205478821725  0.7704479340291567  1.0000
  O   O2        1.0  0.7704479053024041  0.7704479330845716  0.22955204528521325  1.0000
  O   O3        1.0  0.7704479250100105  0.22955210079554858  0.22955205567700815  1.0000
  O   O4        1.0  0.22955205721171595  0.7704479878137279  0.7704479024299083  1.0000
  O   O5        1.0  0.22955209712410674  0.7704479061201972  0.22955211766446798  1.0000
  O   O6        1.0  0.7704478987058595  0.22955211259029473  0.7704479105525124  1.0000
