data_image0
_chemical_formula_structural       Ba2PtS6
_chemical_formula_sum              "Ba2 Pt1 S6"
_cell_length_a       6.646168366479622
_cell_length_b       6.6461685100659285
_cell_length_c       6.646168307597964
_cell_angle_alpha    60.0000003684342
_cell_angle_beta     60.000000902238384
_cell_angle_gamma    60.000000637792596

_space_group_name_H-M_alt    "P 1"
_space_group_IT_number       1

loop_
  _space_group_symop_operation_xyz
  'x, y, z'

loop_
  _atom_site_type_symbol
  _atom_site_label
  _atom_site_symmetry_multiplicity
  _atom_site_fract_x
  _atom_site_fract_y
  _atom_site_fract_z
  _atom_site_occupancy
  Ba  Ba1       1.0  0.24999999612855936  0.250000007290528  0.25000001120355425  1.0000
  Ba  Ba2       1.0  0.7500000509499016  0.7499999905442676  0.7499999909089353  1.0000
  Pt  Pt1       1.0  8.352710298058378e-09  4.791236732545344e-08  0.9999999372610548  1.0000
  S   S1        1.0  0.24942530393020962  0.2494252826174263  0.7505747356186959  1.0000
  S   S2        1.0  0.7505746804094103  0.7505746949467527  0.24942529897076404  1.0000
  S   S3        1.0  0.7505746370903199  0.24942532340113105  0.2494252997704796  1.0000
  S   S4        1.0  0.24942527599811212  0.7505746854903645  0.7505747547809155  1.0000
  S   S5        1.0  0.24942530502062518  0.7505747455594298  0.24942518981261713  1.0000
  S   S6        1.0  0.7505747420759176  0.24942522094804914  0.7505747903388312  1.0000
