data_image0
_chemical_formula_structural       Ba2PdS6
_chemical_formula_sum              "Ba2 Pd1 S6"
_cell_length_a       6.668611856264841
_cell_length_b       6.6686116982459325
_cell_length_c       6.668611926581361
_cell_angle_alpha    59.9999999322639
_cell_angle_beta     59.99999980310579
_cell_angle_gamma    60.000001307443725

_space_group_name_H-M_alt    "P 1"
_space_group_IT_number       1

loop_
  _space_group_symop_operation_xyz
  'x, y, z'

loop_
  _atom_site_type_symbol
  _atom_site_label
  _atom_site_symmetry_multiplicity
  _atom_site_fract_x
  _atom_site_fract_y
  _atom_site_fract_z
  _atom_site_occupancy
  Ba  Ba1       1.0  0.25000000510383974  0.24999998924185413  0.24999999863450423  1.0000
  Ba  Ba2       1.0  0.750000002857572  0.7500000154766807  0.7499999992488019  1.0000
  Pd  Pd1       1.0  3.5366161625684685e-08  0.9999999614317915  1.4255989294084892e-07  1.0000
  S   S1        1.0  0.25301124501243016  0.2530112632121695  0.7469887502266602  1.0000
  S   S2        1.0  0.7469887648905985  0.7469887304868766  0.25301124769689426  1.0000
  S   S3        1.0  0.7469887001570715  0.25301129964718744  0.253011275095303  1.0000
  S   S4        1.0  0.25301132361634293  0.7469886628299732  0.7469886835180031  1.0000
  S   S5        1.0  0.25301129426683167  0.7469887122475602  0.2530112721496027  1.0000
  S   S6        1.0  0.7469886248425562  0.2530113512415785  0.7469886433028551  1.0000
