data_image0
_chemical_formula_structural       Ba2PtSe6
_chemical_formula_sum              "Ba2 Pt1 Se6"
_cell_length_a       6.885349586346966
_cell_length_b       6.885349638003697
_cell_length_c       6.885349398922878
_cell_angle_alpha    60.000002480079594
_cell_angle_beta     60.00000309816835
_cell_angle_gamma    60.000000002534975

_space_group_name_H-M_alt    "P 1"
_space_group_IT_number       1

loop_
  _space_group_symop_operation_xyz
  'x, y, z'

loop_
  _atom_site_type_symbol
  _atom_site_label
  _atom_site_symmetry_multiplicity
  _atom_site_fract_x
  _atom_site_fract_y
  _atom_site_fract_z
  _atom_site_occupancy
  Ba  Ba1       1.0  0.2500000139602698  0.2500000221115155  0.24999998435315648  1.0000
  Ba  Ba2       1.0  0.7499999755462351  0.7499999685022368  0.7500000336905501  1.0000
  Pt  Pt1       1.0  2.8271309697928485e-08  7.115077176152332e-08  5.776353540121562e-08  1.0000
  Se  Se1       1.0  0.25578210222242526  0.25578216754805494  0.7442178633791685  1.0000
  Se  Se2       1.0  0.7442177842057253  0.7442178052780065  0.2557821962168903  1.0000
  Se  Se3       1.0  0.7442179201245633  0.2557821110225323  0.2557821141821977  1.0000
  Se  Se4       1.0  0.25578216106111323  0.7442178208918309  0.7442177900635576  1.0000
  Se  Se5       1.0  0.2557821144024908  0.7442179082930689  0.2557821660428395  1.0000
  Se  Se6       1.0  0.7442178822859115  0.25578211611729973  0.7442178082738647  1.0000
