data_image0
_chemical_formula_structural       Ba2PbSe6
_chemical_formula_sum              "Ba2 Pb1 Se6"
_cell_length_a       7.204182030718876
_cell_length_b       7.204181547389843
_cell_length_c       7.20418202305091
_cell_angle_alpha    59.999998208844445
_cell_angle_beta     59.999998911334984
_cell_angle_gamma    59.99999880649739

_space_group_name_H-M_alt    "P 1"
_space_group_IT_number       1

loop_
  _space_group_symop_operation_xyz
  'x, y, z'

loop_
  _atom_site_type_symbol
  _atom_site_label
  _atom_site_symmetry_multiplicity
  _atom_site_fract_x
  _atom_site_fract_y
  _atom_site_fract_z
  _atom_site_occupancy
  Ba  Ba1       1.0  0.2499999799640749  0.2500000724812568  0.24999996246803347  1.0000
  Ba  Ba2       1.0  0.7500000255418113  0.749999984537299  0.7499999887941942  1.0000
  Pb  Pb1       1.0  6.014601422205502e-08  1.1900331559334869e-08  0.999999982021901  1.0000
  Se  Se1       1.0  0.27882927530512885  0.2788294409608158  0.7211706426794748  1.0000
  Se  Se2       1.0  0.7211706769049776  0.721170497054432  0.27882939334421386  1.0000
  Se  Se3       1.0  0.7211706576038253  0.2788294236160257  0.2788293051623401  1.0000
  Se  Se4       1.0  0.27882933718514047  0.7211705790010186  0.721170749451318  1.0000
  Se  Se5       1.0  0.27882931367127556  0.721170597252602  0.27882936206709985  1.0000
  Se  Se6       1.0  0.7211706732980473  0.27882939516415783  0.7211706182715634  1.0000
