data_image0
_chemical_formula_structural       Ba2PbTe6
_chemical_formula_sum              "Ba2 Pb1 Te6"
_cell_length_a       7.7785293990162625
_cell_length_b       7.7785292412019515
_cell_length_c       7.778529041199228
_cell_angle_alpha    60.0000016163473
_cell_angle_beta     60.00000041844214
_cell_angle_gamma    59.99999992551518

_space_group_name_H-M_alt    "P 1"
_space_group_IT_number       1

loop_
  _space_group_symop_operation_xyz
  'x, y, z'

loop_
  _atom_site_type_symbol
  _atom_site_label
  _atom_site_symmetry_multiplicity
  _atom_site_fract_x
  _atom_site_fract_y
  _atom_site_fract_z
  _atom_site_occupancy
  Ba  Ba1       1.0  0.2500000490276717  0.24999999160039527  0.24999997511454147  1.0000
  Ba  Ba2       1.0  0.7499999583004372  0.7499999622050284  0.7500000273185837  1.0000
  Pb  Pb1       1.0  1.0736044995515633e-08  7.872598177291533e-09  0.9999999199882224  1.0000
  Te  Te1       1.0  0.2805337692108625  0.2805338815303544  0.7194661827589135  1.0000
  Te  Te2       1.0  0.7194661386576537  0.7194660722750704  0.2805339079717114  1.0000
  Te  Te3       1.0  0.7194661042871057  0.28053396538856346  0.2805338313739284  1.0000
  Te  Te4       1.0  0.280533895721491  0.7194661128039277  0.7194661562354838  1.0000
  Te  Te5       1.0  0.28053392816748507  0.7194660835457897  0.28053384341454446  1.0000
  Te  Te6       1.0  0.7194661429619978  0.28053392379330855  0.7194661530602505  1.0000
