data_image0
_chemical_formula_structural       Ba2PbO6
_chemical_formula_sum              "Ba2 Pb1 O6"
_cell_length_a       6.113609821207855
_cell_length_b       6.1136100192134135
_cell_length_c       6.113609896050953
_cell_angle_alpha    59.99999967625396
_cell_angle_beta     59.999998454728875
_cell_angle_gamma    60.00000106486684

_space_group_name_H-M_alt    "P 1"
_space_group_IT_number       1

loop_
  _space_group_symop_operation_xyz
  'x, y, z'

loop_
  _atom_site_type_symbol
  _atom_site_label
  _atom_site_symmetry_multiplicity
  _atom_site_fract_x
  _atom_site_fract_y
  _atom_site_fract_z
  _atom_site_occupancy
  Ba  Ba1       1.0  0.24999997236198138  0.2500000158924886  0.25000000217049007  1.0000
  Ba  Ba2       1.0  0.7499999912246552  0.7499999895815114  0.7500000655535789  1.0000
  Pb  Pb1       1.0  0.9999999286862498  0.9999999759602934  1.0165465800550776e-07  1.0000
  O   O1        1.0  0.2444443444548429  0.24444436233806285  0.7555556514921693  1.0000
  O   O2        1.0  0.75555569530976  0.755555709245128  0.24444429928886494  1.0000
  O   O3        1.0  0.7555557024449554  0.2444443315388033  0.24444431890684443  1.0000
  O   O4        1.0  0.24444438786065  0.7555555657565245  0.7555556397696923  1.0000
  O   O5        1.0  0.24444432658037507  0.7555557275526273  0.2444442603413635  1.0000
  O   O6        1.0  0.7555556638479052  0.24444435605041598  0.7555556780197048  1.0000
