data_image0
_chemical_formula_structural       Ba2SnTe6
_chemical_formula_sum              "Ba2 Sn1 Te6"
_cell_length_a       7.6659624131733555
_cell_length_b       7.665962422410144
_cell_length_c       7.665962749775616
_cell_angle_alpha    59.999999641066715
_cell_angle_beta     60.00000079682516
_cell_angle_gamma    60.000001080104276

_space_group_name_H-M_alt    "P 1"
_space_group_IT_number       1

loop_
  _space_group_symop_operation_xyz
  'x, y, z'

loop_
  _atom_site_type_symbol
  _atom_site_label
  _atom_site_symmetry_multiplicity
  _atom_site_fract_x
  _atom_site_fract_y
  _atom_site_fract_z
  _atom_site_occupancy
  Ba  Ba1       1.0  0.2500000324924489  0.25000003110917884  0.250000028589848  1.0000
  Ba  Ba2       1.0  0.7499999867313762  0.7499999239776873  0.7500000014490241  1.0000
  Sn  Sn1       1.0  0.9999999439939158  1.4378759631766864e-08  0.9999999412411381  1.0000
  Te  Te1       1.0  0.27019231945075034  0.2701923422893574  0.7298076641636794  1.0000
  Te  Te2       1.0  0.7298076538226731  0.7298077054606321  0.27019234382329954  1.0000
  Te  Te3       1.0  0.7298075809198904  0.2701923328857968  0.27019236913891603  1.0000
  Te  Te4       1.0  0.2701923381878493  0.7298077643910342  0.7298076411674834  1.0000
  Te  Te5       1.0  0.27019238427567094  0.7298076445821308  0.2701923309402588  1.0000
  Te  Te6       1.0  0.7298077511449985  0.2701922465991342  0.7298076781708638  1.0000
