data_image0
_chemical_formula_structural       Ba2SrO6
_chemical_formula_sum              "Ba2 Sr1 O6"
_cell_length_a       5.904214654628189
_cell_length_b       5.904215184221612
_cell_length_c       5.904214310758313
_cell_angle_alpha    59.99999953639667
_cell_angle_beta     60.000005872835295
_cell_angle_gamma    59.99999875569976

_space_group_name_H-M_alt    "P 1"
_space_group_IT_number       1

loop_
  _space_group_symop_operation_xyz
  'x, y, z'

loop_
  _atom_site_type_symbol
  _atom_site_label
  _atom_site_symmetry_multiplicity
  _atom_site_fract_x
  _atom_site_fract_y
  _atom_site_fract_z
  _atom_site_occupancy
  Ba  Ba1       1.0  0.24999972950813945  0.2500002634452475  0.25000000841454223  1.0000
  Ba  Ba2       1.0  0.7500001530654599  0.7499999502212009  0.7499999782737886  1.0000
  Sr  Sr1       1.0  0.9999998957127707  1.0164355450240828e-07  0.9999991104327596  1.0000
  O   O1        1.0  0.2899857261571446  0.2899858928085596  0.7100141872960642  1.0000
  O   O2        1.0  0.7100142667947149  0.7100138313096678  0.2899861600415215  1.0000
  O   O3        1.0  0.7100139573813543  0.2899859917182287  0.2899861591178194  1.0000
  O   O4        1.0  0.2899858822850116  0.7100142157251222  0.7100142332194038  1.0000
  O   O5        1.0  0.2899858274185642  0.7100139840546268  0.2899858444135632  1.0000
  O   O6        1.0  0.7100144989348298  0.28998572554308405  0.7100144197002697  1.0000
