data_image0
_chemical_formula_structural       Ba2SrSe6
_chemical_formula_sum              "Ba2 Sr1 Se6"
_cell_length_a       7.385198989425914
_cell_length_b       7.3851993924566495
_cell_length_c       7.385199206441999
_cell_angle_alpha    60.000002552669876
_cell_angle_beta     59.99999929991649
_cell_angle_gamma    59.99999964418033

_space_group_name_H-M_alt    "P 1"
_space_group_IT_number       1

loop_
  _space_group_symop_operation_xyz
  'x, y, z'

loop_
  _atom_site_type_symbol
  _atom_site_label
  _atom_site_symmetry_multiplicity
  _atom_site_fract_x
  _atom_site_fract_y
  _atom_site_fract_z
  _atom_site_occupancy
  Ba  Ba1       1.0  0.25000004145754606  0.24999998002197416  0.24999996144331618  1.0000
  Ba  Ba2       1.0  0.7499999769100013  0.7499999931340078  0.7500000357898152  1.0000
  Sr  Sr1       1.0  4.267614234652514e-08  0.9999998391373827  3.8782341266448476e-08  1.0000
  Se  Se1       1.0  0.2862801871776223  0.2862801499259445  0.7137198335304915  1.0000
  Se  Se2       1.0  0.7137196429480295  0.7137199376580898  0.28628023852323176  1.0000
  Se  Se3       1.0  0.7137198458618736  0.28628016245504395  0.28628015376108035  1.0000
  Se  Se4       1.0  0.2862802437480303  0.71371987371928  0.7137197519686296  1.0000
  Se  Se5       1.0  0.28628021603682263  0.7137198923607916  0.2862801300616569  1.0000
  Se  Se6       1.0  0.713719807888404  0.28628017200595235  0.7137198499306263  1.0000
