data_image0
_chemical_formula_structural       Ba2SrTe6
_chemical_formula_sum              "Ba2 Sr1 Te6"
_cell_length_a       7.899861484304536
_cell_length_b       7.8998612923093035
_cell_length_c       7.899861367134628
_cell_angle_alpha    59.99999927289445
_cell_angle_beta     60.00000068146073
_cell_angle_gamma    59.9999990876453

_space_group_name_H-M_alt    "P 1"
_space_group_IT_number       1

loop_
  _space_group_symop_operation_xyz
  'x, y, z'

loop_
  _atom_site_type_symbol
  _atom_site_label
  _atom_site_symmetry_multiplicity
  _atom_site_fract_x
  _atom_site_fract_y
  _atom_site_fract_z
  _atom_site_occupancy
  Ba  Ba1       1.0  0.2500000084529306  0.2500000225115247  0.25000000516431986  1.0000
  Ba  Ba2       1.0  0.7500000367735702  0.7499999543599587  0.7499999461176038  1.0000
  Sr  Sr1       1.0  2.794909614392946e-08  0.9999999906979768  0.9999999640937186  1.0000
  Te  Te1       1.0  0.2836225941080438  0.2836226043597037  0.7163773892583281  1.0000
  Te  Te2       1.0  0.7163774077546539  0.7163774236729076  0.283622596100283  1.0000
  Te  Te3       1.0  0.716377390515249  0.2836225980518788  0.28362261926114896  1.0000
  Te  Te4       1.0  0.2836225853920165  0.7163774113766859  0.7163774149599463  1.0000
  Te  Te5       1.0  0.2836225433996052  0.7163773594568807  0.28362269938026563  1.0000
  Te  Te6       1.0  0.716377409047458  0.2836226282669631  0.7163773675500514  1.0000
