data_image0
_chemical_formula_structural       Ba2ScO6
_chemical_formula_sum              "Ba2 Sc1 O6"
_cell_length_a       6.048299813068563
_cell_length_b       6.048300005441479
_cell_length_c       6.048299604818249
_cell_angle_alpha    60.00000156603189
_cell_angle_beta     60.0000004313106
_cell_angle_gamma    60.0000007867569

_space_group_name_H-M_alt    "P 1"
_space_group_IT_number       1

loop_
  _space_group_symop_operation_xyz
  'x, y, z'

loop_
  _atom_site_type_symbol
  _atom_site_label
  _atom_site_symmetry_multiplicity
  _atom_site_fract_x
  _atom_site_fract_y
  _atom_site_fract_z
  _atom_site_occupancy
  Ba  Ba1       1.0  0.24999999307962195  0.24999999973451897  0.25000001555677365  1.0000
  Ba  Ba2       1.0  0.7500000293196734  0.75000000932826  0.749999928939631  1.0000
  Sc  Sc1       1.0  0.9999999728287824  0.9999999898752971  0.9999999822741009  1.0000
  O   O1        1.0  0.23765205574384862  0.23765206146152926  0.7623479778875708  1.0000
  O   O2        1.0  0.7623479912425515  0.7623479597508931  0.23765202925496504  1.0000
  O   O3        1.0  0.7623479100491767  0.237652079333984  0.23765205465391642  1.0000
  O   O4        1.0  0.2376520554235701  0.7623479115043296  0.7623479704052842  1.0000
  O   O5        1.0  0.2376520661259418  0.7623479421684495  0.2376520504858487  1.0000
  O   O6        1.0  0.7623479058649909  0.2376520405701013  0.7623479753641402  1.0000
