data_image0
_chemical_formula_structural       Ba2SeS6
_chemical_formula_sum              "Ba2 Se1 S6"
_cell_length_a       6.818001847738033
_cell_length_b       6.8180019258592885
_cell_length_c       6.818001464942339
_cell_angle_alpha    59.99999982248683
_cell_angle_beta     59.99999966488208
_cell_angle_gamma    59.99999904704186

_space_group_name_H-M_alt    "P 1"
_space_group_IT_number       1

loop_
  _space_group_symop_operation_xyz
  'x, y, z'

loop_
  _atom_site_type_symbol
  _atom_site_label
  _atom_site_symmetry_multiplicity
  _atom_site_fract_x
  _atom_site_fract_y
  _atom_site_fract_z
  _atom_site_occupancy
  Ba  Ba1       1.0  0.25000001869905336  0.2499999822725492  0.25000003885024213  1.0000
  Ba  Ba2       1.0  0.7499999842289629  0.7500000150785661  0.7500000083514561  1.0000
  Se  Se1       1.0  0.9999999599698741  0.9999999676658822  5.671599955689606e-08  1.0000
  S   S1        1.0  0.2385091817272919  0.2385091638813984  0.7614908152345683  1.0000
  S   S2        1.0  0.7614908882258045  0.7614908711928544  0.23850912385821157  1.0000
  S   S3        1.0  0.7614908299705498  0.23850915756537774  0.23850919550144356  1.0000
  S   S4        1.0  0.23850917824375303  0.7614908290076996  0.7614907781774461  1.0000
  S   S5        1.0  0.23850912430402113  0.7614908425783465  0.23850918001906093  1.0000
  S   S6        1.0  0.7614908352741414  0.23850917812518943  0.7614907803787935  1.0000
