data_image0
_chemical_formula_structural       Ba2ScTe6
_chemical_formula_sum              "Ba2 Sc1 Te6"
_cell_length_a       7.583890135722626
_cell_length_b       7.583889968819081
_cell_length_c       7.583889955168891
_cell_angle_alpha    59.999999405102876
_cell_angle_beta     59.99999968612563
_cell_angle_gamma    59.99999953554245

_space_group_name_H-M_alt    "P 1"
_space_group_IT_number       1

loop_
  _space_group_symop_operation_xyz
  'x, y, z'

loop_
  _atom_site_type_symbol
  _atom_site_label
  _atom_site_symmetry_multiplicity
  _atom_site_fract_x
  _atom_site_fract_y
  _atom_site_fract_z
  _atom_site_occupancy
  Ba  Ba1       1.0  0.24999995866066257  0.25000000476426837  0.25000002979300295  1.0000
  Ba  Ba2       1.0  0.7500000084772923  0.7499999593851976  0.749999970151503  1.0000
  Sc  Sc1       1.0  1.0449272068910477e-09  5.167774914705587e-08  0.9999999208952802  1.0000
  Te  Te1       1.0  0.2685284772331467  0.26852845771345907  0.731471532237545  1.0000
  Te  Te2       1.0  0.7314715473006801  0.7314715306599517  0.2685284479944044  1.0000
  Te  Te3       1.0  0.7314715636789121  0.26852845008612597  0.2685284802402095  1.0000
  Te  Te4       1.0  0.26852842663533993  0.7314715495917921  0.7314715932015149  1.0000
  Te  Te5       1.0  0.2685284502488229  0.7314715672488389  0.26852844961031896  1.0000
  Te  Te6       1.0  0.7314715696249333  0.2685284259693608  0.7314715806354836  1.0000
