data_image0
_chemical_formula_structural       Ba2SO6
_chemical_formula_sum              "Ba2 S1 O6"
_cell_length_a       5.842163375447741
_cell_length_b       5.842163079712871
_cell_length_c       5.842163872861802
_cell_angle_alpha    59.99999194536226
_cell_angle_beta     59.99999583782117
_cell_angle_gamma    59.99999663284975

_space_group_name_H-M_alt    "P 1"
_space_group_IT_number       1

loop_
  _space_group_symop_operation_xyz
  'x, y, z'

loop_
  _atom_site_type_symbol
  _atom_site_label
  _atom_site_symmetry_multiplicity
  _atom_site_fract_x
  _atom_site_fract_y
  _atom_site_fract_z
  _atom_site_occupancy
  Ba  Ba1       1.0  0.2500000143154556  0.24999999596538425  0.2500000152937317  1.0000
  Ba  Ba2       1.0  0.7499999894611119  0.7499999941853237  0.7499999684892599  1.0000
  S   S1        1.0  0.9999999575138808  8.595197166020542e-08  0.9999999679969046  1.0000
  O   O1        1.0  0.20652025977260188  0.20652021396405387  0.7934797635379155  1.0000
  O   O2        1.0  0.7934797610936225  0.7934797782830417  0.20652027740814052  1.0000
  O   O3        1.0  0.7934798237970906  0.2065201403770367  0.20652021833632797  1.0000
  O   O4        1.0  0.20652024883825404  0.7934797973639292  0.7934798873109318  1.0000
  O   O5        1.0  0.20652028840094422  0.7934797677780164  0.2065201248379867  1.0000
  O   O6        1.0  0.7934797473386533  0.20652023914380788  0.7934798602533488  1.0000
