data_image0
_chemical_formula_structural       Ba2SeO6
_chemical_formula_sum              "Ba2 Se1 O6"
_cell_length_a       5.917035334285344
_cell_length_b       5.917034040727746
_cell_length_c       5.917035083443619
_cell_angle_alpha    60.00000002219034
_cell_angle_beta     60.00000033972905
_cell_angle_gamma    60.00000002885565

_space_group_name_H-M_alt    "P 1"
_space_group_IT_number       1

loop_
  _space_group_symop_operation_xyz
  'x, y, z'

loop_
  _atom_site_type_symbol
  _atom_site_label
  _atom_site_symmetry_multiplicity
  _atom_site_fract_x
  _atom_site_fract_y
  _atom_site_fract_z
  _atom_site_occupancy
  Ba  Ba1       1.0  0.2499999541252259  0.24999999791731423  0.2500000547063505  1.0000
  Ba  Ba2       1.0  0.7499999220836934  0.7499999668437215  0.7500000530771584  1.0000
  Se  Se1       1.0  0.9999991825848845  0.9999999523931294  5.457433833549612e-07  1.0000
  O   O1        1.0  0.22028281304244315  0.22028254537135555  0.7797173552242826  1.0000
  O   O2        1.0  0.7797173578035681  0.7797172848486065  0.2202826589909237  1.0000
  O   O3        1.0  0.7797175376029888  0.22028262496307732  0.2202826059898491  1.0000
  O   O4        1.0  0.22028286331861607  0.779717352217158  0.7797172501280697  1.0000
  O   O5        1.0  0.22028277152440268  0.7797175343359734  0.2202824706235358  1.0000
  O   O6        1.0  0.7797175160485877  0.2202827243455924  0.7797171425546908  1.0000
