data_image0
_chemical_formula_structural       Ba2TiS6
_chemical_formula_sum              "Ba2 Ti1 S6"
_cell_length_a       6.734499174950983
_cell_length_b       6.734499572096932
_cell_length_c       6.734499619961916
_cell_angle_alpha    59.999996738036394
_cell_angle_beta     60.000000011327224
_cell_angle_gamma    60.00000368623934

_space_group_name_H-M_alt    "P 1"
_space_group_IT_number       1

loop_
  _space_group_symop_operation_xyz
  'x, y, z'

loop_
  _atom_site_type_symbol
  _atom_site_label
  _atom_site_symmetry_multiplicity
  _atom_site_fract_x
  _atom_site_fract_y
  _atom_site_fract_z
  _atom_site_occupancy
  Ba  Ba1       1.0  0.24999999739432638  0.24999997816258918  0.2500000269906763  1.0000
  Ba  Ba2       1.0  0.7499999835564238  0.750000027237035  0.7499999958488225  1.0000
  Ti  Ti1       1.0  0.999999857931496  0.9999999272554712  9.404249383637291e-08  1.0000
  S   S1        1.0  0.2476703063354205  0.2476703334146502  0.75232969194175  1.0000
  S   S2        1.0  0.7523296343651965  0.7523296847152641  0.24767032980875603  1.0000
  S   S3        1.0  0.7523296674498509  0.24767037808954  0.2476704383069941  1.0000
  S   S4        1.0  0.24767046681094496  0.7523296200356411  0.7523294758773146  1.0000
  S   S5        1.0  0.24767043464783098  0.7523296469979578  0.24767033796398472  1.0000
  S   S6        1.0  0.7523296719534286  0.24767039295532142  0.7523295914094112  1.0000
