data_image0
_chemical_formula_structural       Ba2TiSe6
_chemical_formula_sum              "Ba2 Ti1 Se6"
_cell_length_a       6.966187284363606
_cell_length_b       6.966186781889618
_cell_length_c       6.966187595995964
_cell_angle_alpha    59.99999712132771
_cell_angle_beta     59.999997531514104
_cell_angle_gamma    59.99999850054041

_space_group_name_H-M_alt    "P 1"
_space_group_IT_number       1

loop_
  _space_group_symop_operation_xyz
  'x, y, z'

loop_
  _atom_site_type_symbol
  _atom_site_label
  _atom_site_symmetry_multiplicity
  _atom_site_fract_x
  _atom_site_fract_y
  _atom_site_fract_z
  _atom_site_occupancy
  Ba  Ba1       1.0  0.2500000293145025  0.2500000072912594  0.24999999920781654  1.0000
  Ba  Ba2       1.0  0.7499999712263884  0.7500000289062878  0.7499999979165497  1.0000
  Ti  Ti1       1.0  9.167255202661008e-08  0.9999997995733909  0.9999999897792827  1.0000
  Se  Se1       1.0  0.2559518815567011  0.2559519660919126  0.7440480724411354  1.0000
  Se  Se2       1.0  0.7440479388941246  0.7440480683475023  0.25595195388059805  1.0000
  Se  Se3       1.0  0.74404806970932  0.2559520202215606  0.2559519103912769  1.0000
  Se  Se4       1.0  0.2559519538538297  0.7440479966365778  0.7440481064242452  1.0000
  Se  Se5       1.0  0.25595203754305296  0.7440480684664801  0.25595193547960143  1.0000
  Se  Se6       1.0  0.7440480245781513  0.2559520415724512  0.7440480269505406  1.0000
