data_image0
_chemical_formula_structural       Ba2TiTe6
_chemical_formula_sum              "Ba2 Ti1 Te6"
_cell_length_a       7.482735263206611
_cell_length_b       7.482735479960418
_cell_length_c       7.482735344494093
_cell_angle_alpha    59.99999999907711
_cell_angle_beta     59.999999522115914
_cell_angle_gamma    59.999995834779206

_space_group_name_H-M_alt    "P 1"
_space_group_IT_number       1

loop_
  _space_group_symop_operation_xyz
  'x, y, z'

loop_
  _atom_site_type_symbol
  _atom_site_label
  _atom_site_symmetry_multiplicity
  _atom_site_fract_x
  _atom_site_fract_y
  _atom_site_fract_z
  _atom_site_occupancy
  Ba  Ba1       1.0  0.24999999020778602  0.2500000028861257  0.24999996437609714  1.0000
  Ba  Ba2       1.0  0.7499999597116171  0.7500000413935948  0.7500000506041734  1.0000
  Ti  Ti1       1.0  3.893719672260369e-08  8.183802410427663e-09  0.9999999898035973  1.0000
  Te  Te1       1.0  0.26173894443172824  0.26173892030955404  0.7382610615986293  1.0000
  Te  Te2       1.0  0.7382610643628914  0.7382610306747924  0.26173891045328446  1.0000
  Te  Te3       1.0  0.7382612104854971  0.26173875640560945  0.26173897346781033  1.0000
  Te  Te4       1.0  0.2617387950356003  0.7382612043993022  0.7382610875228505  1.0000
  Te  Te5       1.0  0.261738795483756  0.7382612417979209  0.26173892852087716  1.0000
  Te  Te6       1.0  0.7382612039101524  0.2617387975715146  0.7382610374490896  1.0000
