data_image0
_chemical_formula_structural       Ba2VS6
_chemical_formula_sum              "Ba2 V1 S6"
_cell_length_a       6.679380341801754
_cell_length_b       6.679380625089866
_cell_length_c       6.679380226431818
_cell_angle_alpha    59.99999884478068
_cell_angle_beta     59.99999823159556
_cell_angle_gamma    59.99999641138077

_space_group_name_H-M_alt    "P 1"
_space_group_IT_number       1

loop_
  _space_group_symop_operation_xyz
  'x, y, z'

loop_
  _atom_site_type_symbol
  _atom_site_label
  _atom_site_symmetry_multiplicity
  _atom_site_fract_x
  _atom_site_fract_y
  _atom_site_fract_z
  _atom_site_occupancy
  Ba  Ba1       1.0  0.24999999255662533  0.2500000053110628  0.2500000336682299  1.0000
  Ba  Ba2       1.0  0.7499999922159838  0.7500000085987101  0.7499999491815307  1.0000
  V   V1        1.0  1.3638292001685892e-08  0.9999999798301746  0.9999999987743322  1.0000
  S   S1        1.0  0.24199316836163234  0.24199320070839553  0.7580068568994204  1.0000
  S   S2        1.0  0.7580068367545507  0.7580068040332724  0.24199319072841557  1.0000
  S   S3        1.0  0.7580068746613834  0.2419931729189836  0.24199313489081253  1.0000
  S   S4        1.0  0.24199316209670704  0.7580068043183787  0.7580068103595147  1.0000
  S   S5        1.0  0.2419931374281567  0.7580068474009787  0.2419931886378396  1.0000
  S   S6        1.0  0.7580068774493437  0.24199315917430966  0.7580068412153679  1.0000
