data_image0
_chemical_formula_structural       Ba2VSe6
_chemical_formula_sum              "Ba2 V1 Se6"
_cell_length_a       6.914296643433414
_cell_length_b       6.914296558980508
_cell_length_c       6.914296756297198
_cell_angle_alpha    59.999999963345594
_cell_angle_beta     60.0000015384634
_cell_angle_gamma    59.99999927876937

_space_group_name_H-M_alt    "P 1"
_space_group_IT_number       1

loop_
  _space_group_symop_operation_xyz
  'x, y, z'

loop_
  _atom_site_type_symbol
  _atom_site_label
  _atom_site_symmetry_multiplicity
  _atom_site_fract_x
  _atom_site_fract_y
  _atom_site_fract_z
  _atom_site_occupancy
  Ba  Ba1       1.0  0.2499999848612126  0.2500000034154789  0.250000003093023  1.0000
  Ba  Ba2       1.0  0.750000001917223  0.7500000385875958  0.7499999902433205  1.0000
  V   V1        1.0  0.999999974477962  0.9999999663448733  0.999999991985336  1.0000
  Se  Se1       1.0  0.2515662596793733  0.2515662256512943  0.7484337895798304  1.0000
  Se  Se2       1.0  0.748433722459459  0.7484338553208748  0.25156624588919385  1.0000
  Se  Se3       1.0  0.7484338360126483  0.2515661446146674  0.2515661597045441  1.0000
  Se  Se4       1.0  0.25156621154642905  0.7484337751671567  0.7484337934844487  1.0000
  Se  Se5       1.0  0.2515661705709515  0.7484338217844035  0.2515662015090879  1.0000
  Se  Se6       1.0  0.7484338393186001  0.25156617593560954  0.7484338530329825  1.0000
