data_image0
_chemical_formula_structural       Ba2VO6
_chemical_formula_sum              "Ba2 V1 O6"
_cell_length_a       5.942546047813946
_cell_length_b       5.942545963312462
_cell_length_c       5.942545787940814
_cell_angle_alpha    60.00000047131048
_cell_angle_beta     60.00000155245495
_cell_angle_gamma    60.000000433985775

_space_group_name_H-M_alt    "P 1"
_space_group_IT_number       1

loop_
  _space_group_symop_operation_xyz
  'x, y, z'

loop_
  _atom_site_type_symbol
  _atom_site_label
  _atom_site_symmetry_multiplicity
  _atom_site_fract_x
  _atom_site_fract_y
  _atom_site_fract_z
  _atom_site_occupancy
  Ba  Ba1       1.0  0.24999998252678396  0.2499999463177879  0.25000008127345247  1.0000
  Ba  Ba2       1.0  0.7500000046342103  0.7500000058924762  0.7500000157120188  1.0000
  V   V1        1.0  7.207351345482287e-08  0.9999998887072589  6.504468706285671e-08  1.0000
  O   O1        1.0  0.22162232429846485  0.22162218620949758  0.7783777730314055  1.0000
  O   O2        1.0  0.7783777382901101  0.7783777845495572  0.22162219787519785  1.0000
  O   O3        1.0  0.7783777543315161  0.22162221787102684  0.22162223469454176  1.0000
  O   O4        1.0  0.22162223700863057  0.7783778209002582  0.7783777916791355  1.0000
  O   O5        1.0  0.22162224497363484  0.7783778593463103  0.22162208360971924  1.0000
  O   O6        1.0  0.7783776403374411  0.22162230514455372  0.7783777074261201  1.0000
