data_image0
_chemical_formula_structural       Ba2VTe6
_chemical_formula_sum              "Ba2 V1 Te6"
_cell_length_a       7.405850443723405
_cell_length_b       7.405850030038518
_cell_length_c       7.405851114674467
_cell_angle_alpha    59.99999381917378
_cell_angle_beta     59.99999529003225
_cell_angle_gamma    60.00000506018961

_space_group_name_H-M_alt    "P 1"
_space_group_IT_number       1

loop_
  _space_group_symop_operation_xyz
  'x, y, z'

loop_
  _atom_site_type_symbol
  _atom_site_label
  _atom_site_symmetry_multiplicity
  _atom_site_fract_x
  _atom_site_fract_y
  _atom_site_fract_z
  _atom_site_occupancy
  Ba  Ba1       1.0  0.24999995556585006  0.2500000639723805  0.25000000238321995  1.0000
  Ba  Ba2       1.0  0.7500000328401474  0.7499999554304347  0.749999976157814  1.0000
  V   V1        1.0  0.999999956202658  0.9999999255810947  1.3067316068042484e-07  1.0000
  Te  Te1       1.0  0.26268384019674074  0.26268376033770535  0.7373161687433024  1.0000
  Te  Te2       1.0  0.73731606481643  0.7373162987551812  0.26268373442868376  1.0000
  Te  Te3       1.0  0.7373160086766871  0.26268397089827844  0.26268412068192964  1.0000
  Te  Te4       1.0  0.2626840225511784  0.7373160650420749  0.7373158335805353  1.0000
  Te  Te5       1.0  0.2626841150481133  0.7373160460060346  0.2626840866560982  1.0000
  Te  Te6       1.0  0.7373159915091988  0.26268393701422  0.7373159468706999  1.0000
