data_image0
_chemical_formula_structural       Ba2YO6
_chemical_formula_sum              "Ba2 Y1 O6"
_cell_length_a       6.080803632408419
_cell_length_b       6.080803496953259
_cell_length_c       6.080803632251285
_cell_angle_alpha    59.99999852157101
_cell_angle_beta     59.99999852890126
_cell_angle_gamma    59.99999928591794

_space_group_name_H-M_alt    "P 1"
_space_group_IT_number       1

loop_
  _space_group_symop_operation_xyz
  'x, y, z'

loop_
  _atom_site_type_symbol
  _atom_site_label
  _atom_site_symmetry_multiplicity
  _atom_site_fract_x
  _atom_site_fract_y
  _atom_site_fract_z
  _atom_site_occupancy
  Ba  Ba1       1.0  0.2499999197014759  0.250000063389773  0.24999997530642065  1.0000
  Ba  Ba2       1.0  0.7500001053840044  0.7499999887576343  0.7499998715750275  1.0000
  Y   Y1        1.0  0.9999999832749868  0.999999947632962  0.9999997796455073  1.0000
  O   O1        1.0  0.2557120378657176  0.2557120350073739  0.7442879868707156  1.0000
  O   O2        1.0  0.744287930136745  0.7442880231823832  0.2557120417604173  1.0000
  O   O3        1.0  0.7442878738933211  0.25571210570823416  0.25571210334361566  1.0000
  O   O4        1.0  0.2557119239329322  0.7442880471450142  0.7442880748712022  1.0000
  O   O5        1.0  0.25571211857715404  0.7442878894241467  0.2557120836149415  1.0000
  O   O6        1.0  0.744288076668158  0.2557119029021849  0.7442880893099585  1.0000
