data_image0
_chemical_formula_structural       Ba2YS6
_chemical_formula_sum              "Ba2 Y1 S6"
_cell_length_a       6.98037805536253
_cell_length_b       6.980378298195696
_cell_length_c       6.98037797639729
_cell_angle_alpha    59.99999801681371
_cell_angle_beta     60.00000038767321
_cell_angle_gamma    60.000000409946495

_space_group_name_H-M_alt    "P 1"
_space_group_IT_number       1

loop_
  _space_group_symop_operation_xyz
  'x, y, z'

loop_
  _atom_site_type_symbol
  _atom_site_label
  _atom_site_symmetry_multiplicity
  _atom_site_fract_x
  _atom_site_fract_y
  _atom_site_fract_z
  _atom_site_occupancy
  Ba  Ba1       1.0  0.25000003887858346  0.24999998732193063  0.24999997195945134  1.0000
  Ba  Ba2       1.0  0.7500000333232254  0.7499999935477579  0.749999960367266  1.0000
  Y   Y1        1.0  7.183340408939316e-08  0.9999999631543764  0.9999998693317235  1.0000
  S   S1        1.0  0.2711210493916577  0.27112108910450666  0.7288789656524015  1.0000
  S   S2        1.0  0.7288789163386992  0.7288789233471448  0.2711210929394648  1.0000
  S   S3        1.0  0.7288788076860301  0.2711211741070807  0.27112115734805464  1.0000
  S   S4        1.0  0.27112108103038873  0.7288789155449342  0.7288789255045788  1.0000
  S   S5        1.0  0.2711210487087348  0.7288789478094689  0.27112106044269013  1.0000
  S   S6        1.0  0.7288789582105936  0.27112101551467926  0.7288789763318742  1.0000
