data_image0
_chemical_formula_structural       Ba2YTe6
_chemical_formula_sum              "Ba2 Y1 Te6"
_cell_length_a       7.74422388628129
_cell_length_b       7.744223987901092
_cell_length_c       7.744224150862247
_cell_angle_alpha    59.99999739094836
_cell_angle_beta     59.99999892060468
_cell_angle_gamma    60.00000115185226

_space_group_name_H-M_alt    "P 1"
_space_group_IT_number       1

loop_
  _space_group_symop_operation_xyz
  'x, y, z'

loop_
  _atom_site_type_symbol
  _atom_site_label
  _atom_site_symmetry_multiplicity
  _atom_site_fract_x
  _atom_site_fract_y
  _atom_site_fract_z
  _atom_site_occupancy
  Ba  Ba1       1.0  0.25000003237360324  0.25000003000604104  0.24999995296893512  1.0000
  Ba  Ba2       1.0  0.7499999370981191  0.7500000109433841  0.7500000494761929  1.0000
  Y   Y1        1.0  0.9999999931934099  0.9999999399032019  5.927739368179638e-08  1.0000
  Te  Te1       1.0  0.2742493865869411  0.2742494111380234  0.7257505403500016  1.0000
  Te  Te2       1.0  0.7257506529045996  0.7257505807850702  0.274249399946986  1.0000
  Te  Te3       1.0  0.7257505214597463  0.2742493667810838  0.2742494958036794  1.0000
  Te  Te4       1.0  0.27424950584759195  0.7257506124900502  0.7257505434274804  1.0000
  Te  Te5       1.0  0.274249499869079  0.7257506207863235  0.2742493173704682  1.0000
  Te  Te6       1.0  0.7257504679307015  0.2742494296520705  0.725750646301453  1.0000
