data_image0
_chemical_formula_structural       Ba2YSe6
_chemical_formula_sum              "Ba2 Y1 Se6"
_cell_length_a       7.243359684181094
_cell_length_b       7.24335997840145
_cell_length_c       7.243359969272221
_cell_angle_alpha    59.99999852247406
_cell_angle_beta     59.99999961284853
_cell_angle_gamma    60.000000476996966

_space_group_name_H-M_alt    "P 1"
_space_group_IT_number       1

loop_
  _space_group_symop_operation_xyz
  'x, y, z'

loop_
  _atom_site_type_symbol
  _atom_site_label
  _atom_site_symmetry_multiplicity
  _atom_site_fract_x
  _atom_site_fract_y
  _atom_site_fract_z
  _atom_site_occupancy
  Ba  Ba1       1.0  0.2500000200301412  0.24999999965966552  0.2499999842314114  1.0000
  Ba  Ba2       1.0  0.7499999946501432  0.7499999753070693  0.7500000151978098  1.0000
  Y   Y1        1.0  0.9999999758777477  3.8889594826937596e-08  0.9999999056401179  1.0000
  Se  Se1       1.0  0.27581901331026465  0.27581904573878746  0.7241809872635776  1.0000
  Se  Se2       1.0  0.7241810241218616  0.7241809900986145  0.27581901039105694  1.0000
  Se  Se3       1.0  0.7241809862920111  0.2758190551580924  0.2758190007190591  1.0000
  Se  Se4       1.0  0.27581898220483825  0.7241810009695321  0.7241810005494803  1.0000
  Se  Se5       1.0  0.2758189702483696  0.7241809240078323  0.2758190729711173  1.0000
  Se  Se6       1.0  0.7241810304078468  0.27581897825227075  0.7241810222852956  1.0000
