data_image0
_chemical_formula_structural       Ba2ZnS6
_chemical_formula_sum              "Ba2 Zn1 S6"
_cell_length_a       6.624866658356896
_cell_length_b       6.624866544972648
_cell_length_c       6.62486665278488
_cell_angle_alpha    59.999999600136704
_cell_angle_beta     59.99999999693871
_cell_angle_gamma    59.999999980694334

_space_group_name_H-M_alt    "P 1"
_space_group_IT_number       1

loop_
  _space_group_symop_operation_xyz
  'x, y, z'

loop_
  _atom_site_type_symbol
  _atom_site_label
  _atom_site_symmetry_multiplicity
  _atom_site_fract_x
  _atom_site_fract_y
  _atom_site_fract_z
  _atom_site_occupancy
  Ba  Ba1       1.0  0.2500000273840992  0.2500000180350786  0.2499999795476998  1.0000
  Ba  Ba2       1.0  0.7500000090891776  0.7499999857030114  0.7499999701296984  1.0000
  Zn  Zn1       1.0  0.9999999980818426  0.9999999482361549  1.9293679480527675e-08  1.0000
  S   S1        1.0  0.25575041491183376  0.2557503775719636  0.7442496171308643  1.0000
  S   S2        1.0  0.7442496452411876  0.7442496335609617  0.2557503834256752  1.0000
  S   S3        1.0  0.7442496467643174  0.255750329815619  0.25575035553282194  1.0000
  S   S4        1.0  0.25575028903907865  0.7442496517379655  0.7442496691569489  1.0000
  S   S5        1.0  0.25575033784621787  0.7442496730986394  0.25575034501345195  1.0000
  S   S6        1.0  0.7442496302098087  0.2557503842520042  0.7442496573502251  1.0000
