data_image0
_chemical_formula_structural       Ba2ZnSe6
_chemical_formula_sum              "Ba2 Zn1 Se6"
_cell_length_a       6.875114335479296
_cell_length_b       6.875114504665789
_cell_length_c       6.875114591052857
_cell_angle_alpha    59.99999843782924
_cell_angle_beta     60.000001135536614
_cell_angle_gamma    60.000000312438054

_space_group_name_H-M_alt    "P 1"
_space_group_IT_number       1

loop_
  _space_group_symop_operation_xyz
  'x, y, z'

loop_
  _atom_site_type_symbol
  _atom_site_label
  _atom_site_symmetry_multiplicity
  _atom_site_fract_x
  _atom_site_fract_y
  _atom_site_fract_z
  _atom_site_occupancy
  Ba  Ba1       1.0  0.25000002516702413  0.24999995450519208  0.24999998111772528  1.0000
  Ba  Ba2       1.0  0.7499999882815421  0.7500000042475512  0.7500000227769992  1.0000
  Zn  Zn1       1.0  7.451089096456714e-08  0.9999999679344859  4.958694969855683e-09  1.0000
  Se  Se1       1.0  0.26181363189019125  0.2618136627629515  0.7381863476590995  1.0000
  Se  Se2       1.0  0.7381862807687072  0.7381863262738878  0.26181370021553585  1.0000
  Se  Se3       1.0  0.738186290015325  0.26181369917546954  0.2618136953085242  1.0000
  Se  Se4       1.0  0.2618136850396255  0.7381863646809027  0.7381862723221495  1.0000
  Se  Se5       1.0  0.26181365637653387  0.7381863662229684  0.2618136383253141  1.0000
  Se  Se6       1.0  0.7381863542718055  0.26181365131655043  0.7381863404851776  1.0000
