data_image0
_chemical_formula_structural       Ba2ZnTe6
_chemical_formula_sum              "Ba2 Zn1 Te6"
_cell_length_a       7.431449536972491
_cell_length_b       7.431449453300213
_cell_length_c       7.431449190617915
_cell_angle_alpha    60.000002721168464
_cell_angle_beta     60.00000241305079
_cell_angle_gamma    60.00000069550957

_space_group_name_H-M_alt    "P 1"
_space_group_IT_number       1

loop_
  _space_group_symop_operation_xyz
  'x, y, z'

loop_
  _atom_site_type_symbol
  _atom_site_label
  _atom_site_symmetry_multiplicity
  _atom_site_fract_x
  _atom_site_fract_y
  _atom_site_fract_z
  _atom_site_occupancy
  Ba  Ba1       1.0  0.2500000168898664  0.2499999663378692  0.25000000552191654  1.0000
  Ba  Ba2       1.0  0.7500000031910654  0.7499999715280937  0.7500000309604252  1.0000
  Zn  Zn1       1.0  3.660191542809099e-08  0.9999999274855123  0.9999998591716435  1.0000
  Te  Te1       1.0  0.26671378522271805  0.26671419463006035  0.733286006801095  1.0000
  Te  Te2       1.0  0.7332862013315592  0.7332858717843083  0.26671398620726994  1.0000
  Te  Te3       1.0  0.7332858531285802  0.26671425585253083  0.266713824993932  1.0000
  Te  Te4       1.0  0.26671407700136424  0.7332858632996471  0.7332862546325464  1.0000
  Te  Te5       1.0  0.2667141485993041  0.733285724783105  0.26671390616970075  1.0000
  Te  Te6       1.0  0.7332858822639915  0.26671421802702705  0.7332861291775373  1.0000
