data_image0
_chemical_formula_structural       Be2CS6
_chemical_formula_sum              "Be2 C1 S6"
_cell_length_a       5.68621073250794
_cell_length_b       5.686210327201841
_cell_length_c       5.686210091713917
_cell_angle_alpha    59.99999985120199
_cell_angle_beta     60.00000224301212
_cell_angle_gamma    60.000003913057284

_space_group_name_H-M_alt    "P 1"
_space_group_IT_number       1

loop_
  _space_group_symop_operation_xyz
  'x, y, z'

loop_
  _atom_site_type_symbol
  _atom_site_label
  _atom_site_symmetry_multiplicity
  _atom_site_fract_x
  _atom_site_fract_y
  _atom_site_fract_z
  _atom_site_occupancy
  Be  Be1       1.0  0.24999995251080934  0.2500001223465804  0.25000019680013874  1.0000
  Be  Be2       1.0  0.7500001706374821  0.74999992118537  0.7499999849743626  1.0000
  C   C1        1.0  0.9999999691276397  9.261709535531995e-08  0.9999999480239444  1.0000
  S   S1        1.0  0.2372802635702239  0.23728044778633212  0.7627196527032606  1.0000
  S   S2        1.0  0.7627197693859937  0.7627196043611576  0.23728053468669652  1.0000
  S   S3        1.0  0.7627194721930656  0.23728046861302224  0.23728025460215801  1.0000
  S   S4        1.0  0.23728018380901647  0.7627197213831547  0.762719579266201  1.0000
  S   S5        1.0  0.2372804622484699  0.7627194884001856  0.23728027592575704  1.0000
  S   S6        1.0  0.762719756821707  0.23728013943178358  0.7627195469388149  1.0000
