data_image0
_chemical_formula_structural       Be2CO6
_chemical_formula_sum              "Be2 C1 O6"
_cell_length_a       4.7719434450141955
_cell_length_b       4.771943655467764
_cell_length_c       4.77194300305948
_cell_angle_alpha    60.00000376551063
_cell_angle_beta     60.00000352705123
_cell_angle_gamma    60.00000189662859

_space_group_name_H-M_alt    "P 1"
_space_group_IT_number       1

loop_
  _space_group_symop_operation_xyz
  'x, y, z'

loop_
  _atom_site_type_symbol
  _atom_site_label
  _atom_site_symmetry_multiplicity
  _atom_site_fract_x
  _atom_site_fract_y
  _atom_site_fract_z
  _atom_site_occupancy
  Be  Be1       1.0  0.24999997281317016  0.2500001765492925  0.249999949590269  1.0000
  Be  Be2       1.0  0.7500000643430781  0.7500000266034078  0.7500000420103384  1.0000
  C   C1        1.0  0.9999999635566679  7.69966112217848e-09  0.9999999787469337  1.0000
  O   O1        1.0  0.22123038644510343  0.22123015015623837  0.7787697892434405  1.0000
  O   O2        1.0  0.7787695661703018  0.778769791208017  0.22123024350011788  1.0000
  O   O3        1.0  0.7787696295106039  0.22123032959057926  0.22123026665456774  1.0000
  O   O4        1.0  0.22123032906824142  0.7787696374392111  0.7787696601644578  1.0000
  O   O5        1.0  0.2212301726862364  0.7787696124017638  0.22123044701111994  1.0000
  O   O6        1.0  0.7787698078173221  0.2212303469283654  0.7787695439451832  1.0000
