data_image0
_chemical_formula_structural       Br2CO6
_chemical_formula_sum              "Br2 C1 O6"
_cell_length_a       5.440037564231913
_cell_length_b       5.440037730982823
_cell_length_c       5.440037828656744
_cell_angle_alpha    60.000001283979515
_cell_angle_beta     60.000000398722534
_cell_angle_gamma    59.99999934952799

_space_group_name_H-M_alt    "P 1"
_space_group_IT_number       1

loop_
  _space_group_symop_operation_xyz
  'x, y, z'

loop_
  _atom_site_type_symbol
  _atom_site_label
  _atom_site_symmetry_multiplicity
  _atom_site_fract_x
  _atom_site_fract_y
  _atom_site_fract_z
  _atom_site_occupancy
  Br  Br1       1.0  0.2500001396674472  0.24999997141993185  0.24999954107640923  1.0000
  Br  Br2       1.0  0.7499999947809332  0.7500000470896785  0.7499995648753334  1.0000
  C   C1        1.0  1.2436541463244392e-06  0.9999996758050254  0.9999974575643229  1.0000
  O   O1        1.0  0.2082091667378872  0.20820914222991252  0.7917910706239941  1.0000
  O   O2        1.0  0.7917902971063167  0.7917904237576533  0.2082098266617027  1.0000
  O   O3        1.0  0.7917900320527532  0.20820994312791363  0.20821016696080977  1.0000
  O   O4        1.0  0.20820884191848485  0.7917912078126208  0.7917913302037384  1.0000
  O   O5        1.0  0.20820953156065705  0.7917904343538532  0.2082098070581213  1.0000
  O   O6        1.0  0.791790830550291  0.20820907309850478  0.7917910324916548  1.0000
