data_image0
_chemical_formula_structural       Br2CoO6
_chemical_formula_sum              "Br2 Co1 O6"
_cell_length_a       5.731970950252814
_cell_length_b       5.7319710526288485
_cell_length_c       5.73197114001234
_cell_angle_alpha    60.00000274774305
_cell_angle_beta     60.00000170892069
_cell_angle_gamma    60.000003375196115

_space_group_name_H-M_alt    "P 1"
_space_group_IT_number       1

loop_
  _space_group_symop_operation_xyz
  'x, y, z'

loop_
  _atom_site_type_symbol
  _atom_site_label
  _atom_site_symmetry_multiplicity
  _atom_site_fract_x
  _atom_site_fract_y
  _atom_site_fract_z
  _atom_site_occupancy
  Br  Br1       1.0  0.24999985850368647  0.2500002213373932  0.24999992092717382  1.0000
  Br  Br2       1.0  0.7500000569469019  0.7499998905302238  0.7500002245772688  1.0000
  Co  Co1       1.0  0.99999997521511  3.205035841963421e-08  2.9514676486493134e-08  1.0000
  O   O1        1.0  0.22453721811144625  0.2245370686652576  0.7754628878215006  1.0000
  O   O2        1.0  0.775462906298124  0.7754629662814985  0.2245369927794216  1.0000
  O   O3        1.0  0.7754630159234576  0.22453707030413747  0.2245370043316115  1.0000
  O   O4        1.0  0.22453698973595768  0.7754627830239229  0.7754630753025444  1.0000
  O   O5        1.0  0.22453694110228414  0.7754629245294067  0.2245370693906487  1.0000
  O   O6        1.0  0.775463014477585  0.22453705486339048  0.77546283268287  1.0000
