data_image0
_chemical_formula_structural       Br2GeO6
_chemical_formula_sum              "Br2 Ge1 O6"
_cell_length_a       5.811957107289463
_cell_length_b       5.811956913294319
_cell_length_c       5.811957044637323
_cell_angle_alpha    59.99999925396738
_cell_angle_beta     60.000000896201236
_cell_angle_gamma    59.99999940046496

_space_group_name_H-M_alt    "P 1"
_space_group_IT_number       1

loop_
  _space_group_symop_operation_xyz
  'x, y, z'

loop_
  _atom_site_type_symbol
  _atom_site_label
  _atom_site_symmetry_multiplicity
  _atom_site_fract_x
  _atom_site_fract_y
  _atom_site_fract_z
  _atom_site_occupancy
  Br  Br1       1.0  0.25000003422563843  0.24999989169696976  0.25000003594156167  1.0000
  Br  Br2       1.0  0.7499997951409466  0.7500001745174232  0.7500000755412721  1.0000
  Ge  Ge1       1.0  0.9999999545040353  5.900397633876339e-08  0.999999972598904  1.0000
  O   O1        1.0  0.23465811040296797  0.23465789587271918  0.7653419694944704  1.0000
  O   O2        1.0  0.7653420139521652  0.765341946969478  0.23465803735655502  1.0000
  O   O3        1.0  0.7653420147732469  0.23465792907840283  0.23465794026491826  1.0000
  O   O4        1.0  0.23465794353352168  0.7653420781320139  0.765342125926267  1.0000
  O   O5        1.0  0.23465806354905405  0.7653421445307339  0.23465773200740636  1.0000
  O   O6        1.0  0.7653421013023326  0.23465779735385253  0.7653421396918463  1.0000
