data_image0
_chemical_formula_structural       Br2HfO6
_chemical_formula_sum              "Br2 Hf1 O6"
_cell_length_a       5.892513497624397
_cell_length_b       5.892514109156335
_cell_length_c       5.8925138791308695
_cell_angle_alpha    60.00000184006907
_cell_angle_beta     60.0000007613134
_cell_angle_gamma    60.000003659723546

_space_group_name_H-M_alt    "P 1"
_space_group_IT_number       1

loop_
  _space_group_symop_operation_xyz
  'x, y, z'

loop_
  _atom_site_type_symbol
  _atom_site_label
  _atom_site_symmetry_multiplicity
  _atom_site_fract_x
  _atom_site_fract_y
  _atom_site_fract_z
  _atom_site_occupancy
  Br  Br1       1.0  0.24999970980088118  0.2500004097473924  0.24999987724149278  1.0000
  Br  Br2       1.0  0.7500002725871272  0.74999995721497  0.7499994772240166  1.0000
  Hf  Hf1       1.0  0.9999999843231514  0.9999999999999998  9.535492572358578e-09  1.0000
  O   O1        1.0  0.2524572365461944  0.25245781017960306  0.7475424256700681  1.0000
  O   O2        1.0  0.7475429050354744  0.7475419498678102  0.25245772626525753  1.0000
  O   O3        1.0  0.7475424543851366  0.25245735912081746  0.25245771893283186  1.0000
  O   O4        1.0  0.25245755985943524  0.7475425360275246  0.7475424325147128  1.0000
  O   O5        1.0  0.2524575267799884  0.7475424448473708  0.25245764633690077  1.0000
  O   O6        1.0  0.7475423190165492  0.2524575147337203  0.7475427149456584  1.0000
