data_image0
_chemical_formula_structural       Br2MoO6
_chemical_formula_sum              "Br2 Mo1 O6"
_cell_length_a       5.784552721705884
_cell_length_b       5.784553261206241
_cell_length_c       5.784552824763784
_cell_angle_alpha    60.000003361211796
_cell_angle_beta     60.00000339197907
_cell_angle_gamma    60.00000173474673

_space_group_name_H-M_alt    "P 1"
_space_group_IT_number       1

loop_
  _space_group_symop_operation_xyz
  'x, y, z'

loop_
  _atom_site_type_symbol
  _atom_site_label
  _atom_site_symmetry_multiplicity
  _atom_site_fract_x
  _atom_site_fract_y
  _atom_site_fract_z
  _atom_site_occupancy
  Br  Br1       1.0  0.2499999923998467  0.24999994613811227  0.24999996514055095  1.0000
  Br  Br2       1.0  0.750000057268122  0.74999986170428  0.7499999249932716  1.0000
  Mo  Mo1       1.0  2.1657031176536393e-08  0.999999911074753  0.999999981771845  1.0000
  O   O1        1.0  0.23959992026522087  0.23960010015218847  0.7603999769991223  1.0000
  O   O2        1.0  0.7603999172367222  0.7604000866811405  0.23960004581500322  1.0000
  O   O3        1.0  0.760399989171884  0.23959995176744525  0.2396000938770773  1.0000
  O   O4        1.0  0.23960010856347963  0.7603999873455468  0.7604000022026493  1.0000
  O   O5        1.0  0.23959997360147037  0.7604001319286418  0.2396000062323679  1.0000
  O   O6        1.0  0.7603999530435683  0.23960002102840025  0.7604000546405556  1.0000
