data_image0
_chemical_formula_structural       Br2MnO6
_chemical_formula_sum              "Br2 Mn1 O6"
_cell_length_a       5.469362133719225
_cell_length_b       5.469362388493774
_cell_length_c       5.469362496018792
_cell_angle_alpha    59.999999604466396
_cell_angle_beta     59.999999871270035
_cell_angle_gamma    60.000002785932544

_space_group_name_H-M_alt    "P 1"
_space_group_IT_number       1

loop_
  _space_group_symop_operation_xyz
  'x, y, z'

loop_
  _atom_site_type_symbol
  _atom_site_label
  _atom_site_symmetry_multiplicity
  _atom_site_fract_x
  _atom_site_fract_y
  _atom_site_fract_z
  _atom_site_occupancy
  Br  Br1       1.0  0.2500000561589266  0.2500001911701096  0.2499999816378984  1.0000
  Br  Br2       1.0  0.7499999821046511  0.7499998658969911  0.7500001523903925  1.0000
  Mn  Mn1       1.0  5.065519889402152e-07  1.9638509278495956e-06  1.8986189962458708e-06  1.0000
  O   O1        1.0  0.24731768983187605  0.24731785490677083  0.7526828506778346  1.0000
  O   O2        1.0  0.7526797180001867  0.7526800166203401  0.24732070607965567  1.0000
  O   O3        1.0  0.7526833212671145  0.24731723299241148  0.2473171642995009  1.0000
  O   O4        1.0  0.2473212469578774  0.752679317358107  0.7526792310392957  1.0000
  O   O5        1.0  0.2473176872323973  0.7526828713393404  0.24731786464540023  1.0000
  O   O6        1.0  0.7526798071056304  0.24732068796585094  0.7526801483533332  1.0000
