data_image0
_chemical_formula_structural       Br2NiO6
_chemical_formula_sum              "Br2 Ni1 O6"
_cell_length_a       5.638299838426969
_cell_length_b       5.638299991001877
_cell_length_c       5.638299795471383
_cell_angle_alpha    60.00000416658988
_cell_angle_beta     60.000006922116064
_cell_angle_gamma    60.00000677113353

_space_group_name_H-M_alt    "P 1"
_space_group_IT_number       1

loop_
  _space_group_symop_operation_xyz
  'x, y, z'

loop_
  _atom_site_type_symbol
  _atom_site_label
  _atom_site_symmetry_multiplicity
  _atom_site_fract_x
  _atom_site_fract_y
  _atom_site_fract_z
  _atom_site_occupancy
  Br  Br1       1.0  0.24999993889417188  0.2500003699616441  0.2499997968846173  1.0000
  Br  Br2       1.0  0.7499999388828319  0.7499995698035854  0.7500001794056318  1.0000
  Ni  Ni1       1.0  0.9999999849402218  2.1721867734128914e-09  0.9999999195381643  1.0000
  O   O1        1.0  0.22944719514400821  0.22944741248244824  0.7705528805089682  1.0000
  O   O2        1.0  0.770552803625791  0.7705526619584515  0.22944750002234757  1.0000
  O   O3        1.0  0.7705526697210284  0.22944735729209326  0.22944709426037624  1.0000
  O   O4        1.0  0.22944752180894942  0.7705524890690595  0.7705527665346849  1.0000
  O   O5        1.0  0.2294472869462628  0.7705525254575584  0.22944719018309737  1.0000
  O   O6        1.0  0.7705526181959255  0.22944759025490657  0.7705526418849239  1.0000
