data_image0
_chemical_formula_structural       Br2NbO6
_chemical_formula_sum              "Br2 Nb1 O6"
_cell_length_a       5.927929390885319
_cell_length_b       5.927929302122081
_cell_length_c       5.927930102485692
_cell_angle_alpha    60.00000299815957
_cell_angle_beta     60.00000430607581
_cell_angle_gamma    60.0000033692012

_space_group_name_H-M_alt    "P 1"
_space_group_IT_number       1

loop_
  _space_group_symop_operation_xyz
  'x, y, z'

loop_
  _atom_site_type_symbol
  _atom_site_label
  _atom_site_symmetry_multiplicity
  _atom_site_fract_x
  _atom_site_fract_y
  _atom_site_fract_z
  _atom_site_occupancy
  Br  Br1       1.0  0.24999864105971475  0.2499997309589296  0.25000067651643837  1.0000
  Br  Br2       1.0  0.7500003922758076  0.7499999097991749  0.7500001652936424  1.0000
  Nb  Nb1       1.0  0.9999991554089466  0.9999994132393062  0.9999991114058595  1.0000
  O   O1        1.0  0.24147562708888123  0.24147532849759415  0.7585250717760615  1.0000
  O   O2        1.0  0.7585247353818853  0.7585243453175052  0.2414758193784464  1.0000
  O   O3        1.0  0.7585253849769465  0.24147546960409438  0.24147517988307934  1.0000
  O   O4        1.0  0.24147583730010524  0.7585244356095201  0.7585243576298779  1.0000
  O   O5        1.0  0.24147545186934602  0.7585251352816762  0.2414752378848235  1.0000
  O   O6        1.0  0.7585247384663354  0.24147638145751354  0.7585242797447734  1.0000
