data_image0
_chemical_formula_structural       Br2OsO6
_chemical_formula_sum              "Br2 Os1 O6"
_cell_length_a       5.705936999006736
_cell_length_b       5.705937233713225
_cell_length_c       5.705936960994638
_cell_angle_alpha    59.99999919927029
_cell_angle_beta     59.99999887768347
_cell_angle_gamma    60.00000182441175

_space_group_name_H-M_alt    "P 1"
_space_group_IT_number       1

loop_
  _space_group_symop_operation_xyz
  'x, y, z'

loop_
  _atom_site_type_symbol
  _atom_site_label
  _atom_site_symmetry_multiplicity
  _atom_site_fract_x
  _atom_site_fract_y
  _atom_site_fract_z
  _atom_site_occupancy
  Br  Br1       1.0  0.25000004086879424  0.2500000507680679  0.24999991025369453  1.0000
  Br  Br2       1.0  0.7499999296446609  0.7499999419531337  0.7500000323134365  1.0000
  Os  Os1       1.0  0.9999999542514159  6.43931824306359e-08  0.9999999713995341  1.0000
  O   O1        1.0  0.2306916244217394  0.23069159971983094  0.7693083689935197  1.0000
  O   O2        1.0  0.7693084996882001  0.7693083329010671  0.23069164249451646  1.0000
  O   O3        1.0  0.7693083590731404  0.2306916376615763  0.23069163567339745  1.0000
  O   O4        1.0  0.23069162405237598  0.7693083657918207  0.7693083846021928  1.0000
  O   O5        1.0  0.2306916427542529  0.7693083861877892  0.23069165039116568  1.0000
  O   O6        1.0  0.7693083446641422  0.23069160438697053  0.7693084074759543  1.0000
