data_image0
_chemical_formula_structural       Br2PO6
_chemical_formula_sum              "Br2 P1 O6"
_cell_length_a       5.698993874683472
_cell_length_b       5.698996449624137
_cell_length_c       5.698994396257106
_cell_angle_alpha    60.000012180581834
_cell_angle_beta     60.00000624600258
_cell_angle_gamma    60.00000753716076

_space_group_name_H-M_alt    "P 1"
_space_group_IT_number       1

loop_
  _space_group_symop_operation_xyz
  'x, y, z'

loop_
  _atom_site_type_symbol
  _atom_site_label
  _atom_site_symmetry_multiplicity
  _atom_site_fract_x
  _atom_site_fract_y
  _atom_site_fract_z
  _atom_site_occupancy
  Br  Br1       1.0  0.2500005006528967  0.24999839188595976  0.2500013687065436  1.0000
  Br  Br2       1.0  0.7499994290025644  0.750002555506914  0.7499995593565673  1.0000
  P   P1        1.0  9.997444924390282e-07  0.9999991403786566  0.999998978893516  1.0000
  O   O1        1.0  0.21254660717171522  0.2125454119029668  0.7874536239125742  1.0000
  O   O2        1.0  0.787452919132998  0.7874545512236186  0.21254610288785086  1.0000
  O   O3        1.0  0.7874537724802867  0.21254579842699123  0.21254680690318653  1.0000
  O   O4        1.0  0.21254545714297968  0.7874544225859772  0.7874538394535578  1.0000
  O   O5        1.0  0.2125463242525115  0.7874541036239995  0.2125458111009753  1.0000
  O   O6        1.0  0.7874544242200451  0.21254516535828596  0.7874538815528771  1.0000
