data_image0
_chemical_formula_structural       Br2PdO6
_chemical_formula_sum              "Br2 Pd1 O6"
_cell_length_a       3.9363480038381504
_cell_length_b       3.7024971217138813
_cell_length_c       2.705047277951946
_cell_angle_alpha    93.24967799324735
_cell_angle_beta     92.25828382841682
_cell_angle_gamma    30.466393211553985

_space_group_name_H-M_alt    "P 1"
_space_group_IT_number       1

loop_
  _space_group_symop_operation_xyz
  'x, y, z'

loop_
  _atom_site_type_symbol
  _atom_site_label
  _atom_site_symmetry_multiplicity
  _atom_site_fract_x
  _atom_site_fract_y
  _atom_site_fract_z
  _atom_site_occupancy
  Br  Br1       1.0  0.10620012741706275  0.7780115763662298  0.8078581649647927  1.0000
  Br  Br2       1.0  0.6456791001990945  0.497493946036599  0.2939231759208943  1.0000
  Pd  Pd1       1.0  0.6259684636322771  0.6072999958108337  0.6021150807542852  1.0000
  O   O1        1.0  0.11641054621802129  0.843956874283342  0.6205223861874234  1.0000
  O   O2        1.0  0.44064184183590416  0.9294788996486427  0.14941426098980118  1.0000
  O   O3        1.0  0.1496006664922307  0.6688504971245459  0.09425081587575057  1.0000
  O   O4        1.0  0.9292948908644184  0.7063370871908478  0.8832615281054254  1.0000
  O   O5        1.0  0.16138862636796802  0.7007162308375148  0.7216824000512528  1.0000
  O   O6        1.0  0.43617093377090077  0.30057786138924614  0.32484804579058335  1.0000
