data_image0
_chemical_formula_structural       Br2PtO6
_chemical_formula_sum              "Br2 Pt1 O6"
_cell_length_a       5.748185214493114
_cell_length_b       5.748184975085993
_cell_length_c       5.7481853148116935
_cell_angle_alpha    59.99999662092443
_cell_angle_beta     59.99999627270013
_cell_angle_gamma    60.0000068359071

_space_group_name_H-M_alt    "P 1"
_space_group_IT_number       1

loop_
  _space_group_symop_operation_xyz
  'x, y, z'

loop_
  _atom_site_type_symbol
  _atom_site_label
  _atom_site_symmetry_multiplicity
  _atom_site_fract_x
  _atom_site_fract_y
  _atom_site_fract_z
  _atom_site_occupancy
  Br  Br1       1.0  0.250000563887884  0.24999971622519487  0.24999922894749738  1.0000
  Br  Br2       1.0  0.7500003397974354  0.7500002694045  0.7500000518167216  1.0000
  Pt  Pt1       1.0  1.9518534403742436e-07  0.9999996313952112  2.1370632326543567e-07  1.0000
  O   O1        1.0  0.23495671270616972  0.2349569181687843  0.7650435235393507  1.0000
  O   O2        1.0  0.7650430381002803  0.7650433742763443  0.23495666910654214  1.0000
  O   O3        1.0  0.7650433622814705  0.23495665879664282  0.23495694881463997  1.0000
  O   O4        1.0  0.23495638672877936  0.7650430604999671  0.7650432790500952  1.0000
  O   O5        1.0  0.23495690323522078  0.765043471835022  0.23495642209872897  1.0000
  O   O6        1.0  0.7650425036784573  0.23495687600732426  0.7650436294875151  1.0000
