data_image0
_chemical_formula_structural       Br2ReO6
_chemical_formula_sum              "Br2 Re1 O6"
_cell_length_a       5.803746303549683
_cell_length_b       5.8037462140497595
_cell_length_c       5.803746504511033
_cell_angle_alpha    59.99999845860658
_cell_angle_beta     59.99999685247572
_cell_angle_gamma    59.999998912084386

_space_group_name_H-M_alt    "P 1"
_space_group_IT_number       1

loop_
  _space_group_symop_operation_xyz
  'x, y, z'

loop_
  _atom_site_type_symbol
  _atom_site_label
  _atom_site_symmetry_multiplicity
  _atom_site_fract_x
  _atom_site_fract_y
  _atom_site_fract_z
  _atom_site_occupancy
  Br  Br1       1.0  0.24999990273432207  0.2500000249714898  0.24999998050067995  1.0000
  Br  Br2       1.0  0.7499999676515022  0.7500001023479309  0.749999897996484  1.0000
  Re  Re1       1.0  0.9999994948643255  2.321292646789434e-07  0.9999997367614256  1.0000
  O   O1        1.0  0.23504486401613453  0.23504478239696994  0.7649552346914296  1.0000
  O   O2        1.0  0.7649552766523441  0.7649552562912775  0.23504471666735965  1.0000
  O   O3        1.0  0.7649553294016597  0.23504473429138575  0.23504483799504497  1.0000
  O   O4        1.0  0.2350448083738543  0.7649552474196777  0.7649552122198161  1.0000
  O   O5        1.0  0.235044969851343  0.7649550338085828  0.23504494540777407  1.0000
  O   O6        1.0  0.764955464478366  0.23504455961352216  0.764955398790056  1.0000
