data_image0
_chemical_formula_structural       Br2RuO6
_chemical_formula_sum              "Br2 Ru1 O6"
_cell_length_a       5.887220960501724
_cell_length_b       5.887221044237784
_cell_length_c       5.887221205104215
_cell_angle_alpha    59.99999812671472
_cell_angle_beta     59.99999642220322
_cell_angle_gamma    59.99999840421052

_space_group_name_H-M_alt    "P 1"
_space_group_IT_number       1

loop_
  _space_group_symop_operation_xyz
  'x, y, z'

loop_
  _atom_site_type_symbol
  _atom_site_label
  _atom_site_symmetry_multiplicity
  _atom_site_fract_x
  _atom_site_fract_y
  _atom_site_fract_z
  _atom_site_occupancy
  Br  Br1       1.0  0.24999992447762345  0.25000007809885044  0.25000004663868985  1.0000
  Br  Br2       1.0  0.7500000087019487  0.7499999992176031  0.7500000667814504  1.0000
  Ru  Ru1       1.0  0.9999999943334378  2.2883791429904963e-08  0.9999999693096603  1.0000
  O   O1        1.0  0.21798807107574195  0.21798802228664277  0.7820119336360593  1.0000
  O   O2        1.0  0.7820120374610845  0.7820118761201692  0.21798797603037087  1.0000
  O   O3        1.0  0.7820119017022815  0.21798805441718216  0.21798805511772676  1.0000
  O   O4        1.0  0.21798802943777484  0.782011958408587  0.7820119471870042  1.0000
  O   O5        1.0  0.21798806097516088  0.7820119307858566  0.2179880357626591  1.0000
  O   O6        1.0  0.7820119642119879  0.21798805291508694  0.7820119136978062  1.0000
