data_image0
_chemical_formula_structural       Br2RhO6
_chemical_formula_sum              "Br2 Rh1 O6"
_cell_length_a       3.0239026438386714
_cell_length_b       3.82027122330164
_cell_length_c       3.3791169407481525
_cell_angle_alpha    62.30666148593026
_cell_angle_beta     53.37277338460571
_cell_angle_gamma    34.327645058728066

_space_group_name_H-M_alt    "P 1"
_space_group_IT_number       1

loop_
  _space_group_symop_operation_xyz
  'x, y, z'

loop_
  _atom_site_type_symbol
  _atom_site_label
  _atom_site_symmetry_multiplicity
  _atom_site_fract_x
  _atom_site_fract_y
  _atom_site_fract_z
  _atom_site_occupancy
  Br  Br1       1.0  0.10847198271641134  0.4687513562011644  0.6523156120806867  1.0000
  Br  Br2       1.0  0.38600476429206265  0.8838818405991716  0.828813294186256  1.0000
  Rh  Rh1       1.0  0.7999549818918877  0.5101829020555669  0.08501365697720588  1.0000
  O   O1        1.0  0.4934521306821722  0.026190002674365775  0.9195025447592471  1.0000
  O   O2        1.0  0.5538044888539658  0.10582531080426527  0.4193510459513496  1.0000
  O   O3        1.0  0.04107044537221301  0.37344042286491913  0.08569046971072566  1.0000
  O   O4        1.0  0.613970466517019  0.2826733217924491  0.12126476399173969  1.0000
  O   O5        1.0  0.9524609009953687  0.1442668951465622  0.5199403394962472  1.0000
  O   O6        1.0  0.9001208580393162  0.29348881407768923  0.04461729807282344  1.0000
