data_image0
_chemical_formula_structural       Br2SeO6
_chemical_formula_sum              "Br2 Se1 O6"
_cell_length_a       5.47461119886879
_cell_length_b       5.474611222786083
_cell_length_c       5.474611398699793
_cell_angle_alpha    59.99999862399796
_cell_angle_beta     59.99999808632959
_cell_angle_gamma    60.00000109429561

_space_group_name_H-M_alt    "P 1"
_space_group_IT_number       1

loop_
  _space_group_symop_operation_xyz
  'x, y, z'

loop_
  _atom_site_type_symbol
  _atom_site_label
  _atom_site_symmetry_multiplicity
  _atom_site_fract_x
  _atom_site_fract_y
  _atom_site_fract_z
  _atom_site_occupancy
  Br  Br1       1.0  0.24999997234030225  0.25000011028351826  0.24999994044152113  1.0000
  Br  Br2       1.0  0.7499999878635357  0.750000118322655  0.749999868421221  1.0000
  Se  Se1       1.0  7.3912671908927925e-09  9.172256815725234e-08  0.9999998846849901  1.0000
  O   O1        1.0  0.24468094234140259  0.24468087415897055  0.7553191175016954  1.0000
  O   O2        1.0  0.7553190573889247  0.7553190144025614  0.2446809694830801  1.0000
  O   O3        1.0  0.755319054318017  0.24468091744885617  0.2446809874052198  1.0000
  O   O4        1.0  0.24468096637628506  0.7553189778240836  0.7553191405402743  1.0000
  O   O5        1.0  0.24468098053418288  0.7553189715622205  0.24468098962461365  1.0000
  O   O6        1.0  0.7553190453581519  0.24468094608207755  0.7553191117498893  1.0000
