data_image0
_chemical_formula_structural       Br2SO6
_chemical_formula_sum              "Br2 S1 O6"
_cell_length_a       5.554097803521967
_cell_length_b       5.554098253707174
_cell_length_c       5.5540983310971015
_cell_angle_alpha    59.99999608171358
_cell_angle_beta     59.99999598760058
_cell_angle_gamma    60.00000109132976

_space_group_name_H-M_alt    "P 1"
_space_group_IT_number       1

loop_
  _space_group_symop_operation_xyz
  'x, y, z'

loop_
  _atom_site_type_symbol
  _atom_site_label
  _atom_site_symmetry_multiplicity
  _atom_site_fract_x
  _atom_site_fract_y
  _atom_site_fract_z
  _atom_site_occupancy
  Br  Br1       1.0  0.25000001627760465  0.25000009559999364  0.25000002670989224  1.0000
  Br  Br2       1.0  0.7499998809018606  0.7499998986990003  0.7500000394620642  1.0000
  S   S1        1.0  0.999999769695152  0.9999998302058047  3.945005321607422e-07  1.0000
  O   O1        1.0  0.21791142255069643  0.21791134467109222  0.7820885352452998  1.0000
  O   O2        1.0  0.7820887647203573  0.7820888458835261  0.2179111887270688  1.0000
  O   O3        1.0  0.7820886209969433  0.2179112796021852  0.21791113663308498  1.0000
  O   O4        1.0  0.2179113881354444  0.7820886220818071  0.7820888172429937  1.0000
  O   O5        1.0  0.21791135027008066  0.7820888253636059  0.21791098628431108  1.0000
  O   O6        1.0  0.7820887918284856  0.2179114445753029  0.7820887565915996  1.0000
