data_image0
_chemical_formula_structural       Br2SnO6
_chemical_formula_sum              "Br2 Sn1 O6"
_cell_length_a       5.883834421641025
_cell_length_b       5.883834392143386
_cell_length_c       5.883834481232436
_cell_angle_alpha    59.999999974182124
_cell_angle_beta     60.00000009512101
_cell_angle_gamma    59.99999947608301

_space_group_name_H-M_alt    "P 1"
_space_group_IT_number       1

loop_
  _space_group_symop_operation_xyz
  'x, y, z'

loop_
  _atom_site_type_symbol
  _atom_site_label
  _atom_site_symmetry_multiplicity
  _atom_site_fract_x
  _atom_site_fract_y
  _atom_site_fract_z
  _atom_site_occupancy
  Br  Br1       1.0  0.25000027991000123  0.2499998668369786  0.24999994182862714  1.0000
  Br  Br2       1.0  0.7500002252981359  0.7500002957459864  0.7499998088782979  1.0000
  Sn  Sn1       1.0  5.0943212155296936e-08  1.4154485955165846e-07  0.9999998748632418  1.0000
  O   O1        1.0  0.2519796876141376  0.2519795588301341  0.7480204190819438  1.0000
  O   O2        1.0  0.7480201343901522  0.748020445555638  0.25197976762164576  1.0000
  O   O3        1.0  0.7480203443127407  0.25197961992902096  0.25197970285216414  1.0000
  O   O4        1.0  0.2519794757494773  0.7480203490705355  0.7480203155626555  1.0000
  O   O5        1.0  0.251979486057329  0.7480202410468383  0.2519798045935684  1.0000
  O   O6        1.0  0.7480202998739093  0.251979459433793  0.7480203838414939  1.0000
