data_image0
_chemical_formula_structural       Br2TiO6
_chemical_formula_sum              "Br2 Ti1 O6"
_cell_length_a       5.818512399256578
_cell_length_b       5.818512365670524
_cell_length_c       5.8185123751910055
_cell_angle_alpha    60.00000057237129
_cell_angle_beta     60.00000066063708
_cell_angle_gamma    59.99999848331064

_space_group_name_H-M_alt    "P 1"
_space_group_IT_number       1

loop_
  _space_group_symop_operation_xyz
  'x, y, z'

loop_
  _atom_site_type_symbol
  _atom_site_label
  _atom_site_symmetry_multiplicity
  _atom_site_fract_x
  _atom_site_fract_y
  _atom_site_fract_z
  _atom_site_occupancy
  Br  Br1       1.0  0.25000009921170246  0.2500004876719113  0.24999986382353412  1.0000
  Br  Br2       1.0  0.7499996580291186  0.7500006610447812  0.7499999015011535  1.0000
  Ti  Ti1       1.0  6.091075238563084e-09  1.6628794289532453e-07  0.9999999963058048  1.0000
  O   O1        1.0  0.23540776453759465  0.23540745641473132  0.7645923511491971  1.0000
  O   O2        1.0  0.7645924563890587  0.7645920631010946  0.23540763945331197  1.0000
  O   O3        1.0  0.7645922410874142  0.23540734312040493  0.23540792350767542  1.0000
  O   O4        1.0  0.23540769055890912  0.7645921869199811  0.7645923680260391  1.0000
  O   O5        1.0  0.23540784534736944  0.7645921547403429  0.23540753208257434  1.0000
  O   O6        1.0  0.7645922409889233  0.23540755421744533  0.7645923606293877  1.0000
