data_image0
_chemical_formula_structural       Br2TeO6
_chemical_formula_sum              "Br2 Te1 O6"
_cell_length_a       5.739195189249145
_cell_length_b       5.739195038580073
_cell_length_c       5.739195423392432
_cell_angle_alpha    59.99999885908604
_cell_angle_beta     60.00000106924468
_cell_angle_gamma    59.99999961862726

_space_group_name_H-M_alt    "P 1"
_space_group_IT_number       1

loop_
  _space_group_symop_operation_xyz
  'x, y, z'

loop_
  _atom_site_type_symbol
  _atom_site_label
  _atom_site_symmetry_multiplicity
  _atom_site_fract_x
  _atom_site_fract_y
  _atom_site_fract_z
  _atom_site_occupancy
  Br  Br1       1.0  0.24999995841478861  0.2500000128335139  0.24999997364041313  1.0000
  Br  Br2       1.0  0.750000009965223  0.749999972346507  0.7500000922415626  1.0000
  Te  Te1       1.0  1.9997507572129655e-08  6.402003387119357e-09  0.9999999171040644  1.0000
  O   O1        1.0  0.24135681438038953  0.24135696175744675  0.758643140367925  1.0000
  O   O2        1.0  0.7586431474755717  0.7586430490305879  0.241356854987911  1.0000
  O   O3        1.0  0.7586431122617419  0.24135684833741705  0.24135688542502237  1.0000
  O   O4        1.0  0.2413568952799082  0.7586431581826155  0.7586431223276567  1.0000
  O   O5        1.0  0.24135687348660423  0.7586431736665763  0.24135685955393396  1.0000
  O   O6        1.0  0.7586431463708703  0.24135682004944942  0.7586431641244772  1.0000
