data_image0
_chemical_formula_structural       Br2TaO6
_chemical_formula_sum              "Br2 Ta1 O6"
_cell_length_a       6.020556069910205
_cell_length_b       6.020556937408615
_cell_length_c       6.020556438851687
_cell_angle_alpha    60.000006603452476
_cell_angle_beta     60.00000667448608
_cell_angle_gamma    60.00000907501554

_space_group_name_H-M_alt    "P 1"
_space_group_IT_number       1

loop_
  _space_group_symop_operation_xyz
  'x, y, z'

loop_
  _atom_site_type_symbol
  _atom_site_label
  _atom_site_symmetry_multiplicity
  _atom_site_fract_x
  _atom_site_fract_y
  _atom_site_fract_z
  _atom_site_occupancy
  Br  Br1       1.0  0.24999939375114308  0.25000030423247366  0.2500002778254905  1.0000
  Br  Br2       1.0  0.7499993697653405  0.7500000054123431  0.7500001314532048  1.0000
  Ta  Ta1       1.0  1.0873198972726546e-06  6.448641251926794e-07  1.1503329931967678e-06  1.0000
  O   O1        1.0  0.23283826850689868  0.23283827919978609  0.7671611853781856  1.0000
  O   O2        1.0  0.7671620941609385  0.7671617497155877  0.23283735217714127  1.0000
  O   O3        1.0  0.7671610784888648  0.23283870506903323  0.23283814395564545  1.0000
  O   O4        1.0  0.23283817992992162  0.7671616676382093  0.767161556147925  1.0000
  O   O5        1.0  0.2328385705209412  0.767161051519973  0.23283842276760472  1.0000
  O   O6        1.0  0.7671621291847106  0.23283752899409044  0.7671616388184815  1.0000
