data_image0
_chemical_formula_structural       Br2VO6
_chemical_formula_sum              "Br2 V1 O6"
_cell_length_a       5.906423884240385
_cell_length_b       5.9064243069395275
_cell_length_c       5.90642328589601
_cell_angle_alpha    60.000001252818855
_cell_angle_beta     60.00000293041044
_cell_angle_gamma    59.99999515187989

_space_group_name_H-M_alt    "P 1"
_space_group_IT_number       1

loop_
  _space_group_symop_operation_xyz
  'x, y, z'

loop_
  _atom_site_type_symbol
  _atom_site_label
  _atom_site_symmetry_multiplicity
  _atom_site_fract_x
  _atom_site_fract_y
  _atom_site_fract_z
  _atom_site_occupancy
  Br  Br1       1.0  0.2500002386361817  0.24999992745731184  0.24999990214273227  1.0000
  Br  Br2       1.0  0.749999973458984  0.7500002033089197  0.7499999653826507  1.0000
  V   V1        1.0  1.610853545962726e-07  0.9999996516383826  2.5955920054550244e-07  1.0000
  O   O1        1.0  0.22139019555951128  0.22139038569053887  0.7786096341712596  1.0000
  O   O2        1.0  0.7786094413718391  0.7786098342397237  0.2213903849281255  1.0000
  O   O3        1.0  0.7786095437924395  0.22139047240245752  0.22139024028204923  1.0000
  O   O4        1.0  0.22139038018715934  0.7786097309391412  0.7786095064487094  1.0000
  O   O5        1.0  0.22139029672622698  0.7786095778604426  0.2213903465372632  1.0000
  O   O6        1.0  0.77860971416766  0.22139027089880245  0.7786096864040217  1.0000
