data_image0
_chemical_formula_structural       Ca2AuS6
_chemical_formula_sum              "Ca2 Au1 S6"
_cell_length_a       6.4347634647494925
_cell_length_b       6.43476367137492
_cell_length_c       6.434763905866004
_cell_angle_alpha    59.999998331822525
_cell_angle_beta     59.9999983429914
_cell_angle_gamma    60.00000086811579

_space_group_name_H-M_alt    "P 1"
_space_group_IT_number       1

loop_
  _space_group_symop_operation_xyz
  'x, y, z'

loop_
  _atom_site_type_symbol
  _atom_site_label
  _atom_site_symmetry_multiplicity
  _atom_site_fract_x
  _atom_site_fract_y
  _atom_site_fract_z
  _atom_site_occupancy
  Ca  Ca1       1.0  0.249999986534097  0.2499999861365199  0.2500000165965695  1.0000
  Ca  Ca2       1.0  0.7499999868987627  0.7500000326392486  0.749999999026628  1.0000
  Au  Au1       1.0  9.190068026698963e-09  0.9999999885800478  3.3750172150831365e-08  1.0000
  S   S1        1.0  0.26377464548881324  0.2637746164980453  0.7362253714980469  1.0000
  S   S2        1.0  0.7362253489708015  0.7362253661145421  0.26377461284189974  1.0000
  S   S3        1.0  0.7362253934906478  0.26377465648674164  0.26377462592715867  1.0000
  S   S4        1.0  0.263774611409243  0.7362253432557742  0.7362253523979786  1.0000
  S   S5        1.0  0.2637746768615241  0.73622536966409  0.26377463314482497  1.0000
  S   S6        1.0  0.7362253462007966  0.2637746186584739  0.7362253573496592  1.0000
