data_image0
_chemical_formula_structural       Ca2AgSe6
_chemical_formula_sum              "Ca2 Ag1 Se6"
_cell_length_a       6.7599131918791535
_cell_length_b       6.759913163121587
_cell_length_c       6.759912961753522
_cell_angle_alpha    60.00000186607963
_cell_angle_beta     60.00000271237924
_cell_angle_gamma    59.99999966237175

_space_group_name_H-M_alt    "P 1"
_space_group_IT_number       1

loop_
  _space_group_symop_operation_xyz
  'x, y, z'

loop_
  _atom_site_type_symbol
  _atom_site_label
  _atom_site_symmetry_multiplicity
  _atom_site_fract_x
  _atom_site_fract_y
  _atom_site_fract_z
  _atom_site_occupancy
  Ca  Ca1       1.0  0.2499999906078979  0.24999996082439765  0.25000004804614023  1.0000
  Ca  Ca2       1.0  0.750000003810905  0.7499999966150819  0.7500000488842369  1.0000
  Ag  Ag1       1.0  0.9999999777761578  3.080019297302053e-08  4.15704031830628e-08  1.0000
  Se  Se1       1.0  0.2693300797535316  0.269330059919641  0.730669902380575  1.0000
  Se  Se2       1.0  0.7306699419602525  0.7306699591202219  0.2693299903367497  1.0000
  Se  Se3       1.0  0.7306699695869034  0.269330086593232  0.26932998410898074  1.0000
  Se  Se4       1.0  0.2693299677876181  0.7306699958587937  0.7306699708477082  1.0000
  Se  Se5       1.0  0.2693300624300719  0.7306699614062804  0.26933002001047085  1.0000
  Se  Se6       1.0  0.730670010892665  0.26932994892702056  0.7306699840969619  1.0000
