data_image0
_chemical_formula_structural       Ca2AgO6
_chemical_formula_sum              "Ca2 Ag1 O6"
_cell_length_a       5.447649218548374
_cell_length_b       5.447649254241894
_cell_length_c       5.447649414640871
_cell_angle_alpha    60.000001135149795
_cell_angle_beta     60.0000013565388
_cell_angle_gamma    60.000001092949724

_space_group_name_H-M_alt    "P 1"
_space_group_IT_number       1

loop_
  _space_group_symop_operation_xyz
  'x, y, z'

loop_
  _atom_site_type_symbol
  _atom_site_label
  _atom_site_symmetry_multiplicity
  _atom_site_fract_x
  _atom_site_fract_y
  _atom_site_fract_z
  _atom_site_occupancy
  Ca  Ca1       1.0  0.24999995376440065  0.25000004327951364  0.24999998323280948  1.0000
  Ca  Ca2       1.0  0.7499999452666368  0.7500000241727666  0.750000011942913  1.0000
  Ag  Ag1       1.0  4.0037891324583336e-08  0.9999999752697121  0.9999999776609658  1.0000
  O   O1        1.0  0.25325500756820585  0.25325502618469226  0.746745018718709  1.0000
  O   O2        1.0  0.7467449637029786  0.7467449580838935  0.2532550461766808  1.0000
  O   O3        1.0  0.7467449762854625  0.2532550349692072  0.25325506972243017  1.0000
  O   O4        1.0  0.2532550705430285  0.7467449515475864  0.7467449287353923  1.0000
  O   O5        1.0  0.2532550492199006  0.7467450029518706  0.2532550035741523  1.0000
  O   O6        1.0  0.746744986881858  0.253254990309546  0.7467449454764098  1.0000
