data_image0
_chemical_formula_structural       Ca2AgS6
_chemical_formula_sum              "Ca2 Ag1 S6"
_cell_length_a       6.43091512009767
_cell_length_b       6.430914984169255
_cell_length_c       6.43091474014157
_cell_angle_alpha    59.99999965885939
_cell_angle_beta     59.999999742292744
_cell_angle_gamma    59.999999541799646

_space_group_name_H-M_alt    "P 1"
_space_group_IT_number       1

loop_
  _space_group_symop_operation_xyz
  'x, y, z'

loop_
  _atom_site_type_symbol
  _atom_site_label
  _atom_site_symmetry_multiplicity
  _atom_site_fract_x
  _atom_site_fract_y
  _atom_site_fract_z
  _atom_site_occupancy
  Ca  Ca1       1.0  0.25000006012516496  0.2499999846482951  0.2499999844014163  1.0000
  Ca  Ca2       1.0  0.7499999962308281  0.7500000377413196  0.7500000018233784  1.0000
  Ag  Ag1       1.0  0.9999999957025395  0.9999999428660655  2.204243243601468e-07  1.0000
  S   S1        1.0  0.2637765291914544  0.2637764773875517  0.7362234735463223  1.0000
  S   S2        1.0  0.7362234944805787  0.736223626894034  0.2637763885551873  1.0000
  S   S3        1.0  0.7362234734202159  0.2637765183390784  0.2637764572151026  1.0000
  S   S4        1.0  0.26377643929208056  0.7362235040505372  0.7362234997572743  1.0000
  S   S5        1.0  0.2637764804292634  0.736223455326159  0.26377648897062317  1.0000
  S   S6        1.0  0.7362235255083512  0.26377644898666264  0.736223472652548  1.0000
