data_image0
_chemical_formula_structural       Ca2AuSe6
_chemical_formula_sum              "Ca2 Au1 Se6"
_cell_length_a       6.8081136441694365
_cell_length_b       6.80811344772985
_cell_length_c       6.808113414383137
_cell_angle_alpha    60.00000100494971
_cell_angle_beta     60.00000022357711
_cell_angle_gamma    59.99999996927856

_space_group_name_H-M_alt    "P 1"
_space_group_IT_number       1

loop_
  _space_group_symop_operation_xyz
  'x, y, z'

loop_
  _atom_site_type_symbol
  _atom_site_label
  _atom_site_symmetry_multiplicity
  _atom_site_fract_x
  _atom_site_fract_y
  _atom_site_fract_z
  _atom_site_occupancy
  Ca  Ca1       1.0  0.2499999779012839  0.25000005871221853  0.24999990563183194  1.0000
  Ca  Ca2       1.0  0.7500000242655682  0.7500000520091804  0.7500000142259915  1.0000
  Au  Au1       1.0  0.9999999600645448  4.857162219333226e-08  7.432602633846545e-09  1.0000
  Se  Se1       1.0  0.266339570309551  0.26633955160454503  0.7336604573933567  1.0000
  Se  Se2       1.0  0.7336605012961248  0.7336603864177539  0.26633953318946735  1.0000
  Se  Se3       1.0  0.7336604589277901  0.26633951211054213  0.26633956117849533  1.0000
  Se  Se4       1.0  0.2663395229921915  0.7336604151180633  0.7336605046142303  1.0000
  Se  Se5       1.0  0.26633953347624073  0.7336604522505102  0.266339524712851  1.0000
  Se  Se6       1.0  0.7336604573002979  0.2663395145549721  0.7336604889552792  1.0000
