data_image0
_chemical_formula_structural       Ca2AuO6
_chemical_formula_sum              "Ca2 Au1 O6"
_cell_length_a       5.415509336403228
_cell_length_b       5.415509809487029
_cell_length_c       5.41550934184457
_cell_angle_alpha    60.00000232466988
_cell_angle_beta     60.000002038683
_cell_angle_gamma    60.00000008054899

_space_group_name_H-M_alt    "P 1"
_space_group_IT_number       1

loop_
  _space_group_symop_operation_xyz
  'x, y, z'

loop_
  _atom_site_type_symbol
  _atom_site_label
  _atom_site_symmetry_multiplicity
  _atom_site_fract_x
  _atom_site_fract_y
  _atom_site_fract_z
  _atom_site_occupancy
  Ca  Ca1       1.0  0.2499999993881355  0.25000000592368515  0.249999994543918  1.0000
  Ca  Ca2       1.0  0.7500000372130865  0.7499999454014409  0.7500000242973508  1.0000
  Au  Au1       1.0  4.88893027848679e-09  4.523100913907889e-09  0.9999999768285006  1.0000
  O   O1        1.0  0.2590336444403961  0.2590337663305372  0.740966308368136  1.0000
  O   O2        1.0  0.7409663070645169  0.74096628676436  0.2590336947502066  1.0000
  O   O3        1.0  0.7409662370798559  0.25903379471759613  0.2590336793131481  1.0000
  O   O4        1.0  0.25903368054617854  0.7409662832543575  0.7409662636769115  1.0000
  O   O5        1.0  0.25903377413696094  0.7409662537483587  0.2590337253356694  1.0000
  O   O6        1.0  0.7409663151672023  0.2590336546073077  0.7409663015646984  1.0000
