data_image0
_chemical_formula_structural       Ca2BeTe6
_chemical_formula_sum              "Ca2 Be1 Te6"
_cell_length_a       7.093892040827232
_cell_length_b       7.093892073011547
_cell_length_c       7.093891839432595
_cell_angle_alpha    60.0000016445605
_cell_angle_beta     60.000000382281584
_cell_angle_gamma    60.000001304078594

_space_group_name_H-M_alt    "P 1"
_space_group_IT_number       1

loop_
  _space_group_symop_operation_xyz
  'x, y, z'

loop_
  _atom_site_type_symbol
  _atom_site_label
  _atom_site_symmetry_multiplicity
  _atom_site_fract_x
  _atom_site_fract_y
  _atom_site_fract_z
  _atom_site_occupancy
  Ca  Ca1       1.0  0.24999997709274277  0.24999999571653575  0.2499999967165668  1.0000
  Ca  Ca2       1.0  0.7499999134887774  0.749999952620048  0.7500000642377627  1.0000
  Be  Be1       1.0  2.6520579171811046e-08  3.4529559955031004e-09  0.9999999765552516  1.0000
  Te  Te1       1.0  0.2389263651798977  0.23892628722775713  0.7610736781024476  1.0000
  Te  Te2       1.0  0.761073636762111  0.7610736542029155  0.23892639264978402  1.0000
  Te  Te3       1.0  0.7610736495401779  0.23892638547458525  0.23892632265120742  1.0000
  Te  Te4       1.0  0.2389263882430674  0.7610736681771562  0.7610736402379493  1.0000
  Te  Te5       1.0  0.2389263764562503  0.7610736586117922  0.23892630727815628  1.0000
  Te  Te6       1.0  0.7610736571180096  0.23892638813403694  0.7610736273365265  1.0000
