data_image0
_chemical_formula_structural       Ca2BeO6
_chemical_formula_sum              "Ca2 Be1 O6"
_cell_length_a       5.233115172973117
_cell_length_b       5.233114920359165
_cell_length_c       5.233114814936411
_cell_angle_alpha    59.99999869066326
_cell_angle_beta     59.99999888219572
_cell_angle_gamma    59.99999792721874

_space_group_name_H-M_alt    "P 1"
_space_group_IT_number       1

loop_
  _space_group_symop_operation_xyz
  'x, y, z'

loop_
  _atom_site_type_symbol
  _atom_site_label
  _atom_site_symmetry_multiplicity
  _atom_site_fract_x
  _atom_site_fract_y
  _atom_site_fract_z
  _atom_site_occupancy
  Ca  Ca1       1.0  0.25000002770964125  0.25000000157370106  0.25000003878113525  1.0000
  Ca  Ca2       1.0  0.7499999787529589  0.7500000398267239  0.7499999274023653  1.0000
  Be  Be1       1.0  0.9999999992198746  2.340374369133775e-09  1.832895368229995e-08  1.0000
  O   O1        1.0  0.22451923937325716  0.22451911047490256  0.7754808360632106  1.0000
  O   O2        1.0  0.7754808930640784  0.7754808045452959  0.22451917045209838  1.0000
  O   O3        1.0  0.7754808488738427  0.2245191314818519  0.2245191963569567  1.0000
  O   O4        1.0  0.22451919969253226  0.7754808233247141  0.7754808570424517  1.0000
  O   O5        1.0  0.22451911519635773  0.7754808286257194  0.22451923194072562  1.0000
  O   O6        1.0  0.7754807203159074  0.2245192291573287  0.7754807752193864  1.0000
