data_image0
_chemical_formula_structural       Ca2CS6
_chemical_formula_sum              "Ca2 C1 S6"
_cell_length_a       6.077734228747707
_cell_length_b       6.077733288717163
_cell_length_c       6.0777334331905335
_cell_angle_alpha    60.00000606543001
_cell_angle_beta     60.00000730934502
_cell_angle_gamma    60.000005608845186

_space_group_name_H-M_alt    "P 1"
_space_group_IT_number       1

loop_
  _space_group_symop_operation_xyz
  'x, y, z'

loop_
  _atom_site_type_symbol
  _atom_site_label
  _atom_site_symmetry_multiplicity
  _atom_site_fract_x
  _atom_site_fract_y
  _atom_site_fract_z
  _atom_site_occupancy
  Ca  Ca1       1.0  0.25000003536014903  0.24999999377422738  0.24999999140478765  1.0000
  Ca  Ca2       1.0  0.7500000545727938  0.7499999591562021  0.7499999830804738  1.0000
  C   C1        1.0  0.9999984705717103  3.4257249420648635e-08  1.295487108440948e-06  1.0000
  S   S1        1.0  0.23261969442785982  0.23261991715252373  0.7673800925029027  1.0000
  S   S2        1.0  0.767381026652041  0.7673811118595741  0.23261891483895059  1.0000
  S   S3        1.0  0.7673809224942216  0.2326189719911  0.2326189125953154  1.0000
  S   S4        1.0  0.23261989758490004  0.7673801527191639  0.767380309641359  1.0000
  S   S5        1.0  0.23261935899734648  0.7673804093973146  0.23261950464028727  1.0000
  S   S6        1.0  0.7673805801762615  0.2326193460499816  0.7673809796176378  1.0000
