data_image0
_chemical_formula_structural       Ca2CdTe6
_chemical_formula_sum              "Ca2 Cd1 Te6"
_cell_length_a       7.446670926804535
_cell_length_b       7.446670835044986
_cell_length_c       7.446670873390471
_cell_angle_alpha    59.999999053240074
_cell_angle_beta     60.00000127743557
_cell_angle_gamma    60.00000120816864

_space_group_name_H-M_alt    "P 1"
_space_group_IT_number       1

loop_
  _space_group_symop_operation_xyz
  'x, y, z'

loop_
  _atom_site_type_symbol
  _atom_site_label
  _atom_site_symmetry_multiplicity
  _atom_site_fract_x
  _atom_site_fract_y
  _atom_site_fract_z
  _atom_site_occupancy
  Ca  Ca1       1.0  0.24999998712649418  0.2499999461496047  0.2500000396755678  1.0000
  Ca  Ca2       1.0  0.7500000477899053  0.7499999420641488  0.749999974327192  1.0000
  Cd  Cd1       1.0  2.9367843275357327e-08  4.934062882127442e-09  7.147925667874173e-08  1.0000
  Te  Te1       1.0  0.27313922780886385  0.2731392356930179  0.7268607616237682  1.0000
  Te  Te2       1.0  0.7268607010682911  0.7268607380444997  0.2731392935230155  1.0000
  Te  Te3       1.0  0.726860742712977  0.2731392850115238  0.27313917390379333  1.0000
  Te  Te4       1.0  0.2731392632251951  0.7268607133963135  0.7268607645761065  1.0000
  Te  Te5       1.0  0.27313922958667175  0.7268608046969508  0.2731392194533436  1.0000
  Te  Te6       1.0  0.7268607742660156  0.2731393302199749  0.7268606947869765  1.0000
