data_image0
_chemical_formula_structural       Ca2CoS6
_chemical_formula_sum              "Ca2 Co1 S6"
_cell_length_a       6.19931647482156
_cell_length_b       6.1993159837152225
_cell_length_c       6.199316217968655
_cell_angle_alpha    60.00000041971869
_cell_angle_beta     59.999999965260656
_cell_angle_gamma    60.00000020160097

_space_group_name_H-M_alt    "P 1"
_space_group_IT_number       1

loop_
  _space_group_symop_operation_xyz
  'x, y, z'

loop_
  _atom_site_type_symbol
  _atom_site_label
  _atom_site_symmetry_multiplicity
  _atom_site_fract_x
  _atom_site_fract_y
  _atom_site_fract_z
  _atom_site_occupancy
  Ca  Ca1       1.0  0.24999998675035473  0.24999995734797772  0.2500000286141976  1.0000
  Ca  Ca2       1.0  0.7500000049895202  0.7500000004587741  0.7500000331406491  1.0000
  Co  Co1       1.0  1.4994605492173182e-08  2.765858133214575e-08  0.9999999915780559  1.0000
  S   S1        1.0  0.24877499902733044  0.24877502424710252  0.751225003705267  1.0000
  S   S2        1.0  0.7512250312433598  0.7512249967792624  0.24877497813890587  1.0000
  S   S3        1.0  0.751225045406164  0.2487749900459095  0.24877493208945367  1.0000
  S   S4        1.0  0.248774962099843  0.7512249875169703  0.7512250570595049  1.0000
  S   S5        1.0  0.24877496930390405  0.7512250207774429  0.24877495838606312  1.0000
  S   S6        1.0  0.7512249884179923  0.24877502790749959  0.7512249571837567  1.0000
