data_image0
_chemical_formula_structural       Ca2CoTe6
_chemical_formula_sum              "Ca2 Co1 Te6"
_cell_length_a       7.087444674111573
_cell_length_b       7.087443773898029
_cell_length_c       7.087444341420815
_cell_angle_alpha    60.00000078007267
_cell_angle_beta     60.000001095862615
_cell_angle_gamma    60.000004036662595

_space_group_name_H-M_alt    "P 1"
_space_group_IT_number       1

loop_
  _space_group_symop_operation_xyz
  'x, y, z'

loop_
  _atom_site_type_symbol
  _atom_site_label
  _atom_site_symmetry_multiplicity
  _atom_site_fract_x
  _atom_site_fract_y
  _atom_site_fract_z
  _atom_site_occupancy
  Ca  Ca1       1.0  0.25000006501501976  0.24999993403283735  0.2500000172785901  1.0000
  Ca  Ca2       1.0  0.7500000140321066  0.7500000958667901  0.7499999178560954  1.0000
  Co  Co1       1.0  2.2216104086781942e-08  3.110488096933802e-08  1.1435045463140452e-08  1.0000
  Te  Te1       1.0  0.24957804456045737  0.24957780062856683  0.7504220799888321  1.0000
  Te  Te2       1.0  0.750421922697388  0.7504221394125175  0.24957796866827608  1.0000
  Te  Te3       1.0  0.7504219902738962  0.2495779447486909  0.24957797364078682  1.0000
  Te  Te4       1.0  0.24957794281829493  0.7504220782387325  0.7504220534478727  1.0000
  Te  Te5       1.0  0.2495780238841837  0.7504220423532219  0.2495779326184016  1.0000
  Te  Te6       1.0  0.7504219747890695  0.2495779305207902  0.7504220571065687  1.0000
