data_image0
_chemical_formula_structural       Ca2CdO6
_chemical_formula_sum              "Ca2 Cd1 O6"
_cell_length_a       5.64354795657632
_cell_length_b       5.643547555239916
_cell_length_c       5.6435474518298685
_cell_angle_alpha    59.99999931345971
_cell_angle_beta     60.00000352629054
_cell_angle_gamma    59.999998823449346

_space_group_name_H-M_alt    "P 1"
_space_group_IT_number       1

loop_
  _space_group_symop_operation_xyz
  'x, y, z'

loop_
  _atom_site_type_symbol
  _atom_site_label
  _atom_site_symmetry_multiplicity
  _atom_site_fract_x
  _atom_site_fract_y
  _atom_site_fract_z
  _atom_site_occupancy
  Ca  Ca1       1.0  0.24999999163066558  0.2500000049256903  0.24999995854949206  1.0000
  Ca  Ca2       1.0  0.7500000372665382  0.7499999626930258  0.7499999644157906  1.0000
  Cd  Cd1       1.0  0.9999999289660826  4.12332003626579e-08  6.451454151697783e-08  1.0000
  O   O1        1.0  0.23949507665327524  0.23949507036100487  0.7605048398035548  1.0000
  O   O2        1.0  0.7605049182020288  0.7605050730413587  0.2394949520450577  1.0000
  O   O3        1.0  0.7605047616649682  0.23949514056682275  0.23949536824338016  1.0000
  O   O4        1.0  0.23949496329552383  0.7605051004931196  0.7605047046367115  1.0000
  O   O5        1.0  0.23949527908916637  0.7605047272961073  0.23949510861262324  1.0000
  O   O6        1.0  0.760505061372285  0.2394948887553147  0.7605048644770848  1.0000
