data_image0
_chemical_formula_structural       Ca2CdS6
_chemical_formula_sum              "Ca2 Cd1 S6"
_cell_length_a       6.439246225900474
_cell_length_b       6.43924689906503
_cell_length_c       6.43924643181501
_cell_angle_alpha    59.99999168323996
_cell_angle_beta     59.99999929630942
_cell_angle_gamma    60.000001155845794

_space_group_name_H-M_alt    "P 1"
_space_group_IT_number       1

loop_
  _space_group_symop_operation_xyz
  'x, y, z'

loop_
  _atom_site_type_symbol
  _atom_site_label
  _atom_site_symmetry_multiplicity
  _atom_site_fract_x
  _atom_site_fract_y
  _atom_site_fract_z
  _atom_site_occupancy
  Ca  Ca1       1.0  0.24999990837692196  0.24999992206636065  0.2500000782581768  1.0000
  Ca  Ca2       1.0  0.7500002041202303  0.7499997871211195  0.7499998698984999  1.0000
  Cd  Cd1       1.0  5.012013383320034e-08  0.9999999733719939  2.086645017990384e-08  1.0000
  S   S1        1.0  0.2681385913254333  0.2681388749806497  0.7318613977566535  1.0000
  S   S2        1.0  0.7318611365981915  0.7318613477468096  0.26813918165033895  1.0000
  S   S3        1.0  0.7318613167985614  0.26813891911934407  0.268138577328144  1.0000
  S   S4        1.0  0.2681385900276998  0.731861482396257  0.7318609582253952  1.0000
  S   S5        1.0  0.2681387102993263  0.731861014403232  0.2681388081125253  1.0000
  S   S6        1.0  0.7318614803755294  0.26813867005824404  0.7318611412718852  1.0000
