data_image0
_chemical_formula_structural       Ca2CoSe6
_chemical_formula_sum              "Ca2 Co1 Se6"
_cell_length_a       6.5608063626693225
_cell_length_b       6.5608064823687915
_cell_length_c       6.560806395383079
_cell_angle_alpha    60.00000050169803
_cell_angle_beta     59.999999534505626
_cell_angle_gamma    59.99999990106832

_space_group_name_H-M_alt    "P 1"
_space_group_IT_number       1

loop_
  _space_group_symop_operation_xyz
  'x, y, z'

loop_
  _atom_site_type_symbol
  _atom_site_label
  _atom_site_symmetry_multiplicity
  _atom_site_fract_x
  _atom_site_fract_y
  _atom_site_fract_z
  _atom_site_occupancy
  Ca  Ca1       1.0  0.25000004559852634  0.24999999112308038  0.2499999495341848  1.0000
  Ca  Ca2       1.0  0.7499999798354797  0.749999990170079  0.7500000680540679  1.0000
  Co  Co1       1.0  0.9999999851208747  0.9999999495974902  0.9999999991083541  1.0000
  Se  Se1       1.0  0.2512931890861487  0.2512932233707789  0.7487067833549006  1.0000
  Se  Se2       1.0  0.7487067954225414  0.7487068120584098  0.2512931971439381  1.0000
  Se  Se3       1.0  0.7487067977439086  0.2512932607426282  0.25129315372546096  1.0000
  Se  Se4       1.0  0.25129320425799884  0.7487067802868392  0.748706812178224  1.0000
  Se  Se5       1.0  0.2512932075110899  0.7487067961668692  0.2512932449891554  1.0000
  Se  Se6       1.0  0.748706787469143  0.25129321312768477  0.7487067890673156  1.0000
