data_image0
_chemical_formula_structural       Ca2CuTe6
_chemical_formula_sum              "Ca2 Cu1 Te6"
_cell_length_a       7.140379981507311
_cell_length_b       7.140380018975244
_cell_length_c       7.140380017138482
_cell_angle_alpha    59.99999958241772
_cell_angle_beta     60.00000223357405
_cell_angle_gamma    59.99999884652023

_space_group_name_H-M_alt    "P 1"
_space_group_IT_number       1

loop_
  _space_group_symop_operation_xyz
  'x, y, z'

loop_
  _atom_site_type_symbol
  _atom_site_label
  _atom_site_symmetry_multiplicity
  _atom_site_fract_x
  _atom_site_fract_y
  _atom_site_fract_z
  _atom_site_occupancy
  Ca  Ca1       1.0  0.24999994891681931  0.2500000970953204  0.24999996971731275  1.0000
  Ca  Ca2       1.0  0.7499999922989811  0.7499999516688979  0.7499999977832976  1.0000
  Cu  Cu1       1.0  0.999999921427017  1.6294757957710077e-07  5.444621204336619e-08  1.0000
  Te  Te1       1.0  0.2639961887735497  0.2639961258032061  0.7360038400454882  1.0000
  Te  Te2       1.0  0.7360038870434455  0.736003761728668  0.26399615897701384  1.0000
  Te  Te3       1.0  0.7360038170565768  0.26399618503494426  0.26399609945642033  1.0000
  Te  Te4       1.0  0.263996213626153  0.7360037796826264  0.7360038751374509  1.0000
  Te  Te5       1.0  0.2639961681791657  0.7360037605122146  0.26399613868447264  1.0000
  Te  Te6       1.0  0.7360038668000747  0.2639961767615529  0.736003861487902  1.0000
