data_image0
_chemical_formula_structural       Ca2CdSe6
_chemical_formula_sum              "Ca2 Cd1 Se6"
_cell_length_a       6.775282736676438
_cell_length_b       6.775282857345239
_cell_length_c       6.775282725019971
_cell_angle_alpha    59.99999766460873
_cell_angle_beta     59.99999780033661
_cell_angle_gamma    59.999998641530105

_space_group_name_H-M_alt    "P 1"
_space_group_IT_number       1

loop_
  _space_group_symop_operation_xyz
  'x, y, z'

loop_
  _atom_site_type_symbol
  _atom_site_label
  _atom_site_symmetry_multiplicity
  _atom_site_fract_x
  _atom_site_fract_y
  _atom_site_fract_z
  _atom_site_occupancy
  Ca  Ca1       1.0  0.24999995117010596  0.2500000590386181  0.25000010122887123  1.0000
  Ca  Ca2       1.0  0.7500001024244679  0.7500000234642478  0.7499998531201264  1.0000
  Cd  Cd1       1.0  2.434141085002163e-08  3.4345654905670746e-08  0.9999999913198103  1.0000
  Se  Se1       1.0  0.27666855067137525  0.27666854761443926  0.7233314125966949  1.0000
  Se  Se2       1.0  0.7233314346515006  0.7233313613524835  0.27666865822826875  1.0000
  Se  Se3       1.0  0.7233314496656479  0.27666845865848283  0.2766685802376287  1.0000
  Se  Se4       1.0  0.27666854133716157  0.723331509961422  0.7233313929789363  1.0000
  Se  Se5       1.0  0.2766684748102494  0.7233314127893056  0.2766685763453386  1.0000
  Se  Se6       1.0  0.7233314897155988  0.2766685739072597  0.7233314143549555  1.0000
