data_image0
_chemical_formula_structural       Ca2CO6
_chemical_formula_sum              "Ca2 C1 O6"
_cell_length_a       4.963695091490714
_cell_length_b       4.963694959124191
_cell_length_c       4.963695087028985
_cell_angle_alpha    59.99999718229107
_cell_angle_beta     59.999999382883026
_cell_angle_gamma    59.99999908000041

_space_group_name_H-M_alt    "P 1"
_space_group_IT_number       1

loop_
  _space_group_symop_operation_xyz
  'x, y, z'

loop_
  _atom_site_type_symbol
  _atom_site_label
  _atom_site_symmetry_multiplicity
  _atom_site_fract_x
  _atom_site_fract_y
  _atom_site_fract_z
  _atom_site_occupancy
  Ca  Ca1       1.0  0.2499999742004282  0.25000001281697604  0.25000000890642343  1.0000
  Ca  Ca2       1.0  0.7500000039046112  0.7500000039072489  0.7500000375881255  1.0000
  C   C1        1.0  6.1564082132046995e-09  2.46740606222978e-09  0.9999999795710673  1.0000
  O   O1        1.0  0.21964647990362915  0.21964648133675227  0.7803535095983469  1.0000
  O   O2        1.0  0.7803534709672585  0.7803535403222847  0.21964649969479563  1.0000
  O   O3        1.0  0.7803534789307932  0.21964648852737376  0.21964650789477722  1.0000
  O   O4        1.0  0.21964652779531996  0.7803534911857672  0.7803535004875854  1.0000
  O   O5        1.0  0.21964652419498307  0.7803534850355112  0.21964650559713508  1.0000
  O   O6        1.0  0.7803534361221869  0.21964652922130834  0.780353524834885  1.0000
