data_image0
_chemical_formula_structural       Ca2CrO6
_chemical_formula_sum              "Ca2 Cr1 O6"
_cell_length_a       5.186406740544607
_cell_length_b       5.186406865522289
_cell_length_c       5.186406963964283
_cell_angle_alpha    60.0000031500447
_cell_angle_beta     59.99999855451621
_cell_angle_gamma    60.00000257785106

_space_group_name_H-M_alt    "P 1"
_space_group_IT_number       1

loop_
  _space_group_symop_operation_xyz
  'x, y, z'

loop_
  _atom_site_type_symbol
  _atom_site_label
  _atom_site_symmetry_multiplicity
  _atom_site_fract_x
  _atom_site_fract_y
  _atom_site_fract_z
  _atom_site_occupancy
  Ca  Ca1       1.0  0.25000021562341607  0.2499999188689072  0.24999997224887086  1.0000
  Ca  Ca2       1.0  0.7499998093083435  0.7500002855718384  0.7499999071550675  1.0000
  Cr  Cr1       1.0  0.9999997914593995  7.792789723512488e-08  7.301882228122243e-08  1.0000
  O   O1        1.0  0.25042984811556757  0.2504300385682008  0.7495701671235154  1.0000
  O   O2        1.0  0.7495701282213935  0.74956995098046  0.2504298536644437  1.0000
  O   O3        1.0  0.7495700216073891  0.25042981775069095  0.2504300993156972  1.0000
  O   O4        1.0  0.2504300138777411  0.7495700277494292  0.7495699446412728  1.0000
  O   O5        1.0  0.25042998637274005  0.7495700771774533  0.25043005746355657  1.0000
  O   O6        1.0  0.7495700864209417  0.2504297966600862  0.7495699825921853  1.0000
