data_image0
_chemical_formula_structural       Ca2CrSe6
_chemical_formula_sum              "Ca2 Cr1 Se6"
_cell_length_a       6.63353854496576
_cell_length_b       6.633538328307714
_cell_length_c       6.633538480975674
_cell_angle_alpha    59.99999959996784
_cell_angle_beta     59.999999721608184
_cell_angle_gamma    59.999999309126984

_space_group_name_H-M_alt    "P 1"
_space_group_IT_number       1

loop_
  _space_group_symop_operation_xyz
  'x, y, z'

loop_
  _atom_site_type_symbol
  _atom_site_label
  _atom_site_symmetry_multiplicity
  _atom_site_fract_x
  _atom_site_fract_y
  _atom_site_fract_z
  _atom_site_occupancy
  Ca  Ca1       1.0  0.25000003637847107  0.24999998859921546  0.2500000322160583  1.0000
  Ca  Ca2       1.0  0.7499999774213555  0.7500000267252813  0.7499999722473342  1.0000
  Cr  Cr1       1.0  1.1675065234666802e-08  0.9999999963074164  5.781589285724466e-08  1.0000
  Se  Se1       1.0  0.258039120294132  0.2580390389084335  0.741960901701102  1.0000
  Se  Se2       1.0  0.7419608933307463  0.741960924719887  0.2580390729206832  1.0000
  Se  Se3       1.0  0.7419608671678789  0.2580391191332862  0.2580390408989004  1.0000
  Se  Se4       1.0  0.2580390476925461  0.7419609423485105  0.7419609522682667  1.0000
  Se  Se5       1.0  0.25803908289421706  0.7419608820389223  0.25803907920924674  1.0000
  Se  Se6       1.0  0.7419609654390847  0.2580390871282741  0.7419608843338349  1.0000
