data_image0
_chemical_formula_structural       Ca2CrTe6
_chemical_formula_sum              "Ca2 Cr1 Te6"
_cell_length_a       7.205484001800991
_cell_length_b       7.205483513527871
_cell_length_c       7.2054839737050775
_cell_angle_alpha    59.99999978143762
_cell_angle_beta     60.00000038649733
_cell_angle_gamma    60.00000038308351

_space_group_name_H-M_alt    "P 1"
_space_group_IT_number       1

loop_
  _space_group_symop_operation_xyz
  'x, y, z'

loop_
  _atom_site_type_symbol
  _atom_site_label
  _atom_site_symmetry_multiplicity
  _atom_site_fract_x
  _atom_site_fract_y
  _atom_site_fract_z
  _atom_site_occupancy
  Ca  Ca1       1.0  0.25000003457482906  0.2500000069947302  0.2499999323674006  1.0000
  Ca  Ca2       1.0  0.7499999792131848  0.7499999954880904  0.7499999900716079  1.0000
  Cr  Cr1       1.0  2.0655151209121265e-08  0.9999999813028592  0.9999999573860398  1.0000
  Te  Te1       1.0  0.2600558304105985  0.2600558052342828  0.7399441706258632  1.0000
  Te  Te2       1.0  0.7399441525405033  0.7399442176454195  0.26005585556922056  1.0000
  Te  Te3       1.0  0.7399442018816967  0.2600557951432983  0.2600558099778901  1.0000
  Te  Te4       1.0  0.2600557817498737  0.7399441920418637  0.7399442503782108  1.0000
  Te  Te5       1.0  0.2600558055385961  0.7399442178993733  0.26005578050149025  1.0000
  Te  Te6       1.0  0.7399441863805756  0.2600557828837087  0.7399442508700363  1.0000
