data_image0
_chemical_formula_structural       Ca2CuO6
_chemical_formula_sum              "Ca2 Cu1 O6"
_cell_length_a       5.268756074333325
_cell_length_b       5.268756166838423
_cell_length_c       5.268756418891433
_cell_angle_alpha    59.99999742706161
_cell_angle_beta     59.999997244107774
_cell_angle_gamma    60.00000035284073

_space_group_name_H-M_alt    "P 1"
_space_group_IT_number       1

loop_
  _space_group_symop_operation_xyz
  'x, y, z'

loop_
  _atom_site_type_symbol
  _atom_site_label
  _atom_site_symmetry_multiplicity
  _atom_site_fract_x
  _atom_site_fract_y
  _atom_site_fract_z
  _atom_site_occupancy
  Ca  Ca1       1.0  0.24999996290188245  0.24999991437485025  0.25000010023149427  1.0000
  Ca  Ca2       1.0  0.7500000118073585  0.7499999918506285  0.7499999477582511  1.0000
  Cu  Cu1       1.0  0.9999999525596479  0.9999999976754551  1.5014919998303739e-07  1.0000
  O   O1        1.0  0.2521103835524192  0.25211032508854536  0.747889684629332  1.0000
  O   O2        1.0  0.7478895815243412  0.7478897415303819  0.25211034871532295  1.0000
  O   O3        1.0  0.7478896897412181  0.2521103653739704  0.25211034486378703  1.0000
  O   O4        1.0  0.25211048801197244  0.7478895431760563  0.7478894941547681  1.0000
  O   O5        1.0  0.2521103184281789  0.7478897452184978  0.25211037137308473  1.0000
  O   O6        1.0  0.7478895927207562  0.25211039113671146  0.7478895762501173  1.0000
