data_image0
_chemical_formula_structural       Ca2FeTe6
_chemical_formula_sum              "Ca2 Fe1 Te6"
_cell_length_a       7.108129911578122
_cell_length_b       7.108129970521063
_cell_length_c       7.1081299585555735
_cell_angle_alpha    60.00000016494286
_cell_angle_beta     60.00000063858245
_cell_angle_gamma    60.00000055408192

_space_group_name_H-M_alt    "P 1"
_space_group_IT_number       1

loop_
  _space_group_symop_operation_xyz
  'x, y, z'

loop_
  _atom_site_type_symbol
  _atom_site_label
  _atom_site_symmetry_multiplicity
  _atom_site_fract_x
  _atom_site_fract_y
  _atom_site_fract_z
  _atom_site_occupancy
  Ca  Ca1       1.0  0.25000001310635406  0.24999997918849345  0.24999997764339618  1.0000
  Ca  Ca2       1.0  0.7499999945543622  0.7500000133783513  0.7500000032233295  1.0000
  Fe  Fe1       1.0  0.9999999994087535  3.101435631598995e-08  2.2773119197806714e-08  1.0000
  Te  Te1       1.0  0.24124394964001128  0.2412440360829045  0.758756000662768  1.0000
  Te  Te2       1.0  0.7587560115837051  0.7587559495918608  0.2412440195300546  1.0000
  Te  Te3       1.0  0.7587560461862658  0.24124401381603894  0.24124402111723964  1.0000
  Te  Te4       1.0  0.24124398918912873  0.7587559735817465  0.7587559667655936  1.0000
  Te  Te5       1.0  0.24124400212768582  0.758756009077472  0.24124403274264092  1.0000
  Te  Te6       1.0  0.7587559873681418  0.24124399899655075  0.7587559536734593  1.0000
