data_image0
_chemical_formula_structural       Ca2GeTe6
_chemical_formula_sum              "Ca2 Ge1 Te6"
_cell_length_a       7.3466695623204625
_cell_length_b       7.346669491758791
_cell_length_c       7.346669538029781
_cell_angle_alpha    60.00000113942454
_cell_angle_beta     60.000000117367065
_cell_angle_gamma    60.00000219173531

_space_group_name_H-M_alt    "P 1"
_space_group_IT_number       1

loop_
  _space_group_symop_operation_xyz
  'x, y, z'

loop_
  _atom_site_type_symbol
  _atom_site_label
  _atom_site_symmetry_multiplicity
  _atom_site_fract_x
  _atom_site_fract_y
  _atom_site_fract_z
  _atom_site_occupancy
  Ca  Ca1       1.0  0.2500001126287189  0.25000001634414426  0.24999997632170806  1.0000
  Ca  Ca2       1.0  0.7499998690193688  0.7499999373384002  0.7499999932928088  1.0000
  Ge  Ge1       1.0  4.767074423463721e-10  0.9999999749938765  3.540444465179297e-08  1.0000
  Te  Te1       1.0  0.2662479312749028  0.26624791665223174  0.733752043642447  1.0000
  Te  Te2       1.0  0.7337520824098115  0.7337521153828361  0.26624796061412115  1.0000
  Te  Te3       1.0  0.7337519868498238  0.2662479574309936  0.26624789311460756  1.0000
  Te  Te4       1.0  0.26624802345447157  0.7337520045869272  0.7337521328679718  1.0000
  Te  Te5       1.0  0.26624801429785144  0.7337520508046201  0.266247841520901  1.0000
  Te  Te6       1.0  0.7337519845738726  0.2662480162390204  0.7337521145253684  1.0000
