data_image0
_chemical_formula_structural       Ca2GeS6
_chemical_formula_sum              "Ca2 Ge1 S6"
_cell_length_a       6.47447452685352
_cell_length_b       6.474474431746127
_cell_length_c       6.474474221687782
_cell_angle_alpha    60.000001366403566
_cell_angle_beta     60.000000498502985
_cell_angle_gamma    59.999998026876476

_space_group_name_H-M_alt    "P 1"
_space_group_IT_number       1

loop_
  _space_group_symop_operation_xyz
  'x, y, z'

loop_
  _atom_site_type_symbol
  _atom_site_label
  _atom_site_symmetry_multiplicity
  _atom_site_fract_x
  _atom_site_fract_y
  _atom_site_fract_z
  _atom_site_occupancy
  Ca  Ca1       1.0  0.25000002305958696  0.2500000431339598  0.24999996995636273  1.0000
  Ca  Ca2       1.0  0.7499999678118178  0.7499999894196783  0.7500000660677808  1.0000
  Ge  Ge1       1.0  7.025680449255692e-09  5.674953003763328e-09  0.9999998546422566  1.0000
  S   S1        1.0  0.2535907885287006  0.25359071886638396  0.7464092368482087  1.0000
  S   S2        1.0  0.7464092253670808  0.7464092285629395  0.2535907607221902  1.0000
  S   S3        1.0  0.7464093117537957  0.253590788237264  0.2535907309447744  1.0000
  S   S4        1.0  0.2535906200282961  0.7464092878243582  0.7464093344934116  1.0000
  S   S5        1.0  0.25359076438624467  0.7464092236784832  0.2535907749604432  1.0000
  S   S6        1.0  0.7464092965102033  0.253590721859188  0.7464092602919997  1.0000
