data_image0
_chemical_formula_structural       Ca2GeO6
_chemical_formula_sum              "Ca2 Ge1 O6"
_cell_length_a       5.451608278324893
_cell_length_b       5.451608040260719
_cell_length_c       5.451611246207036
_cell_angle_alpha    59.99998171547842
_cell_angle_beta     59.999981964186354
_cell_angle_gamma    59.999992007733624

_space_group_name_H-M_alt    "P 1"
_space_group_IT_number       1

loop_
  _space_group_symop_operation_xyz
  'x, y, z'

loop_
  _atom_site_type_symbol
  _atom_site_label
  _atom_site_symmetry_multiplicity
  _atom_site_fract_x
  _atom_site_fract_y
  _atom_site_fract_z
  _atom_site_occupancy
  Ca  Ca1       1.0  0.24999966850701513  0.24999997772258428  0.25000027752639803  1.0000
  Ca  Ca2       1.0  0.7499999716279144  0.7499999196883486  0.750000148987292  1.0000
  Ge  Ge1       1.0  0.9999998833103345  1.2131508632966167e-07  0.9999998766221652  1.0000
  O   O1        1.0  0.24558782678524935  0.24558794962336947  0.7544121604685708  1.0000
  O   O2        1.0  0.7544125353878645  0.7544117006642593  0.24558777178286473  1.0000
  O   O3        1.0  0.7544121785901347  0.24558810915948281  0.24558757825297536  1.0000
  O   O4        1.0  0.24558786059759666  0.7544120398679595  0.7544121689022847  1.0000
  O   O5        1.0  0.24558778351540692  0.7544122397591457  0.24558797189385068  1.0000
  O   O6        1.0  0.7544124808765665  0.24558779918609827  0.7544120625525623  1.0000
