data_image0
_chemical_formula_structural       Ca2HgS6
_chemical_formula_sum              "Ca2 Hg1 S6"
_cell_length_a       6.523571222084425
_cell_length_b       6.523571213079603
_cell_length_c       6.523571240319896
_cell_angle_alpha    59.99999996993459
_cell_angle_beta     59.99999848977175
_cell_angle_gamma    59.99999889672083

_space_group_name_H-M_alt    "P 1"
_space_group_IT_number       1

loop_
  _space_group_symop_operation_xyz
  'x, y, z'

loop_
  _atom_site_type_symbol
  _atom_site_label
  _atom_site_symmetry_multiplicity
  _atom_site_fract_x
  _atom_site_fract_y
  _atom_site_fract_z
  _atom_site_occupancy
  Ca  Ca1       1.0  0.25000007701860166  0.24999997930386447  0.24999995554361906  1.0000
  Ca  Ca2       1.0  0.7499999909004115  0.7500000317823327  0.749999961233825  1.0000
  Hg  Hg1       1.0  5.721192698681383e-09  9.387073925806093e-09  3.6900045076691975e-08  1.0000
  S   S1        1.0  0.26667924841503904  0.2666792297205488  0.7333207597764761  1.0000
  S   S2        1.0  0.7333206869470219  0.7333208020172122  0.26667928193428514  1.0000
  S   S3        1.0  0.7333207615928121  0.26667918445452604  0.2666792853019815  1.0000
  S   S4        1.0  0.266679276075983  0.7333207421480085  0.7333207256320682  1.0000
  S   S5        1.0  0.2666792550162509  0.7333207616053613  0.2666791848823568  1.0000
  S   S6        1.0  0.7333207084701884  0.26667924948083693  0.7333208178352341  1.0000
