data_image0
_chemical_formula_structural       Ca2HgSe6
_chemical_formula_sum              "Ca2 Hg1 Se6"
_cell_length_a       6.857796020517541
_cell_length_b       6.857796163790223
_cell_length_c       6.857796347906424
_cell_angle_alpha    59.999998615538246
_cell_angle_beta     59.99999751937286
_cell_angle_gamma    60.00000057287215

_space_group_name_H-M_alt    "P 1"
_space_group_IT_number       1

loop_
  _space_group_symop_operation_xyz
  'x, y, z'

loop_
  _atom_site_type_symbol
  _atom_site_label
  _atom_site_symmetry_multiplicity
  _atom_site_fract_x
  _atom_site_fract_y
  _atom_site_fract_z
  _atom_site_occupancy
  Ca  Ca1       1.0  0.249999954296139  0.24999997708979105  0.24999998442747084  1.0000
  Ca  Ca2       1.0  0.749999920577463  0.7500000259229284  0.7499999821011055  1.0000
  Hg  Hg1       1.0  0.9999999987743418  6.42929803739835e-08  7.199813870342847e-08  1.0000
  Se  Se1       1.0  0.2776748492505875  0.2776747756080211  0.7223252038992722  1.0000
  Se  Se2       1.0  0.7223251501730125  0.7223251416807258  0.2776748890357276  1.0000
  Se  Se3       1.0  0.7223253284450157  0.2776746863813858  0.27767470885908024  1.0000
  Se  Se4       1.0  0.2776748298314922  0.7223252594820216  0.7223252305761652  1.0000
  Se  Se5       1.0  0.2776747375483699  0.7223252908299378  0.277674739899187  1.0000
  Se  Se6       1.0  0.7223252132469452  0.27767479254900856  0.7223251863984722  1.0000
