data_image0
_chemical_formula_structural       Ca2HgTe6
_chemical_formula_sum              "Ca2 Hg1 Te6"
_cell_length_a       7.448206602491827
_cell_length_b       7.448206505030632
_cell_length_c       7.448206493655797
_cell_angle_alpha    60.00000010744453
_cell_angle_beta     60.00000004752162
_cell_angle_gamma    59.99999974422138

_space_group_name_H-M_alt    "P 1"
_space_group_IT_number       1

loop_
  _space_group_symop_operation_xyz
  'x, y, z'

loop_
  _atom_site_type_symbol
  _atom_site_label
  _atom_site_symmetry_multiplicity
  _atom_site_fract_x
  _atom_site_fract_y
  _atom_site_fract_z
  _atom_site_occupancy
  Ca  Ca1       1.0  0.2500000663405685  0.24999998687570668  0.24999999995391847  1.0000
  Ca  Ca2       1.0  0.7499999535707506  0.7500000412002068  0.750000009800015  1.0000
  Hg  Hg1       1.0  1.534171669447629e-09  2.7953927963118247e-08  0.9999999731725043  1.0000
  Te  Te1       1.0  0.27436578817513857  0.27436574485636006  0.7256342268372903  1.0000
  Te  Te2       1.0  0.7256341631949192  0.7256342190899537  0.27436578614963425  1.0000
  Te  Te3       1.0  0.7256341712258094  0.27436583755036187  0.2743658054198428  1.0000
  Te  Te4       1.0  0.2743658019103151  0.725634177370762  0.7256342047617709  1.0000
  Te  Te5       1.0  0.27436586989807343  0.7256341746919717  0.27436579456392257  1.0000
  Te  Te6       1.0  0.7256341759466576  0.27436579418738827  0.7256342063120849  1.0000
