data_image0
_chemical_formula_structural       Ca2HgO6
_chemical_formula_sum              "Ca2 Hg1 O6"
_cell_length_a       5.4231802743983915
_cell_length_b       5.423180367787656
_cell_length_c       5.423179960254221
_cell_angle_alpha    60.00000001966398
_cell_angle_beta     60.00000057409652
_cell_angle_gamma    59.99999693522212

_space_group_name_H-M_alt    "P 1"
_space_group_IT_number       1

loop_
  _space_group_symop_operation_xyz
  'x, y, z'

loop_
  _atom_site_type_symbol
  _atom_site_label
  _atom_site_symmetry_multiplicity
  _atom_site_fract_x
  _atom_site_fract_y
  _atom_site_fract_z
  _atom_site_occupancy
  Ca  Ca1       1.0  0.2499999816724327  0.24999998003224447  0.2500000543395538  1.0000
  Ca  Ca2       1.0  0.7500000470451537  0.7500000236557477  0.7499999116466765  1.0000
  Hg  Hg1       1.0  3.920744174563754e-08  0.9999999909665902  3.8387145078581445e-08  1.0000
  O   O1        1.0  0.27109628272604114  0.2710963063998579  0.7289037252468419  1.0000
  O   O2        1.0  0.7289037780807816  0.7289036521210992  0.2710961974920003  1.0000
  O   O3        1.0  0.7289037992206908  0.27109623498990243  0.2710961410808236  1.0000
  O   O4        1.0  0.2710961843741777  0.7289038274152368  0.7289038236400014  1.0000
  O   O5        1.0  0.27109621056066713  0.7289037227165208  0.2710962780112483  1.0000
  O   O6        1.0  0.7289037255056224  0.2710962267710319  0.7289038167189502  1.0000
