data_image0
_chemical_formula_structural       Ca2InO6
_chemical_formula_sum              "Ca2 In1 O6"
_cell_length_a       5.4376027691167055
_cell_length_b       5.43760273281916
_cell_length_c       5.4376029727740915
_cell_angle_alpha    59.99999772281777
_cell_angle_beta     59.99999697730638
_cell_angle_gamma    60.0000005298293

_space_group_name_H-M_alt    "P 1"
_space_group_IT_number       1

loop_
  _space_group_symop_operation_xyz
  'x, y, z'

loop_
  _atom_site_type_symbol
  _atom_site_label
  _atom_site_symmetry_multiplicity
  _atom_site_fract_x
  _atom_site_fract_y
  _atom_site_fract_z
  _atom_site_occupancy
  Ca  Ca1       1.0  0.2500000035357854  0.24999990741564584  0.25000011015790324  1.0000
  Ca  Ca2       1.0  0.7500000420261361  0.7500000420823199  0.7499999580687435  1.0000
  In  In1       1.0  0.9999999377067601  1.4865587963259135e-07  0.9999999935995927  1.0000
  O   O1        1.0  0.27871406607257193  0.27871420485917314  0.7212858548668454  1.0000
  O   O2        1.0  0.7212858611263865  0.7212858640139672  0.2787140730862283  1.0000
  O   O3        1.0  0.7212859320294764  0.278714124523421  0.2787140997992743  1.0000
  O   O4        1.0  0.2787140070753631  0.7212858767788646  0.7212858467910583  1.0000
  O   O5        1.0  0.27871418971222184  0.7212857923070923  0.27871415317149634  1.0000
  O   O6        1.0  0.7212859412222289  0.27871406033931656  0.7212858693013858  1.0000
