data_image0
_chemical_formula_structural       Ca2MnTe6
_chemical_formula_sum              "Ca2 Mn1 Te6"
_cell_length_a       7.113707853173999
_cell_length_b       7.113708686221177
_cell_length_c       7.113706972484131
_cell_angle_alpha    60.000007816057305
_cell_angle_beta     60.000007066063795
_cell_angle_gamma    59.999996173235125

_space_group_name_H-M_alt    "P 1"
_space_group_IT_number       1

loop_
  _space_group_symop_operation_xyz
  'x, y, z'

loop_
  _atom_site_type_symbol
  _atom_site_label
  _atom_site_symmetry_multiplicity
  _atom_site_fract_x
  _atom_site_fract_y
  _atom_site_fract_z
  _atom_site_occupancy
  Ca  Ca1       1.0  0.24999989539846604  0.24999988315060634  0.2500000223930041  1.0000
  Ca  Ca2       1.0  0.7499997486171188  0.7499995254916808  0.7500000642105384  1.0000
  Mn  Mn1       1.0  5.750142083064185e-08  0.9999999638449542  3.009318233850319e-08  1.0000
  Te  Te1       1.0  0.2538157887982115  0.25381665167490264  0.7461837440527703  1.0000
  Te  Te2       1.0  0.7461839284439841  0.7461835988632568  0.25381651897684887  1.0000
  Te  Te3       1.0  0.7461836701758268  0.2538166494021945  0.25381584610325497  1.0000
  Te  Te4       1.0  0.2538166151880567  0.7461836011358977  0.7461839304394606  1.0000
  Te  Te5       1.0  0.2538166214743405  0.7461835283206099  0.25381582518659956  1.0000
  Te  Te6       1.0  0.7461836763519798  0.2538166361340566  0.7461839881666111  1.0000
