data_image0
_chemical_formula_structural       Ca2MgS6
_chemical_formula_sum              "Ca2 Mg1 S6"
_cell_length_a       6.319363398154339
_cell_length_b       6.319363122867552
_cell_length_c       6.319362778087863
_cell_angle_alpha    59.999997878964045
_cell_angle_beta     60.000002593110516
_cell_angle_gamma    59.999995446740215

_space_group_name_H-M_alt    "P 1"
_space_group_IT_number       1

loop_
  _space_group_symop_operation_xyz
  'x, y, z'

loop_
  _atom_site_type_symbol
  _atom_site_label
  _atom_site_symmetry_multiplicity
  _atom_site_fract_x
  _atom_site_fract_y
  _atom_site_fract_z
  _atom_site_occupancy
  Ca  Ca1       1.0  0.2500000368943239  0.24999996641242828  0.2500000025067893  1.0000
  Ca  Ca2       1.0  0.7499999521910591  0.7500000019556813  0.7500000385719997  1.0000
  Mg  Mg1       1.0  0.9999999970486025  0.9999998992196939  1.0722465988180669e-08  1.0000
  S   S1        1.0  0.26360228554402876  0.26360223980911945  0.7363977474939627  1.0000
  S   S2        1.0  0.7363977667379494  0.7363977363113211  0.26360221063722167  1.0000
  S   S3        1.0  0.7363977282022963  0.2636022442004974  0.2636023194539629  1.0000
  S   S4        1.0  0.26360226966775263  0.7363977745577649  0.7363977126091096  1.0000
  S   S5        1.0  0.2636022920472736  0.7363978099377129  0.26360218758220516  1.0000
  S   S6        1.0  0.736397660176492  0.26360233479593753  0.7363977695026747  1.0000
