data_image0
_chemical_formula_structural       Ca2MnO6
_chemical_formula_sum              "Ca2 Mn1 O6"
_cell_length_a       5.191693718715917
_cell_length_b       5.191693675137747
_cell_length_c       5.191694526198551
_cell_angle_alpha    60.00000754026788
_cell_angle_beta     60.00000006947327
_cell_angle_gamma    60.0000276194827

_space_group_name_H-M_alt    "P 1"
_space_group_IT_number       1

loop_
  _space_group_symop_operation_xyz
  'x, y, z'

loop_
  _atom_site_type_symbol
  _atom_site_label
  _atom_site_symmetry_multiplicity
  _atom_site_fract_x
  _atom_site_fract_y
  _atom_site_fract_z
  _atom_site_occupancy
  Ca  Ca1       1.0  0.24999996849123263  0.2500000515700021  0.249999967857935  1.0000
  Ca  Ca2       1.0  0.7499999998778502  0.7500000249624889  0.7500000175531478  1.0000
  Mn  Mn1       1.0  0.9999998761656327  1.1795229459441956e-07  4.5316417579807755e-08  1.0000
  O   O1        1.0  0.25005761733627  0.25005781512641617  0.7499423689327648  1.0000
  O   O2        1.0  0.749942345034992  0.749942226020384  0.25005769688082496  1.0000
  O   O3        1.0  0.7499424206686796  0.25005755825892706  0.25005766723552125  1.0000
  O   O4        1.0  0.2500573409488101  0.7499423578583352  0.7499423958205123  1.0000
  O   O5        1.0  0.25005767862122963  0.7499425938485706  0.2500574572818138  1.0000
  O   O6        1.0  0.7499424558830697  0.25005751806965726  0.7499423869195811  1.0000
