data_image0
_chemical_formula_structural       Ca2MgSe6
_chemical_formula_sum              "Ca2 Mg1 Se6"
_cell_length_a       6.761521818517276
_cell_length_b       6.761522055326421
_cell_length_c       6.761522003945055
_cell_angle_alpha    60.00000051932727
_cell_angle_beta     59.99999801120569
_cell_angle_gamma    59.99999967086272

_space_group_name_H-M_alt    "P 1"
_space_group_IT_number       1

loop_
  _space_group_symop_operation_xyz
  'x, y, z'

loop_
  _atom_site_type_symbol
  _atom_site_label
  _atom_site_symmetry_multiplicity
  _atom_site_fract_x
  _atom_site_fract_y
  _atom_site_fract_z
  _atom_site_occupancy
  Ca  Ca1       1.0  0.24999999514331583  0.2499999806738272  0.25000001322029575  1.0000
  Ca  Ca2       1.0  0.7499999897925106  0.7500000416454522  0.7500000128098888  1.0000
  Mg  Mg1       1.0  0.9999999179745614  9.237859131245564e-08  0.9999999726390701  1.0000
  Se  Se1       1.0  0.26832559424336117  0.2683254529515074  0.7316744978324127  1.0000
  Se  Se2       1.0  0.731674459659666  0.7316744751778357  0.26832552897748313  1.0000
  Se  Se3       1.0  0.7316744282901386  0.2683255990594457  0.26832553347312627  1.0000
  Se  Se4       1.0  0.26832559440565484  0.7316744431846269  0.7316743986405718  1.0000
  Se  Se5       1.0  0.268325566815467  0.7316744181472535  0.2683255238974509  1.0000
  Se  Se6       1.0  0.7316744588667349  0.26832549730267513  0.7316745085729952  1.0000
