data_image0
_chemical_formula_structural       Ca2MnSe6
_chemical_formula_sum              "Ca2 Mn1 Se6"
_cell_length_a       6.706439089662741
_cell_length_b       6.706439120198483
_cell_length_c       6.706439102083304
_cell_angle_alpha    60.000000440828096
_cell_angle_beta     59.99999998781361
_cell_angle_gamma    60.00000163544706

_space_group_name_H-M_alt    "P 1"
_space_group_IT_number       1

loop_
  _space_group_symop_operation_xyz
  'x, y, z'

loop_
  _atom_site_type_symbol
  _atom_site_label
  _atom_site_symmetry_multiplicity
  _atom_site_fract_x
  _atom_site_fract_y
  _atom_site_fract_z
  _atom_site_occupancy
  Ca  Ca1       1.0  0.2500000351678113  0.2500000207606612  0.24999994281515092  1.0000
  Ca  Ca2       1.0  0.7499999763193301  0.7499999746233124  0.7500000755395373  1.0000
  Mn  Mn1       1.0  0.9999999968876911  0.9999999525182207  6.85390678732484e-08  1.0000
  Se  Se1       1.0  0.24788548319599252  0.2478855055865918  0.7521145269239181  1.0000
  Se  Se2       1.0  0.7521144926022514  0.7521145555413835  0.24788546149217558  1.0000
  Se  Se3       1.0  0.7521145439099031  0.24788545933793246  0.24788548424124904  1.0000
  Se  Se4       1.0  0.24788547448227305  0.7521145050002621  0.7521144925040577  1.0000
  Se  Se5       1.0  0.24788552562063634  0.7521144903011678  0.24788547458329435  1.0000
  Se  Se6       1.0  0.7521144681264995  0.24788553247613948  0.7521144658806206  1.0000
