data_image0
_chemical_formula_structural       Ca2MgO6
_chemical_formula_sum              "Ca2 Mg1 O6"
_cell_length_a       5.219032090063193
_cell_length_b       5.219031748867764
_cell_length_c       5.219031920299274
_cell_angle_alpha    60.000003731148425
_cell_angle_beta     60.00000243401404
_cell_angle_gamma    60.00000239033242

_space_group_name_H-M_alt    "P 1"
_space_group_IT_number       1

loop_
  _space_group_symop_operation_xyz
  'x, y, z'

loop_
  _atom_site_type_symbol
  _atom_site_label
  _atom_site_symmetry_multiplicity
  _atom_site_fract_x
  _atom_site_fract_y
  _atom_site_fract_z
  _atom_site_occupancy
  Ca  Ca1       1.0  0.24999998251288402  0.25000003692105  0.2499999770137976  1.0000
  Ca  Ca2       1.0  0.7500000297148912  0.7500000168955667  0.7500000441866553  1.0000
  Mg  Mg1       1.0  9.907082403087974e-08  0.9999999483728266  0.9999999686139172  1.0000
  O   O1        1.0  0.2671919878566837  0.2671919884010134  0.7328079591382997  1.0000
  O   O2        1.0  0.7328079542888272  0.7328079504278013  0.26719207795461536  1.0000
  O   O3        1.0  0.7328079201832588  0.2671920817778946  0.2671919995993345  1.0000
  O   O4        1.0  0.26719209611290223  0.7328079133714747  0.7328079684258526  1.0000
  O   O5        1.0  0.2671919890980732  0.7328079630785753  0.26719197726800975  1.0000
  O   O6        1.0  0.7328079223832359  0.2671921142049325  0.7328079791047659  1.0000
