data_image0
_chemical_formula_structural       Ca2MnS6
_chemical_formula_sum              "Ca2 Mn1 S6"
_cell_length_a       6.301262467429323
_cell_length_b       6.3012624854563555
_cell_length_c       6.301262925061359
_cell_angle_alpha    59.9999993492124
_cell_angle_beta     59.99999705332495
_cell_angle_gamma    60.00000127577378

_space_group_name_H-M_alt    "P 1"
_space_group_IT_number       1

loop_
  _space_group_symop_operation_xyz
  'x, y, z'

loop_
  _atom_site_type_symbol
  _atom_site_label
  _atom_site_symmetry_multiplicity
  _atom_site_fract_x
  _atom_site_fract_y
  _atom_site_fract_z
  _atom_site_occupancy
  Ca  Ca1       1.0  0.25000001783286063  0.249999960936628  0.24999995518466092  1.0000
  Ca  Ca2       1.0  0.7499998384650757  0.75000004413283  0.7500000415857104  1.0000
  Mn  Mn1       1.0  1.039343234760725e-07  0.9999999630706528  0.9999999601495771  1.0000
  S   S1        1.0  0.24817321362357778  0.2481731852399444  0.7518268145479389  1.0000
  S   S2        1.0  0.7518268161131016  0.7518268217731701  0.24817321831594122  1.0000
  S   S3        1.0  0.7518267909280124  0.24817320527301592  0.2481732214849215  1.0000
  S   S4        1.0  0.248173200548678  0.7518267900781979  0.751826841100854  1.0000
  S   S5        1.0  0.24817320084846825  0.7518268359475039  0.24817316036971704  1.0000
  S   S6        1.0  0.7518268096931027  0.2481731846711583  0.7518267927658042  1.0000
