data_image0
_chemical_formula_structural       Ca2MgTe6
_chemical_formula_sum              "Ca2 Mg1 Te6"
_cell_length_a       7.394962019653856
_cell_length_b       7.3949744330545455
_cell_length_c       7.3949687985732275
_cell_angle_alpha    59.999938165822805
_cell_angle_beta     59.999964324576155
_cell_angle_gamma    60.000064984364556

_space_group_name_H-M_alt    "P 1"
_space_group_IT_number       1

loop_
  _space_group_symop_operation_xyz
  'x, y, z'

loop_
  _atom_site_type_symbol
  _atom_site_label
  _atom_site_symmetry_multiplicity
  _atom_site_fract_x
  _atom_site_fract_y
  _atom_site_fract_z
  _atom_site_occupancy
  Ca  Ca1       1.0  0.2500035083552792  0.24999737921594983  0.24999864882204345  1.0000
  Ca  Ca2       1.0  0.7500027717288686  0.7499978779809697  0.7499968812942425  1.0000
  Mg  Mg1       1.0  0.9999995224027399  5.895989768701501e-07  2.762131015095605e-06  1.0000
  Te  Te1       1.0  0.27161792093451403  0.2716242380031191  0.7283796046328997  1.0000
  Te  Te2       1.0  0.7283802610629552  0.7283776157695688  0.27162183785228067  1.0000
  Te  Te3       1.0  0.7283725185172353  0.2716269324199714  0.2716266053909793  1.0000
  Te  Te4       1.0  0.2716284017930741  0.728371807729511  0.7283713303476335  1.0000
  Te  Te5       1.0  0.2716238742201  0.7283741140188754  0.2716299459213609  1.0000
  Te  Te6       1.0  0.7283718034749255  0.2716300998162245  0.7283716484663585  1.0000
