data_image0
_chemical_formula_structural       Ca2NiTe6
_chemical_formula_sum              "Ca2 Ni1 Te6"
_cell_length_a       7.111620697905268
_cell_length_b       7.111620509563429
_cell_length_c       7.1116204973165
_cell_angle_alpha    60.00000067581054
_cell_angle_beta     59.99999949497277
_cell_angle_gamma    60.000000881324674

_space_group_name_H-M_alt    "P 1"
_space_group_IT_number       1

loop_
  _space_group_symop_operation_xyz
  'x, y, z'

loop_
  _atom_site_type_symbol
  _atom_site_label
  _atom_site_symmetry_multiplicity
  _atom_site_fract_x
  _atom_site_fract_y
  _atom_site_fract_z
  _atom_site_occupancy
  Ca  Ca1       1.0  0.24999995783255669  0.25000001943780226  0.25000003109791213  1.0000
  Ca  Ca2       1.0  0.750000013463537  0.7499999842599214  0.7499999731562886  1.0000
  Ni  Ni1       1.0  5.346609158746778e-08  3.4443482110856556e-08  0.9999999237037794  1.0000
  Te  Te1       1.0  0.25747072689977746  0.2574706826402835  0.7425292757332974  1.0000
  Te  Te2       1.0  0.7425292797571307  0.7425292831696102  0.25747069322452937  1.0000
  Te  Te3       1.0  0.7425292772027491  0.2574707285348896  0.2574707020437765  1.0000
  Te  Te4       1.0  0.25747067916783484  0.7425293199393613  0.7425293547800812  1.0000
  Te  Te5       1.0  0.2574707133528449  0.7425292725684667  0.2574707012122825  1.0000
  Te  Te6       1.0  0.7425293020950192  0.2574706863527316  0.7425293342895793  1.0000
