data_image0
_chemical_formula_structural       Ca2NiO6
_chemical_formula_sum              "Ca2 Ni1 O6"
_cell_length_a       5.173341221373134
_cell_length_b       5.173341379211053
_cell_length_c       5.1733419419585855
_cell_angle_alpha    59.999995051689446
_cell_angle_beta     59.99999727221222
_cell_angle_gamma    59.99999613925984

_space_group_name_H-M_alt    "P 1"
_space_group_IT_number       1

loop_
  _space_group_symop_operation_xyz
  'x, y, z'

loop_
  _atom_site_type_symbol
  _atom_site_label
  _atom_site_symmetry_multiplicity
  _atom_site_fract_x
  _atom_site_fract_y
  _atom_site_fract_z
  _atom_site_occupancy
  Ca  Ca1       1.0  0.2500000331493618  0.24999992324092002  0.2499999742920358  1.0000
  Ca  Ca2       1.0  0.7499999825241723  0.7499998928283721  0.7500000976200106  1.0000
  Ni  Ni1       1.0  4.8090992066569406e-08  0.9999999360797771  0.9999999789198196  1.0000
  O   O1        1.0  0.2541145803643581  0.2541147029189522  0.7458853048737408  1.0000
  O   O2        1.0  0.7458853551303015  0.7458854943042624  0.2541145991538983  1.0000
  O   O3        1.0  0.7458852783899649  0.2541146814804128  0.2541145992242407  1.0000
  O   O4        1.0  0.25411471960526855  0.745885281368651  0.7458853830082444  1.0000
  O   O5        1.0  0.2541146183263416  0.7458853965539408  0.2541145964423704  1.0000
  O   O6        1.0  0.7458853809299208  0.25411465625691565  0.7458854426269861  1.0000
