data_image0
_chemical_formula_structural       Ca2NiS6
_chemical_formula_sum              "Ca2 Ni1 S6"
_cell_length_a       6.170684583453082
_cell_length_b       6.1706841251709745
_cell_length_c       6.170684354798601
_cell_angle_alpha    59.99999846508769
_cell_angle_beta     59.999998816867155
_cell_angle_gamma    59.999996616012176

_space_group_name_H-M_alt    "P 1"
_space_group_IT_number       1

loop_
  _space_group_symop_operation_xyz
  'x, y, z'

loop_
  _atom_site_type_symbol
  _atom_site_label
  _atom_site_symmetry_multiplicity
  _atom_site_fract_x
  _atom_site_fract_y
  _atom_site_fract_z
  _atom_site_occupancy
  Ca  Ca1       1.0  0.25000001044589937  0.24999997858438083  0.25000001050416626  1.0000
  Ca  Ca2       1.0  0.7499999798664103  0.7500000508703705  0.7500000077923584  1.0000
  Ni  Ni1       1.0  0.99999997805391  7.145207231401435e-08  0.99999996714418  1.0000
  S   S1        1.0  0.25151311512310437  0.25151314574002087  0.7484868474285636  1.0000
  S   S2        1.0  0.7484868911809573  0.7484868301256757  0.25151312646454604  1.0000
  S   S3        1.0  0.748486871936519  0.2515131634267218  0.2515131331643969  1.0000
  S   S4        1.0  0.2515131053709482  0.7484868938149466  0.7484868761205247  1.0000
  S   S5        1.0  0.2515130823633585  0.7484869148208027  0.2515130710288438  1.0000
  S   S6        1.0  0.7484869467754101  0.25151297569936315  0.7484869341196777  1.0000
