data_image0
_chemical_formula_structural       Ca2NbO6
_chemical_formula_sum              "Ca2 Nb1 O6"
_cell_length_a       5.435272215867938
_cell_length_b       5.435272698517376
_cell_length_c       5.435272793900555
_cell_angle_alpha    59.99999538358879
_cell_angle_beta     59.999999376212884
_cell_angle_gamma    59.99999922912174

_space_group_name_H-M_alt    "P 1"
_space_group_IT_number       1

loop_
  _space_group_symop_operation_xyz
  'x, y, z'

loop_
  _atom_site_type_symbol
  _atom_site_label
  _atom_site_symmetry_multiplicity
  _atom_site_fract_x
  _atom_site_fract_y
  _atom_site_fract_z
  _atom_site_occupancy
  Ca  Ca1       1.0  0.2500000120503889  0.24999999703605993  0.24999999202092923  1.0000
  Ca  Ca2       1.0  0.7500000177379382  0.7500000654679853  0.749999959128501  1.0000
  Nb  Nb1       1.0  0.9999999506845326  1.3519965111024406e-07  0.9999998889840428  1.0000
  O   O1        1.0  0.2576246094605809  0.25762457760557667  0.7423754182450585  1.0000
  O   O2        1.0  0.7423752981180554  0.7423754691251738  0.2576246405323776  1.0000
  O   O3        1.0  0.7423754464130996  0.2576246170803021  0.25762461225802097  1.0000
  O   O4        1.0  0.25762463882843367  0.7423752854374951  0.7423753672400936  1.0000
  O   O5        1.0  0.2576246444380147  0.7423752453173855  0.2576247307734866  1.0000
  O   O6        1.0  0.7423753867053441  0.2576246346671313  0.7423753900710621  1.0000
