data_image0
_chemical_formula_structural       Ca2NbS6
_chemical_formula_sum              "Ca2 Nb1 S6"
_cell_length_a       6.46494380932005
_cell_length_b       6.464943660728958
_cell_length_c       6.464943259961232
_cell_angle_alpha    60.00000050518997
_cell_angle_beta     59.999999542588434
_cell_angle_gamma    59.99999998561671

_space_group_name_H-M_alt    "P 1"
_space_group_IT_number       1

loop_
  _space_group_symop_operation_xyz
  'x, y, z'

loop_
  _atom_site_type_symbol
  _atom_site_label
  _atom_site_symmetry_multiplicity
  _atom_site_fract_x
  _atom_site_fract_y
  _atom_site_fract_z
  _atom_site_occupancy
  Ca  Ca1       1.0  0.24999992970601448  0.2500000312583114  0.250000024346973  1.0000
  Ca  Ca2       1.0  0.7500000763389456  0.7499999554808059  0.7499999722818588  1.0000
  Nb  Nb1       1.0  3.541546104021816e-08  0.9999999848444794  0.9999999419191056  1.0000
  S   S1        1.0  0.2585247225363985  0.2585246890846079  0.7414753250071652  1.0000
  S   S2        1.0  0.7414752486720014  0.7414752199824638  0.25852482377781816  1.0000
  S   S3        1.0  0.7414752656463282  0.2585248523972751  0.25852470057578997  1.0000
  S   S4        1.0  0.25852465771192423  0.741475318102534  0.7414752779989334  1.0000
  S   S5        1.0  0.25852470941118105  0.7414752107215273  0.2585247408539177  1.0000
  S   S6        1.0  0.7414753498204366  0.2585247343399077  0.741475209803522  1.0000
