data_image0
_chemical_formula_structural       Ca2NiSe6
_chemical_formula_sum              "Ca2 Ni1 Se6"
_cell_length_a       6.57259278869901
_cell_length_b       6.572592753123547
_cell_length_c       6.572592842670519
_cell_angle_alpha    59.999999885593255
_cell_angle_beta     60.00000000444014
_cell_angle_gamma    60.00000119354736

_space_group_name_H-M_alt    "P 1"
_space_group_IT_number       1

loop_
  _space_group_symop_operation_xyz
  'x, y, z'

loop_
  _atom_site_type_symbol
  _atom_site_label
  _atom_site_symmetry_multiplicity
  _atom_site_fract_x
  _atom_site_fract_y
  _atom_site_fract_z
  _atom_site_occupancy
  Ca  Ca1       1.0  0.24999996831166313  0.2500000998747978  0.2499999927255731  1.0000
  Ca  Ca2       1.0  0.7499999622776142  0.7499999642102215  0.7500000639610571  1.0000
  Ni  Ni1       1.0  2.7080333686950826e-08  0.9999999925463522  2.6701926738236e-08  1.0000
  Se  Se1       1.0  0.25412364194221987  0.25412366639208417  0.745876338995249  1.0000
  Se  Se2       1.0  0.7458763371657711  0.7458763101125683  0.2541236489769728  1.0000
  Se  Se3       1.0  0.7458763916341404  0.2541237029932783  0.25412359203521534  1.0000
  Se  Se4       1.0  0.25412364935302395  0.7458763145064407  0.7458763734078083  1.0000
  Se  Se5       1.0  0.25412371470257805  0.745876277739979  0.25412362509375375  1.0000
  Se  Se6       1.0  0.7458763069958957  0.2541236764037294  0.7458763466778205  1.0000
