data_image0
_chemical_formula_structural       Ca2PdSe6
_chemical_formula_sum              "Ca2 Pd1 Se6"
_cell_length_a       6.768772883740579
_cell_length_b       6.768772925309906
_cell_length_c       6.768772999682189
_cell_angle_alpha    60.00000028270015
_cell_angle_beta     59.99999958433082
_cell_angle_gamma    60.000001651676605

_space_group_name_H-M_alt    "P 1"
_space_group_IT_number       1

loop_
  _space_group_symop_operation_xyz
  'x, y, z'

loop_
  _atom_site_type_symbol
  _atom_site_label
  _atom_site_symmetry_multiplicity
  _atom_site_fract_x
  _atom_site_fract_y
  _atom_site_fract_z
  _atom_site_occupancy
  Ca  Ca1       1.0  0.2500000545928926  0.24999998013981478  0.24999995904783623  1.0000
  Ca  Ca2       1.0  0.7500000015090296  0.7499999512758693  0.7500000016034173  1.0000
  Pd  Pd1       1.0  2.398640351006039e-08  0.9999999945717868  0.9999999951530227  1.0000
  Se  Se1       1.0  0.2605515673748308  0.260551629516302  0.7394484046483724  1.0000
  Se  Se2       1.0  0.7394483938487575  0.7394483869413953  0.26055162149331995  1.0000
  Se  Se3       1.0  0.739448323555559  0.26055167934866086  0.26055159697851077  1.0000
  Se  Se4       1.0  0.26055168283212526  0.7394483244432052  0.7394483966629499  1.0000
  Se  Se5       1.0  0.26055162356037403  0.7394483465400682  0.2605516550617752  1.0000
  Se  Se6       1.0  0.7394483356468468  0.26055168620227  0.7394483728100161  1.0000
