data_image0
_chemical_formula_structural       Ca2PbSe6
_chemical_formula_sum              "Ca2 Pb1 Se6"
_cell_length_a       7.035429759821519
_cell_length_b       7.0354297117858176
_cell_length_c       7.0354296984456886
_cell_angle_alpha    59.999999138538364
_cell_angle_beta     59.99999847349552
_cell_angle_gamma    60.00000108993088

_space_group_name_H-M_alt    "P 1"
_space_group_IT_number       1

loop_
  _space_group_symop_operation_xyz
  'x, y, z'

loop_
  _atom_site_type_symbol
  _atom_site_label
  _atom_site_symmetry_multiplicity
  _atom_site_fract_x
  _atom_site_fract_y
  _atom_site_fract_z
  _atom_site_occupancy
  Ca  Ca1       1.0  0.2500000146096209  0.24999994713651832  0.25000004675356086  1.0000
  Ca  Ca2       1.0  0.7500000100221231  0.7500000363819036  0.7499999488104487  1.0000
  Pb  Pb1       1.0  0.999999977221407  0.9999999895550522  1.3769016194328751e-08  1.0000
  Se  Se1       1.0  0.2744353605280524  0.2744353481595384  0.725564641617136  1.0000
  Se  Se2       1.0  0.7255646477564376  0.7255646893244442  0.2744353351377201  1.0000
  Se  Se3       1.0  0.7255646376250667  0.2744353603719507  0.2744353489511639  1.0000
  Se  Se4       1.0  0.2744353658522685  0.7255646422955409  0.7255646348231197  1.0000
  Se  Se5       1.0  0.2744353358273403  0.7255646143337269  0.2744353986486233  1.0000
  Se  Se6       1.0  0.7255646400471654  0.27443537266634305  0.725564633766955  1.0000
