data_image0
_chemical_formula_structural       Ca2PbS6
_chemical_formula_sum              "Ca2 Pb1 S6"
_cell_length_a       6.611525327054105
_cell_length_b       6.611525324904108
_cell_length_c       6.6115251590066295
_cell_angle_alpha    60.00000062342538
_cell_angle_beta     60.000000813437126
_cell_angle_gamma    59.999997655363835

_space_group_name_H-M_alt    "P 1"
_space_group_IT_number       1

loop_
  _space_group_symop_operation_xyz
  'x, y, z'

loop_
  _atom_site_type_symbol
  _atom_site_label
  _atom_site_symmetry_multiplicity
  _atom_site_fract_x
  _atom_site_fract_y
  _atom_site_fract_z
  _atom_site_occupancy
  Ca  Ca1       1.0  0.2500001032862252  0.25000000959756324  0.24999992655354253  1.0000
  Ca  Ca2       1.0  0.7500000135717616  0.7500000269402599  0.7499999559554855  1.0000
  Pb  Pb1       1.0  2.7925765000580654e-08  3.14914658567899e-08  0.9999999173535234  1.0000
  S   S1        1.0  0.26866365747593324  0.26866366269337805  0.7313363910158667  1.0000
  S   S2        1.0  0.7313362536678369  0.7313362626980986  0.2686637497491239  1.0000
  S   S3        1.0  0.7313363444697811  0.2686636282191389  0.26866361456514054  1.0000
  S   S4        1.0  0.26866356700687105  0.7313364324004005  0.7313363933814337  1.0000
  S   S5        1.0  0.2686636451000186  0.7313363871252783  0.26866361290785773  1.0000
  S   S6        1.0  0.7313363913677229  0.26866356049546497  0.7313364329053692  1.0000
