data_image0
_chemical_formula_structural       Ca2PtSe6
_chemical_formula_sum              "Ca2 Pt1 Se6"
_cell_length_a       6.71853156871376
_cell_length_b       6.718531289359754
_cell_length_c       6.718531522178307
_cell_angle_alpha    59.9999978842347
_cell_angle_beta     59.9999990402005
_cell_angle_gamma    60.00000350225909

_space_group_name_H-M_alt    "P 1"
_space_group_IT_number       1

loop_
  _space_group_symop_operation_xyz
  'x, y, z'

loop_
  _atom_site_type_symbol
  _atom_site_label
  _atom_site_symmetry_multiplicity
  _atom_site_fract_x
  _atom_site_fract_y
  _atom_site_fract_z
  _atom_site_occupancy
  Ca  Ca1       1.0  0.24999987624231731  0.2500000455618776  0.25000004229992306  1.0000
  Ca  Ca2       1.0  0.7500000598237921  0.7499999416315671  0.7500000148320614  1.0000
  Pt  Pt1       1.0  0.9999999499318859  4.192751201190421e-08  1.7466085646616918e-08  1.0000
  Se  Se1       1.0  0.25854335489684477  0.2585433920276728  0.7414565818088348  1.0000
  Se  Se2       1.0  0.7414566295365858  0.7414565222483577  0.258543399781387  1.0000
  Se  Se3       1.0  0.7414566161555092  0.2585434396076458  0.25854342550403747  1.0000
  Se  Se4       1.0  0.2585433249772092  0.7414567025353113  0.7414566096682844  1.0000
  Se  Se5       1.0  0.25854345941915197  0.7414565434316712  0.2585433634559823  1.0000
  Se  Se6       1.0  0.7414567388424882  0.25854336355263025  0.7414565416575664  1.0000
