data_image0
_chemical_formula_structural       Ca2PbO6
_chemical_formula_sum              "Ca2 Pb1 O6"
_cell_length_a       5.49577911057218
_cell_length_b       5.495779610218943
_cell_length_c       5.495778466363959
_cell_angle_alpha    60.0000016293875
_cell_angle_beta     60.000001368378065
_cell_angle_gamma    59.999996248254625

_space_group_name_H-M_alt    "P 1"
_space_group_IT_number       1

loop_
  _space_group_symop_operation_xyz
  'x, y, z'

loop_
  _atom_site_type_symbol
  _atom_site_label
  _atom_site_symmetry_multiplicity
  _atom_site_fract_x
  _atom_site_fract_y
  _atom_site_fract_z
  _atom_site_occupancy
  Ca  Ca1       1.0  0.2500001375171872  0.24999968073051537  0.2500000465133134  1.0000
  Ca  Ca2       1.0  0.750000055988462  0.7500001118806298  0.7499999340019228  1.0000
  Pb  Pb1       1.0  0.9999998294530082  0.9999999821718613  9.054841231159633e-08  1.0000
  O   O1        1.0  0.26968470110622117  0.2696848702758159  0.7303151827686255  1.0000
  O   O2        1.0  0.7303153924727829  0.7303154616369095  0.269684528930506  1.0000
  O   O3        1.0  0.7303152846808298  0.2696846283024452  0.269684760770645  1.0000
  O   O4        1.0  0.26968465348850856  0.7303153693324532  0.7303152940294847  1.0000
  O   O5        1.0  0.26968469017176444  0.7303152185843168  0.2696847624212505  1.0000
  O   O6        1.0  0.7303152576145128  0.26968460522610227  0.7303154872965193  1.0000
