data_image0
_chemical_formula_structural       Ca2PbTe6
_chemical_formula_sum              "Ca2 Pb1 Te6"
_cell_length_a       7.627425357400636
_cell_length_b       7.627425367124019
_cell_length_c       7.6274254004339035
_cell_angle_alpha    59.99999989843169
_cell_angle_beta     60.00000132748987
_cell_angle_gamma    60.000000688004036

_space_group_name_H-M_alt    "P 1"
_space_group_IT_number       1

loop_
  _space_group_symop_operation_xyz
  'x, y, z'

loop_
  _atom_site_type_symbol
  _atom_site_label
  _atom_site_symmetry_multiplicity
  _atom_site_fract_x
  _atom_site_fract_y
  _atom_site_fract_z
  _atom_site_occupancy
  Ca  Ca1       1.0  0.24999995255770852  0.250000059460008  0.2500000309920047  1.0000
  Ca  Ca2       1.0  0.7500000984299825  0.7499999375232206  0.7499999278326336  1.0000
  Pb  Pb1       1.0  5.504525850100612e-09  2.8902816738771597e-08  0.9999999749299785  1.0000
  Te  Te1       1.0  0.2792676259482594  0.2792676786028405  0.7207323522648071  1.0000
  Te  Te2       1.0  0.7207323504919936  0.7207323376489316  0.2792677049964302  1.0000
  Te  Te3       1.0  0.7207323377091489  0.27926766297441397  0.2792676504776226  1.0000
  Te  Te4       1.0  0.27926763348631783  0.7207323372202381  0.7207323663032912  1.0000
  Te  Te5       1.0  0.2792676206752602  0.7207322736972114  0.2792676882361437  1.0000
  Te  Te6       1.0  0.7207323638093072  0.279267691171776  0.7207323067865925  1.0000
