data_image0
_chemical_formula_structural       Ca2PtO6
_chemical_formula_sum              "Ca2 Pt1 O6"
_cell_length_a       5.530482901130247
_cell_length_b       5.530482876232941
_cell_length_c       5.5304827768305715
_cell_angle_alpha    59.999999690366295
_cell_angle_beta     60.00000044120391
_cell_angle_gamma    60.00000024899996

_space_group_name_H-M_alt    "P 1"
_space_group_IT_number       1

loop_
  _space_group_symop_operation_xyz
  'x, y, z'

loop_
  _atom_site_type_symbol
  _atom_site_label
  _atom_site_symmetry_multiplicity
  _atom_site_fract_x
  _atom_site_fract_y
  _atom_site_fract_z
  _atom_site_occupancy
  Ca  Ca1       1.0  0.24999993367026757  0.24999999519079177  0.2500000715479094  1.0000
  Ca  Ca2       1.0  0.7500000404841758  0.7500000187904049  0.7499999499186372  1.0000
  Pt  Pt1       1.0  5.846074467467001e-08  0.9999999999999997  3.767156283453122e-08  1.0000
  O   O1        1.0  0.24583785817453127  0.24583778286714628  0.7541621597291197  1.0000
  O   O2        1.0  0.7541621111708877  0.7541622643320783  0.24583778424731056  1.0000
  O   O3        1.0  0.7541621296889378  0.24583780080157558  0.24583784993820776  1.0000
  O   O4        1.0  0.2458378749623915  0.7541621467435669  0.7541621786489607  1.0000
  O   O5        1.0  0.2458378383552929  0.7541621735187064  0.24583781778306224  1.0000
  O   O6        1.0  0.7541621791598332  0.24583782938981516  0.7541621332946682  1.0000
