data_image0
_chemical_formula_structural       Ca2PtS6
_chemical_formula_sum              "Ca2 Pt1 S6"
_cell_length_a       6.359404642829215
_cell_length_b       6.3594053184401504
_cell_length_c       6.359404340056859
_cell_angle_alpha    60.000001250520945
_cell_angle_beta     60.00000184615919
_cell_angle_gamma    60.000002051597725

_space_group_name_H-M_alt    "P 1"
_space_group_IT_number       1

loop_
  _space_group_symop_operation_xyz
  'x, y, z'

loop_
  _atom_site_type_symbol
  _atom_site_label
  _atom_site_symmetry_multiplicity
  _atom_site_fract_x
  _atom_site_fract_y
  _atom_site_fract_z
  _atom_site_occupancy
  Ca  Ca1       1.0  0.25000000816958257  0.2499999500549242  0.2500000251502356  1.0000
  Ca  Ca2       1.0  0.7499999962970703  0.7500000600856409  0.7499999641539389  1.0000
  Pt  Pt1       1.0  0.9999999879318019  0.9999999980741211  0.9999999959897183  1.0000
  S   S1        1.0  0.2569501569574786  0.25695013609857453  0.7430498528251822  1.0000
  S   S2        1.0  0.7430498487930939  0.7430498701902312  0.25695014562528395  1.0000
  S   S3        1.0  0.7430498661182925  0.25695012222118263  0.2569501295956544  1.0000
  S   S4        1.0  0.2569501106906336  0.7430498782899849  0.7430498814970313  1.0000
  S   S5        1.0  0.2569501508771017  0.7430498517947405  0.2569501450700861  1.0000
  S   S6        1.0  0.7430498819081346  0.2569501333093902  0.743049853600335  1.0000
