data_image0
_chemical_formula_structural       Ca2ScS6
_chemical_formula_sum              "Ca2 Sc1 S6"
_cell_length_a       6.469291520755255
_cell_length_b       6.469290477268736
_cell_length_c       6.469291231122733
_cell_angle_alpha    59.9999964376669
_cell_angle_beta     59.99999887067187
_cell_angle_gamma    59.99999784511454

_space_group_name_H-M_alt    "P 1"
_space_group_IT_number       1

loop_
  _space_group_symop_operation_xyz
  'x, y, z'

loop_
  _atom_site_type_symbol
  _atom_site_label
  _atom_site_symmetry_multiplicity
  _atom_site_fract_x
  _atom_site_fract_y
  _atom_site_fract_z
  _atom_site_occupancy
  Ca  Ca1       1.0  0.25000002674308397  0.25000011902792846  0.24999991105504085  1.0000
  Ca  Ca2       1.0  0.7499999912445984  0.7499999065099601  0.749999967391782  1.0000
  Sc  Sc1       1.0  0.9999999457324066  0.9999999753888218  0.9999999250528221  1.0000
  S   S1        1.0  0.264400931868259  0.2644013608560935  0.7355988070969203  1.0000
  S   S2        1.0  0.7355985050817012  0.7355992137003025  0.2644011445528047  1.0000
  S   S3        1.0  0.7355990259481322  0.2644011419378664  0.2644012180280999  1.0000
  S   S4        1.0  0.2644012221705175  0.7355985466162515  0.7355991713913781  1.0000
  S   S5        1.0  0.2644013006030051  0.7355984930774863  0.26440108312826044  1.0000
  S   S6        1.0  0.7355990441876445  0.264401242805811  0.7355987628324877  1.0000
