data_image0
_chemical_formula_structural       Ca2SrSe6
_chemical_formula_sum              "Ca2 Sr1 Se6"
_cell_length_a       7.262325988313849
_cell_length_b       7.2623259612565665
_cell_length_c       7.262325998602596
_cell_angle_alpha    59.99999865246883
_cell_angle_beta     60.000001051137566
_cell_angle_gamma    59.99999846861185

_space_group_name_H-M_alt    "P 1"
_space_group_IT_number       1

loop_
  _space_group_symop_operation_xyz
  'x, y, z'

loop_
  _atom_site_type_symbol
  _atom_site_label
  _atom_site_symmetry_multiplicity
  _atom_site_fract_x
  _atom_site_fract_y
  _atom_site_fract_z
  _atom_site_occupancy
  Ca  Ca1       1.0  0.24999999968608602  0.2499999938118174  0.24999999906629863  1.0000
  Ca  Ca2       1.0  0.7499999907059786  0.7500000303420995  0.7500000347544223  1.0000
  Sr  Sr1       1.0  0.9999999781259753  0.9999999797627666  1.8301690440645195e-08  1.0000
  Se  Se1       1.0  0.28316129500778  0.2831612369324286  0.7168387285444828  1.0000
  Se  Se2       1.0  0.7168387950244279  0.7168387315690959  0.283161193779359  1.0000
  Se  Se3       1.0  0.7168387533376079  0.28316126968045957  0.2831612340747116  1.0000
  Se  Se4       1.0  0.28316121328454863  0.7168387780835639  0.7168387764174313  1.0000
  Se  Se5       1.0  0.2831612295505156  0.7168387435105458  0.28316122681002837  1.0000
  Se  Se6       1.0  0.7168387427261916  0.28316123005028787  0.7168387904170488  1.0000
