data_image0
_chemical_formula_structural       Ca2SrO6
_chemical_formula_sum              "Ca2 Sr1 O6"
_cell_length_a       5.6145062112271535
_cell_length_b       5.614506415637396
_cell_length_c       5.614506400985143
_cell_angle_alpha    59.99999941615939
_cell_angle_beta     59.99999928125348
_cell_angle_gamma    59.9999990970187

_space_group_name_H-M_alt    "P 1"
_space_group_IT_number       1

loop_
  _space_group_symop_operation_xyz
  'x, y, z'

loop_
  _atom_site_type_symbol
  _atom_site_label
  _atom_site_symmetry_multiplicity
  _atom_site_fract_x
  _atom_site_fract_y
  _atom_site_fract_z
  _atom_site_occupancy
  Ca  Ca1       1.0  0.2499999550656629  0.2499999755680227  0.25000004120800784  1.0000
  Ca  Ca2       1.0  0.7500000135030154  0.7499999506993964  0.7500000748764561  1.0000
  Sr  Sr1       1.0  2.7463422369160286e-08  0.9999999978186058  8.732191676158696e-09  1.0000
  O   O1        1.0  0.28817177752476764  0.2881717639816854  0.7118282284813421  1.0000
  O   O2        1.0  0.7118282105908353  0.7118282517228747  0.28817176899147157  1.0000
  O   O3        1.0  0.7118282214199907  0.2881717650219131  0.28817175827775765  1.0000
  O   O4        1.0  0.28817175082348045  0.7118282921291271  0.7118282068157764  1.0000
  O   O5        1.0  0.28817181815437654  0.7118282392706923  0.28817169442663776  1.0000
  O   O6        1.0  0.7118282313074954  0.2881717589827183  0.7118282098545976  1.0000
