data_image0
_chemical_formula_structural       Ca2SeS6
_chemical_formula_sum              "Ca2 Se1 S6"
_cell_length_a       6.495559887221734
_cell_length_b       6.495559804051092
_cell_length_c       6.4955597336833355
_cell_angle_alpha    59.99999999102712
_cell_angle_beta     60.00000170674272
_cell_angle_gamma    60.00000261472684

_space_group_name_H-M_alt    "P 1"
_space_group_IT_number       1

loop_
  _space_group_symop_operation_xyz
  'x, y, z'

loop_
  _atom_site_type_symbol
  _atom_site_label
  _atom_site_symmetry_multiplicity
  _atom_site_fract_x
  _atom_site_fract_y
  _atom_site_fract_z
  _atom_site_occupancy
  Ca  Ca1       1.0  0.24999997167352608  0.250000082493061  0.24999994366597822  1.0000
  Ca  Ca2       1.0  0.7499999908908456  0.7499999665380638  0.7500000890241958  1.0000
  Se  Se1       1.0  0.9999999725245089  1.3575678244121922e-07  0.9999999058320104  1.0000
  S   S1        1.0  0.24617528628901397  0.24617528392061577  0.7538247246024026  1.0000
  S   S2        1.0  0.753824650383547  0.7538246934610955  0.24617530297542153  1.0000
  S   S3        1.0  0.7538247065557196  0.24617530240503802  0.2461752642421302  1.0000
  S   S4        1.0  0.2461753467441627  0.753824618411351  0.7538246671056276  1.0000
  S   S5        1.0  0.24617533096625607  0.7538246675516189  0.24617535071888322  1.0000
  S   S6        1.0  0.753824726301817  0.2461752626923232  0.7538247494355081  1.0000
