data_image0
_chemical_formula_structural       Ca2ScTe6
_chemical_formula_sum              "Ca2 Sc1 Te6"
_cell_length_a       7.431206148060105
_cell_length_b       7.43120630753822
_cell_length_c       7.431206411839589
_cell_angle_alpha    59.99999786483703
_cell_angle_beta     59.99999888575531
_cell_angle_gamma    60.0000004543978

_space_group_name_H-M_alt    "P 1"
_space_group_IT_number       1

loop_
  _space_group_symop_operation_xyz
  'x, y, z'

loop_
  _atom_site_type_symbol
  _atom_site_label
  _atom_site_symmetry_multiplicity
  _atom_site_fract_x
  _atom_site_fract_y
  _atom_site_fract_z
  _atom_site_occupancy
  Ca  Ca1       1.0  0.25000001092875274  0.25000001521299076  0.2500000073110806  1.0000
  Ca  Ca2       1.0  0.7500000079731165  0.7499999615853397  0.7499999929346854  1.0000
  Sc  Sc1       1.0  0.999999913455489  0.9999999752783454  0.9999998618556639  1.0000
  Te  Te1       1.0  0.2681587228898135  0.2681587073885772  0.7318412961510129  1.0000
  Te  Te2       1.0  0.7318413435836291  0.7318413551114977  0.26815866571730007  1.0000
  Te  Te3       1.0  0.7318412167075693  0.2681587568495641  0.2681588169126043  1.0000
  Te  Te4       1.0  0.2681587152404204  0.7318412710401879  0.7318412914247171  1.0000
  Te  Te5       1.0  0.2681587782639783  0.7318412815761467  0.2681587313725341  1.0000
  Te  Te6       1.0  0.7318412943953072  0.26815867379674685  0.7318413374848634  1.0000
