data_image0
_chemical_formula_structural       Ca2ScSe6
_chemical_formula_sum              "Ca2 Sc1 Se6"
_cell_length_a       6.853353615854581
_cell_length_b       6.8533543583073095
_cell_length_c       6.85335398515156
_cell_angle_alpha    59.99999872677345
_cell_angle_beta     60.00000053594584
_cell_angle_gamma    60.00000005487842

_space_group_name_H-M_alt    "P 1"
_space_group_IT_number       1

loop_
  _space_group_symop_operation_xyz
  'x, y, z'

loop_
  _atom_site_type_symbol
  _atom_site_label
  _atom_site_symmetry_multiplicity
  _atom_site_fract_x
  _atom_site_fract_y
  _atom_site_fract_z
  _atom_site_occupancy
  Ca  Ca1       1.0  0.24999996080785045  0.24999997269896362  0.25000006208449355  1.0000
  Ca  Ca2       1.0  0.7500000084119954  0.7500000557015621  0.7499999581537102  1.0000
  Sc  Sc1       1.0  4.5766021985077835e-08  0.9999998677565497  8.409462606678748e-08  1.0000
  Se  Se1       1.0  0.2666230551975109  0.266623000325944  0.7333770166559046  1.0000
  Se  Se2       1.0  0.7333769867432606  0.7333770727514203  0.2666229653113715  1.0000
  Se  Se3       1.0  0.7333770543193155  0.2666229702549563  0.26662295903373323  1.0000
  Se  Se4       1.0  0.2666229290773799  0.7333770509972757  0.7333770372622391  1.0000
  Se  Se5       1.0  0.2666229028608528  0.733377076714927  0.2666229231130072  1.0000
  Se  Se6       1.0  0.7333770611175069  0.2666229320277941  0.7333769943028162  1.0000
