data_image0
_chemical_formula_structural       Ca2SnTe6
_chemical_formula_sum              "Ca2 Sn1 Te6"
_cell_length_a       7.51696494440138
_cell_length_b       7.5169650091273885
_cell_length_c       7.516965065980831
_cell_angle_alpha    59.99999891448111
_cell_angle_beta     59.99999954792781
_cell_angle_gamma    59.999999240537086

_space_group_name_H-M_alt    "P 1"
_space_group_IT_number       1

loop_
  _space_group_symop_operation_xyz
  'x, y, z'

loop_
  _atom_site_type_symbol
  _atom_site_label
  _atom_site_symmetry_multiplicity
  _atom_site_fract_x
  _atom_site_fract_y
  _atom_site_fract_z
  _atom_site_occupancy
  Ca  Ca1       1.0  0.24999999150271188  0.2500000074651003  0.25000000534839184  1.0000
  Ca  Ca2       1.0  0.7500000263344618  0.7499999360419938  0.7500000106931565  1.0000
  Sn  Sn1       1.0  0.9999999988206131  8.146538650278933e-09  0.9999999739009139  1.0000
  Te  Te1       1.0  0.269337710020711  0.2693377275295658  0.7306622735764658  1.0000
  Te  Te2       1.0  0.7306622652068927  0.7306623023308354  0.26933773389645443  1.0000
  Te  Te3       1.0  0.7306622824888104  0.26933772504343895  0.2693377236146385  1.0000
  Te  Te4       1.0  0.26933768751011844  0.7306622836359626  0.7306622797689057  1.0000
  Te  Te5       1.0  0.26933771752200864  0.7306622800025325  0.26933772408660517  1.0000
  Te  Te6       1.0  0.7306623241317406  0.2693377303061763  0.7306622759129782  1.0000
