data_image0
_chemical_formula_structural       Ca2SrTe6
_chemical_formula_sum              "Ca2 Sr1 Te6"
_cell_length_a       7.751955089541504
_cell_length_b       7.751955041857888
_cell_length_c       7.751955230317802
_cell_angle_alpha    59.999999928782984
_cell_angle_beta     60.00000066183405
_cell_angle_gamma    60.000000663538266

_space_group_name_H-M_alt    "P 1"
_space_group_IT_number       1

loop_
  _space_group_symop_operation_xyz
  'x, y, z'

loop_
  _atom_site_type_symbol
  _atom_site_label
  _atom_site_symmetry_multiplicity
  _atom_site_fract_x
  _atom_site_fract_y
  _atom_site_fract_z
  _atom_site_occupancy
  Ca  Ca1       1.0  0.24999998870660017  0.2500000073425713  0.2500000025002822  1.0000
  Ca  Ca2       1.0  0.7500000136205216  0.7500000046486228  0.7499999692200835  1.0000
  Sr  Sr1       1.0  1.91087173729501e-08  0.999999987360661  3.5465224815769655e-08  1.0000
  Te  Te1       1.0  0.282319019190322  0.2823190226175175  0.7176809626729059  1.0000
  Te  Te2       1.0  0.717680973252019  0.7176809609351631  0.28231903594908925  1.0000
  Te  Te3       1.0  0.7176809564164206  0.2823190852923898  0.2823190218937658  1.0000
  Te  Te4       1.0  0.28231903075952924  0.7176809140594649  0.7176809895217978  1.0000
  Te  Te5       1.0  0.282319038146285  0.7176809646562217  0.282319040894492  1.0000
  Te  Te6       1.0  0.7176809670696006  0.2823190520747245  0.7176809334616014  1.0000
