data_image0
_chemical_formula_structural       Ca2SrS6
_chemical_formula_sum              "Ca2 Sr1 S6"
_cell_length_a       7.019582175835541
_cell_length_b       7.019582040626537
_cell_length_c       7.019581935603843
_cell_angle_alpha    60.00000072361538
_cell_angle_beta     59.99999947958958
_cell_angle_gamma    59.9999981352405

_space_group_name_H-M_alt    "P 1"
_space_group_IT_number       1

loop_
  _space_group_symop_operation_xyz
  'x, y, z'

loop_
  _atom_site_type_symbol
  _atom_site_label
  _atom_site_symmetry_multiplicity
  _atom_site_fract_x
  _atom_site_fract_y
  _atom_site_fract_z
  _atom_site_occupancy
  Ca  Ca1       1.0  0.250000015773813  0.2500000231059119  0.24999999670279485  1.0000
  Ca  Ca2       1.0  0.7500000032750747  0.7499999349716242  0.749999972460653  1.0000
  Sr  Sr1       1.0  0.9999999317065756  1.3085660215458884e-07  0.999999816287682  1.0000
  S   S1        1.0  0.28395506093312856  0.283955032926981  0.7160449136015037  1.0000
  S   S2        1.0  0.7160449596951866  0.7160448710631597  0.2839550974863768  1.0000
  S   S3        1.0  0.7160449066481445  0.2839551110793231  0.2839550273700493  1.0000
  S   S4        1.0  0.28395505040496355  0.7160449638967796  0.7160450140630444  1.0000
  S   S5        1.0  0.28395507100339723  0.7160448990120087  0.28395513857057997  1.0000
  S   S6        1.0  0.716045010089685  0.28395502591518873  0.7160450255601198  1.0000
