data_image0
_chemical_formula_structural       Ca2SO6
_chemical_formula_sum              "Ca2 S1 O6"
_cell_length_a       5.246285558292972
_cell_length_b       5.246285273701393
_cell_length_c       5.246287956053946
_cell_angle_alpha    59.99999545071689
_cell_angle_beta     59.99999371325345
_cell_angle_gamma    59.999997390709424

_space_group_name_H-M_alt    "P 1"
_space_group_IT_number       1

loop_
  _space_group_symop_operation_xyz
  'x, y, z'

loop_
  _atom_site_type_symbol
  _atom_site_label
  _atom_site_symmetry_multiplicity
  _atom_site_fract_x
  _atom_site_fract_y
  _atom_site_fract_z
  _atom_site_occupancy
  Ca  Ca1       1.0  0.25000001651862336  0.24999998800520798  0.2500000476917549  1.0000
  Ca  Ca2       1.0  0.7499998490219336  0.7499999383361146  0.750000130378736  1.0000
  S   S1        1.0  0.9999996221586556  3.0815387460974666e-07  0.9999998003922539  1.0000
  O   O1        1.0  0.2279503776714248  0.22795035668061236  0.7720493117424869  1.0000
  O   O2        1.0  0.772049683188866  0.7720489837013321  0.22795050696988176  1.0000
  O   O3        1.0  0.7720497109600901  0.2279506013606388  0.2279502068563974  1.0000
  O   O4        1.0  0.22794996745799964  0.7720502891289822  0.7720504671361242  1.0000
  O   O5        1.0  0.2279507585390946  0.7720494279586197  0.227950091774156  1.0000
  O   O6        1.0  0.7720499158625309  0.22794994043737754  0.7720498750635315  1.0000
