data_image0
_chemical_formula_structural       Ca2ScO6
_chemical_formula_sum              "Ca2 Sc1 O6"
_cell_length_a       5.336150474772653
_cell_length_b       5.3361511469077305
_cell_length_c       5.336150723521484
_cell_angle_alpha    60.00000139388144
_cell_angle_beta     60.0000026073237
_cell_angle_gamma    60.00000277138639

_space_group_name_H-M_alt    "P 1"
_space_group_IT_number       1

loop_
  _space_group_symop_operation_xyz
  'x, y, z'

loop_
  _atom_site_type_symbol
  _atom_site_label
  _atom_site_symmetry_multiplicity
  _atom_site_fract_x
  _atom_site_fract_y
  _atom_site_fract_z
  _atom_site_occupancy
  Ca  Ca1       1.0  0.2500000891662435  0.25000010542301887  0.24999991725977913  1.0000
  Ca  Ca2       1.0  0.7500000889061114  0.7499998847744787  0.7500000212167437  1.0000
  Sc  Sc1       1.0  0.9999999646347334  0.9999999632770561  7.35243051842975e-08  1.0000
  O   O1        1.0  0.2702730273352073  0.2702732872470494  0.7297268779945918  1.0000
  O   O2        1.0  0.7297267574248275  0.7297269026314515  0.2702731910297558  1.0000
  O   O3        1.0  0.7297266625375001  0.2702734065037235  0.2702732151790645  1.0000
  O   O4        1.0  0.27027333028897604  0.7297266525492964  0.729726665304008  1.0000
  O   O5        1.0  0.270273267109739  0.7297266156696036  0.2702732708884004  1.0000
  O   O6        1.0  0.7297268094571722  0.27027325058796536  0.7297266603741643  1.0000
