data_image0
_chemical_formula_structural       Ca2SnS6
_chemical_formula_sum              "Ca2 Sn1 S6"
_cell_length_a       6.5917620274817725
_cell_length_b       6.591762118971408
_cell_length_c       6.591762789772694
_cell_angle_alpha    59.99999948634138
_cell_angle_beta     59.99999825907309
_cell_angle_gamma    60.000001585543856

_space_group_name_H-M_alt    "P 1"
_space_group_IT_number       1

loop_
  _space_group_symop_operation_xyz
  'x, y, z'

loop_
  _atom_site_type_symbol
  _atom_site_label
  _atom_site_symmetry_multiplicity
  _atom_site_fract_x
  _atom_site_fract_y
  _atom_site_fract_z
  _atom_site_occupancy
  Ca  Ca1       1.0  0.25000000458853194  0.25000000736168093  0.24999997682200306  1.0000
  Ca  Ca2       1.0  0.7500001053505393  0.750000057386913  0.7499998321305723  1.0000
  Sn  Sn1       1.0  0.9999998696279545  3.901785365640313e-08  8.663730651500124e-08  1.0000
  S   S1        1.0  0.26293610189853095  0.2629359123473338  0.7370640543019058  1.0000
  S   S2        1.0  0.7370639935349632  0.7370639331580778  0.2629361097010907  1.0000
  S   S3        1.0  0.7370639490869246  0.26293603754604405  0.2629359897120718  1.0000
  S   S4        1.0  0.26293599797746037  0.7370639640307804  0.7370639292296376  1.0000
  S   S5        1.0  0.2629359722601043  0.7370640323265892  0.2629360805785036  1.0000
  S   S6        1.0  0.7370639880743229  0.26293600826809416  0.7370639411680713  1.0000
