data_image0
_chemical_formula_structural       Ca2TiTe6
_chemical_formula_sum              "Ca2 Ti1 Te6"
_cell_length_a       7.325038908570496
_cell_length_b       7.325038893641482
_cell_length_c       7.325038980900337
_cell_angle_alpha    59.9999994978378
_cell_angle_beta     59.999999495877674
_cell_angle_gamma    59.999998501766456

_space_group_name_H-M_alt    "P 1"
_space_group_IT_number       1

loop_
  _space_group_symop_operation_xyz
  'x, y, z'

loop_
  _atom_site_type_symbol
  _atom_site_label
  _atom_site_symmetry_multiplicity
  _atom_site_fract_x
  _atom_site_fract_y
  _atom_site_fract_z
  _atom_site_occupancy
  Ca  Ca1       1.0  0.24999998409803792  0.2500000402226239  0.2500000063511618  1.0000
  Ca  Ca2       1.0  0.7500000104479528  0.7499999367481142  0.7500000341551294  1.0000
  Ti  Ti1       1.0  3.710081934648097e-09  0.9999999983280022  0.9999999621210859  1.0000
  Te  Te1       1.0  0.26203718684395294  0.26203730363017647  0.7379627554396461  1.0000
  Te  Te2       1.0  0.7379627989595559  0.7379627184845021  0.26203719451135205  1.0000
  Te  Te3       1.0  0.7379627326020937  0.2620372358048128  0.2620372698966068  1.0000
  Te  Te4       1.0  0.26203724503267195  0.7379628013578459  0.7379627653515021  1.0000
  Te  Te5       1.0  0.26203724396538286  0.7379627598219531  0.26203724972557385  1.0000
  Te  Te6       1.0  0.737962795929386  0.26203720878879544  0.7379627572693382  1.0000
