data_image0
_chemical_formula_structural       Ca2TiSe6
_chemical_formula_sum              "Ca2 Ti1 Se6"
_cell_length_a       6.786778287195468
_cell_length_b       6.786778693614476
_cell_length_c       6.786778322367131
_cell_angle_alpha    60.00000011118547
_cell_angle_beta     60.00000148093148
_cell_angle_gamma    60.00000354363128

_space_group_name_H-M_alt    "P 1"
_space_group_IT_number       1

loop_
  _space_group_symop_operation_xyz
  'x, y, z'

loop_
  _atom_site_type_symbol
  _atom_site_label
  _atom_site_symmetry_multiplicity
  _atom_site_fract_x
  _atom_site_fract_y
  _atom_site_fract_z
  _atom_site_occupancy
  Ca  Ca1       1.0  0.25000009394448247  0.24999997720378372  0.24999994206283468  1.0000
  Ca  Ca2       1.0  0.7499999003577529  0.7500000398875842  0.7500000438281529  1.0000
  Ti  Ti1       1.0  3.541414951966611e-09  0.9999999332296476  8.907914304541168e-08  1.0000
  Se  Se1       1.0  0.25729968255796654  0.2572996874015339  0.7427003101617257  1.0000
  Se  Se2       1.0  0.7427002715977725  0.7427003531496866  0.2572996619707853  1.0000
  Se  Se3       1.0  0.7427002812487253  0.25729969695151705  0.2572997496571018  1.0000
  Se  Se4       1.0  0.25729971578697525  0.7427002660017287  0.7427002560424022  1.0000
  Se  Se5       1.0  0.2572997497059971  0.7427002982283982  0.25729971723283823  1.0000
  Se  Se6       1.0  0.7427003026324485  0.25729973871361594  0.7427002356085343  1.0000
