data_image0
_chemical_formula_structural       Ca2TiO6
_chemical_formula_sum              "Ca2 Ti1 O6"
_cell_length_a       5.3954834794106
_cell_length_b       5.3954833515291964
_cell_length_c       5.395483777843554
_cell_angle_alpha    60.00000151885265
_cell_angle_beta     60.00000142924453
_cell_angle_gamma    60.000002680380085

_space_group_name_H-M_alt    "P 1"
_space_group_IT_number       1

loop_
  _space_group_symop_operation_xyz
  'x, y, z'

loop_
  _atom_site_type_symbol
  _atom_site_label
  _atom_site_symmetry_multiplicity
  _atom_site_fract_x
  _atom_site_fract_y
  _atom_site_fract_z
  _atom_site_occupancy
  Ca  Ca1       1.0  0.24999995325505092  0.2500000754470989  0.24999999981412288  1.0000
  Ca  Ca2       1.0  0.7500000784511056  0.7499999811872796  0.7499999533675371  1.0000
  Ti  Ti1       1.0  0.9999999708171791  0.9999999591409922  0.9999999238167971  1.0000
  O   O1        1.0  0.24958380259978782  0.2495838189078234  0.7504162758706554  1.0000
  O   O2        1.0  0.7504163581852026  0.7504161650883363  0.2495838325774878  1.0000
  O   O3        1.0  0.7504162138379002  0.24958371762227455  0.24958371727289644  1.0000
  O   O4        1.0  0.24958368360425362  0.7504162345946467  0.750416325595056  1.0000
  O   O5        1.0  0.24958371680421054  0.750416310366965  0.24958374130007088  1.0000
  O   O6        1.0  0.7504162110298725  0.24958376896685794  0.7504162691485189  1.0000
