data_image0
_chemical_formula_structural       Ca2TiS6
_chemical_formula_sum              "Ca2 Ti1 S6"
_cell_length_a       6.373408000063241
_cell_length_b       6.373408007326379
_cell_length_c       6.373408451559759
_cell_angle_alpha    59.99999984127155
_cell_angle_beta     59.99999998418307
_cell_angle_gamma    60.00000053998967

_space_group_name_H-M_alt    "P 1"
_space_group_IT_number       1

loop_
  _space_group_symop_operation_xyz
  'x, y, z'

loop_
  _atom_site_type_symbol
  _atom_site_label
  _atom_site_symmetry_multiplicity
  _atom_site_fract_x
  _atom_site_fract_y
  _atom_site_fract_z
  _atom_site_occupancy
  Ca  Ca1       1.0  0.2499999575557173  0.25000003012997213  0.25000000272122386  1.0000
  Ca  Ca2       1.0  0.7500000354512829  0.7500000096806889  0.7499999812473939  1.0000
  Ti  Ti1       1.0  1.5316618667855636e-08  5.188450431612568e-08  0.9999999616923821  1.0000
  S   S1        1.0  0.25614928861180725  0.256149201069893  0.743850794956826  1.0000
  S   S2        1.0  0.7438506894082775  0.7438507695614296  0.25614927188941555  1.0000
  S   S3        1.0  0.7438507459042052  0.2561492313606296  0.256149280084939  1.0000
  S   S4        1.0  0.25614922153738534  0.7438507873119002  0.7438507413566207  1.0000
  S   S5        1.0  0.2561492323538383  0.7438507585933241  0.25614922864554796  1.0000
  S   S6        1.0  0.7438507948220822  0.2561491678400866  0.7438507557017545  1.0000
