data_image0
_chemical_formula_structural       Ca2VS6
_chemical_formula_sum              "Ca2 V1 S6"
_cell_length_a       6.340638841383365
_cell_length_b       6.340638342452998
_cell_length_c       6.340638264896128
_cell_angle_alpha    59.999997612856255
_cell_angle_beta     60.000000510021685
_cell_angle_gamma    59.99999679281074

_space_group_name_H-M_alt    "P 1"
_space_group_IT_number       1

loop_
  _space_group_symop_operation_xyz
  'x, y, z'

loop_
  _atom_site_type_symbol
  _atom_site_label
  _atom_site_symmetry_multiplicity
  _atom_site_fract_x
  _atom_site_fract_y
  _atom_site_fract_z
  _atom_site_occupancy
  Ca  Ca1       1.0  0.24999989901528066  0.2500000022055723  0.2500000626668766  1.0000
  Ca  Ca2       1.0  0.7500000795359594  0.7499999081061427  0.749999987657106  1.0000
  V   V1        1.0  2.3545013399896535e-09  3.863159453458672e-09  6.353939232254163e-09  1.0000
  S   S1        1.0  0.25060245119992075  0.25060239676352386  0.7493975794226369  1.0000
  S   S2        1.0  0.7493976256880359  0.7493977047745938  0.25060236712511585  1.0000
  S   S3        1.0  0.7493975732305045  0.2506023939322192  0.25060236399841457  1.0000
  S   S4        1.0  0.2506024179011759  0.7493976206848068  0.7493976468082295  1.0000
  S   S5        1.0  0.2506023864036782  0.7493975834737842  0.2506023520692594  1.0000
  S   S6        1.0  0.7493976039011142  0.2506023789905866  0.7493976631473613  1.0000
