data_image0
_chemical_formula_structural       Ca2VO6
_chemical_formula_sum              "Ca2 V1 O6"
_cell_length_a       5.444389132721006
_cell_length_b       5.444389982813442
_cell_length_c       5.444388763100575
_cell_angle_alpha    60.00000089185303
_cell_angle_beta     60.000003666371185
_cell_angle_gamma    60.000003459523086

_space_group_name_H-M_alt    "P 1"
_space_group_IT_number       1

loop_
  _space_group_symop_operation_xyz
  'x, y, z'

loop_
  _atom_site_type_symbol
  _atom_site_label
  _atom_site_symmetry_multiplicity
  _atom_site_fract_x
  _atom_site_fract_y
  _atom_site_fract_z
  _atom_site_occupancy
  Ca  Ca1       1.0  0.24999998385911237  0.24999999616531626  0.25000008823431413  1.0000
  Ca  Ca2       1.0  0.7499999983878528  0.7499999435048914  0.7500000176682495  1.0000
  V   V1        1.0  1.0656339181071153e-07  0.9999997502995251  4.585400628969851e-08  1.0000
  O   O1        1.0  0.24283961147594935  0.24283963790644933  0.7571604149746571  1.0000
  O   O2        1.0  0.7571603680251349  0.7571605199704938  0.2428394252366692  1.0000
  O   O3        1.0  0.7571603412186338  0.24283961899941242  0.2428395901527423  1.0000
  O   O4        1.0  0.2428393293588369  0.7571605748703768  0.7571605904035992  1.0000
  O   O5        1.0  0.24283959359596033  0.7571604154300108  0.24283951468335585  1.0000
  O   O6        1.0  0.7571606144735626  0.24283950849332417  0.7571604292420108  1.0000
