data_image0
_chemical_formula_structural       Ca2YSe6
_chemical_formula_sum              "Ca2 Y1 Se6"
_cell_length_a       7.132879969891923
_cell_length_b       7.132880055852254
_cell_length_c       7.132880030469086
_cell_angle_alpha    60.000000050090435
_cell_angle_beta     60.00000139507278
_cell_angle_gamma    59.999999592056966

_space_group_name_H-M_alt    "P 1"
_space_group_IT_number       1

loop_
  _space_group_symop_operation_xyz
  'x, y, z'

loop_
  _atom_site_type_symbol
  _atom_site_label
  _atom_site_symmetry_multiplicity
  _atom_site_fract_x
  _atom_site_fract_y
  _atom_site_fract_z
  _atom_site_occupancy
  Ca  Ca1       1.0  0.24999999531435466  0.24999995791613353  0.2500000579347668  1.0000
  Ca  Ca2       1.0  0.7500000037642788  0.7500000145457776  0.7499999528972214  1.0000
  Y   Y1        1.0  0.999999973705733  2.060449389625296e-08  6.73349656549194e-08  1.0000
  Se  Se1       1.0  0.27285998027865954  0.2728599535255075  0.7271400083096906  1.0000
  Se  Se2       1.0  0.7271400276460804  0.7271400361068153  0.27285998110228926  1.0000
  Se  Se3       1.0  0.7271400972649764  0.27285994209925024  0.2728599206439057  1.0000
  Se  Se4       1.0  0.2728599345664439  0.7271400389478666  0.7271400456857966  1.0000
  Se  Se5       1.0  0.2728599667643947  0.7271400456072695  0.27285994497739846  1.0000
  Se  Se6       1.0  0.7271400262793212  0.27285998866812405  0.7271400155339754  1.0000
