data_image0
_chemical_formula_structural       Ca2YS6
_chemical_formula_sum              "Ca2 Y1 S6"
_cell_length_a       6.788566117216109
_cell_length_b       6.78856614714246
_cell_length_c       6.788566151018311
_cell_angle_alpha    60.00000032036516
_cell_angle_beta     59.99999994819246
_cell_angle_gamma    59.99999932297695

_space_group_name_H-M_alt    "P 1"
_space_group_IT_number       1

loop_
  _space_group_symop_operation_xyz
  'x, y, z'

loop_
  _atom_site_type_symbol
  _atom_site_label
  _atom_site_symmetry_multiplicity
  _atom_site_fract_x
  _atom_site_fract_y
  _atom_site_fract_z
  _atom_site_occupancy
  Ca  Ca1       1.0  0.24999998920902614  0.24999990654843027  0.25000007720613765  1.0000
  Ca  Ca2       1.0  0.7499999799934737  0.7499999632026987  0.7500000358955166  1.0000
  Y   Y1        1.0  0.9999999812571924  0.9999998827316179  0.9999998779801943  1.0000
  S   S1        1.0  0.2719303899881416  0.27193041602306783  0.7280695786237785  1.0000
  S   S2        1.0  0.7280696837238415  0.7280697117184992  0.27193030608983193  1.0000
  S   S3        1.0  0.7280695951901249  0.27193042501479137  0.2719304082472716  1.0000
  S   S4        1.0  0.27193034277317313  0.728069655819425  0.7280696812203706  1.0000
  S   S5        1.0  0.2719303755048442  0.7280696326102467  0.27193040181487416  1.0000
  S   S6        1.0  0.7280696665435916  0.2719304013166157  0.7280696325487039  1.0000
