data_image0
_chemical_formula_structural       Ca2YTe6
_chemical_formula_sum              "Ca2 Y1 Te6"
_cell_length_a       7.612191802067938
_cell_length_b       7.6121918008183
_cell_length_c       7.61219173970665
_cell_angle_alpha    60.00000042683473
_cell_angle_beta     59.99999955606555
_cell_angle_gamma    59.99999864717208

_space_group_name_H-M_alt    "P 1"
_space_group_IT_number       1

loop_
  _space_group_symop_operation_xyz
  'x, y, z'

loop_
  _atom_site_type_symbol
  _atom_site_label
  _atom_site_symmetry_multiplicity
  _atom_site_fract_x
  _atom_site_fract_y
  _atom_site_fract_z
  _atom_site_occupancy
  Ca  Ca1       1.0  0.2500000322991673  0.25000000700621816  0.24999997406576271  1.0000
  Ca  Ca2       1.0  0.7499999896254368  0.750000051588239  0.750000001272674  1.0000
  Y   Y1        1.0  2.4470370794356202e-08  0.9999999629947154  1.0127283281385807e-09  1.0000
  Te  Te1       1.0  0.2739590288385923  0.2739590398575497  0.7260409697988572  1.0000
  Te  Te2       1.0  0.7260409282427586  0.7260409720780717  0.2739590402717108  1.0000
  Te  Te3       1.0  0.7260409995910916  0.2739589877588969  0.2739590425837275  1.0000
  Te  Te4       1.0  0.2739590148883449  0.7260409839535888  0.7260409588993652  1.0000
  Te  Te5       1.0  0.27395901061493433  0.7260409883414911  0.27395905159727924  1.0000
  Te  Te6       1.0  0.7260409736945578  0.2739590010691746  0.7260409640037883  1.0000
