data_image0
_chemical_formula_structural       Ca2YO6
_chemical_formula_sum              "Ca2 Y1 O6"
_cell_length_a       5.515180101497967
_cell_length_b       5.515180120431532
_cell_length_c       5.515179721779691
_cell_angle_alpha    59.99999759568836
_cell_angle_beta     59.999998028348614
_cell_angle_gamma    59.99999779668273

_space_group_name_H-M_alt    "P 1"
_space_group_IT_number       1

loop_
  _space_group_symop_operation_xyz
  'x, y, z'

loop_
  _atom_site_type_symbol
  _atom_site_label
  _atom_site_symmetry_multiplicity
  _atom_site_fract_x
  _atom_site_fract_y
  _atom_site_fract_z
  _atom_site_occupancy
  Ca  Ca1       1.0  0.24999996169788022  0.24999999712866217  0.25000003416080185  1.0000
  Ca  Ca2       1.0  0.7500000010913151  0.7500000202548248  0.749999979280173  1.0000
  Y   Y1        1.0  4.08214346622088e-09  0.9999999689104851  0.9999999536688279  1.0000
  O   O1        1.0  0.2780765236734913  0.27807646761455934  0.7219235140363724  1.0000
  O   O2        1.0  0.72192350575415  0.7219235320034889  0.2780764677153873  1.0000
  O   O3        1.0  0.7219235387785969  0.2780764990938688  0.27807651220795804  1.0000
  O   O4        1.0  0.27807643435197893  0.7219235249516553  0.7219235471266339  1.0000
  O   O5        1.0  0.2780765307178379  0.7219235064224616  0.2780764926100307  1.0000
  O   O6        1.0  0.7219235106586414  0.2780764887542268  0.7219234926407001  1.0000
