data_image0
_chemical_formula_structural       Ca2ZnTe6
_chemical_formula_sum              "Ca2 Zn1 Te6"
_cell_length_a       7.258821792841616
_cell_length_b       7.258821684991235
_cell_length_c       7.2588219526556355
_cell_angle_alpha    60.00000077755955
_cell_angle_beta     60.00000026745443
_cell_angle_gamma    60.000000777463036

_space_group_name_H-M_alt    "P 1"
_space_group_IT_number       1

loop_
  _space_group_symop_operation_xyz
  'x, y, z'

loop_
  _atom_site_type_symbol
  _atom_site_label
  _atom_site_symmetry_multiplicity
  _atom_site_fract_x
  _atom_site_fract_y
  _atom_site_fract_z
  _atom_site_occupancy
  Ca  Ca1       1.0  0.25000003626493  0.25000001871229505  0.2499999965816255  1.0000
  Ca  Ca2       1.0  0.7499999438222159  0.7500000595113835  0.7500000195714548  1.0000
  Zn  Zn1       1.0  3.809817482291872e-08  0.9999999763784974  1.480380801161285e-08  1.0000
  Te  Te1       1.0  0.26470429314657  0.26470413229179973  0.7352957832592456  1.0000
  Te  Te2       1.0  0.7352957888950432  0.7352958548203646  0.26470411588400267  1.0000
  Te  Te3       1.0  0.7352957328128954  0.2647041613666924  0.2647042976725903  1.0000
  Te  Te4       1.0  0.2647042195422355  0.7352958139347212  0.7352957672760201  1.0000
  Te  Te5       1.0  0.2647042055052524  0.7352958371078117  0.2647041939548192  1.0000
  Te  Te6       1.0  0.7352957409527804  0.2647041415681017  0.7352958295484362  1.0000
