data_image0
_chemical_formula_structural       Ca2ZnS6
_chemical_formula_sum              "Ca2 Zn1 S6"
_cell_length_a       6.282128054019809
_cell_length_b       6.282127762897176
_cell_length_c       6.282127894970837
_cell_angle_alpha    59.99999452846889
_cell_angle_beta     59.99999815795965
_cell_angle_gamma    59.99999724018954

_space_group_name_H-M_alt    "P 1"
_space_group_IT_number       1

loop_
  _space_group_symop_operation_xyz
  'x, y, z'

loop_
  _atom_site_type_symbol
  _atom_site_label
  _atom_site_symmetry_multiplicity
  _atom_site_fract_x
  _atom_site_fract_y
  _atom_site_fract_z
  _atom_site_occupancy
  Ca  Ca1       1.0  0.25000004588600333  0.24999980337276279  0.2500000139299309  1.0000
  Ca  Ca2       1.0  0.7499999038210834  0.7500001061148639  0.749999930096247  1.0000
  Zn  Zn1       1.0  1.7249900783411184e-08  0.9999998986223518  0.9999999226775779  1.0000
  S   S1        1.0  0.25916647111645774  0.25916662770152304  0.740833455890423  1.0000
  S   S2        1.0  0.740833517148599  0.7408335410789444  0.2591664410866479  1.0000
  S   S3        1.0  0.7408334659976139  0.2591664705209015  0.25916660980486533  1.0000
  S   S4        1.0  0.2591664945116223  0.7408336436715938  0.74083343181223  1.0000
  S   S5        1.0  0.2591665125582324  0.7408334796641505  0.2591665695456981  1.0000
  S   S6        1.0  0.740833559111479  0.25916642787389405  0.7408336185110643  1.0000
