data_image0
_chemical_formula_structural       Ca2ZnO6
_chemical_formula_sum              "Ca2 Zn1 O6"
_cell_length_a       5.219382579916986
_cell_length_b       5.219381984838755
_cell_length_c       5.219382281470178
_cell_angle_alpha    59.999999256206074
_cell_angle_beta     60.00000069647889
_cell_angle_gamma    59.999999941085115

_space_group_name_H-M_alt    "P 1"
_space_group_IT_number       1

loop_
  _space_group_symop_operation_xyz
  'x, y, z'

loop_
  _atom_site_type_symbol
  _atom_site_label
  _atom_site_symmetry_multiplicity
  _atom_site_fract_x
  _atom_site_fract_y
  _atom_site_fract_z
  _atom_site_occupancy
  Ca  Ca1       1.0  0.2499999788946653  0.25000017426392585  0.24999990975718583  1.0000
  Ca  Ca2       1.0  0.750000045655987  0.7499999901289264  0.7499999315373044  1.0000
  Zn  Zn1       1.0  0.9999999846939283  0.9999999131783042  2.2732995271916527e-07  1.0000
  O   O1        1.0  0.26201337117730944  0.2620133966306305  0.7379865812110405  1.0000
  O   O2        1.0  0.7379867314108307  0.7379866199306832  0.2620133198876352  1.0000
  O   O3        1.0  0.7379865756487677  0.26201331925294635  0.26201342548702194  1.0000
  O   O4        1.0  0.26201345753281874  0.7379865471302917  0.7379865413374503  1.0000
  O   O5        1.0  0.26201331031004227  0.7379866608698663  0.262013353583246  1.0000
  O   O6        1.0  0.7379865693463789  0.2620133674241038  0.7379866339556079  1.0000
