data_image0
_chemical_formula_structural       Ca2ZnSe6
_chemical_formula_sum              "Ca2 Zn1 Se6"
_cell_length_a       6.66432719648776
_cell_length_b       6.664327223120477
_cell_length_c       6.664327186311256
_cell_angle_alpha    59.999999026028796
_cell_angle_beta     60.00000101346751
_cell_angle_gamma    60.00000108514724

_space_group_name_H-M_alt    "P 1"
_space_group_IT_number       1

loop_
  _space_group_symop_operation_xyz
  'x, y, z'

loop_
  _atom_site_type_symbol
  _atom_site_label
  _atom_site_symmetry_multiplicity
  _atom_site_fract_x
  _atom_site_fract_y
  _atom_site_fract_z
  _atom_site_occupancy
  Ca  Ca1       1.0  0.25000007301428623  0.2500000654763984  0.24999993291617972  1.0000
  Ca  Ca2       1.0  0.7500000079949184  0.7499999667089153  0.7499999666142201  1.0000
  Zn  Zn1       1.0  1.4473856868968028e-08  0.9999999981622391  0.9999999306598363  1.0000
  Se  Se1       1.0  0.26338615148283545  0.2633861537581674  0.7366138475473853  1.0000
  Se  Se2       1.0  0.736613883393235  0.7366138141054668  0.26338618073622333  1.0000
  Se  Se3       1.0  0.7366137451214876  0.26338616489489686  0.2633862080888652  1.0000
  Se  Se4       1.0  0.26338617098785444  0.7366138525883149  0.7366138847788488  1.0000
  Se  Se5       1.0  0.26338620435848487  0.7366137906804806  0.2633861609979313  1.0000
  Se  Se6       1.0  0.7366137395965335  0.2633861900474877  0.7366138988114028  1.0000
