data_image0
_chemical_formula_structural       Cd2AuSe6
_chemical_formula_sum              "Cd2 Au1 Se6"
_cell_length_a       6.670896165452408
_cell_length_b       6.6708961767683395
_cell_length_c       6.670895989146951
_cell_angle_alpha    60.000002406012946
_cell_angle_beta     60.00000139989164
_cell_angle_gamma    60.00000141804353

_space_group_name_H-M_alt    "P 1"
_space_group_IT_number       1

loop_
  _space_group_symop_operation_xyz
  'x, y, z'

loop_
  _atom_site_type_symbol
  _atom_site_label
  _atom_site_symmetry_multiplicity
  _atom_site_fract_x
  _atom_site_fract_y
  _atom_site_fract_z
  _atom_site_occupancy
  Cd  Cd1       1.0  0.2500000013848337  0.24999999534205364  0.2500000512026175  1.0000
  Cd  Cd2       1.0  0.7499999909188643  0.7499999841902067  0.7500000592083155  1.0000
  Au  Au1       1.0  4.24785908999942e-09  4.957071609432481e-08  0.9999999086316057  1.0000
  Se  Se1       1.0  0.29480552508667857  0.2948055069020589  0.7051944526151215  1.0000
  Se  Se2       1.0  0.7051944174213777  0.7051944818099616  0.2948054997169206  1.0000
  Se  Se3       1.0  0.7051944924425011  0.29480551100534474  0.2948055939929521  1.0000
  Se  Se4       1.0  0.29480558917176425  0.7051944446595334  0.7051944777001924  1.0000
  Se  Se5       1.0  0.2948055378721349  0.7051944881803244  0.29480550019131496  1.0000
  Se  Se6       1.0  0.7051944471747379  0.29480553908669904  0.7051944655595822  1.0000
