data_image0
_chemical_formula_structural       Cd2AuO6
_chemical_formula_sum              "Cd2 Au1 O6"
_cell_length_a       5.456541832100526
_cell_length_b       5.456541760461937
_cell_length_c       5.456541823276224
_cell_angle_alpha    60.000000838994275
_cell_angle_beta     60.00000037735982
_cell_angle_gamma    60.00000054028157

_space_group_name_H-M_alt    "P 1"
_space_group_IT_number       1

loop_
  _space_group_symop_operation_xyz
  'x, y, z'

loop_
  _atom_site_type_symbol
  _atom_site_label
  _atom_site_symmetry_multiplicity
  _atom_site_fract_x
  _atom_site_fract_y
  _atom_site_fract_z
  _atom_site_occupancy
  Cd  Cd1       1.0  0.250000002144019  0.2500000806643555  0.24999998320410952  1.0000
  Cd  Cd2       1.0  0.7500000320866886  0.750000006315935  0.7499999794844107  1.0000
  Au  Au1       1.0  1.881465625182542e-09  0.9999999753100146  0.9999999857469836  1.0000
  O   O1        1.0  0.2561587698808561  0.2561587680895764  0.7438412059128291  1.0000
  O   O2        1.0  0.7438412184798566  0.7438412089080532  0.25615884936331823  1.0000
  O   O3        1.0  0.743841244634623  0.25615874184674253  0.2561587637982608  1.0000
  O   O4        1.0  0.25615873684206564  0.7438413002426649  0.74384119090017  1.0000
  O   O5        1.0  0.25615873599755346  0.7438411773795438  0.25615876883191707  1.0000
  O   O6        1.0  0.7438412774162227  0.25615874350448276  0.7438412634885855  1.0000
