data_image0
_chemical_formula_structural       Cd2AgTe6
_chemical_formula_sum              "Cd2 Ag1 Te6"
_cell_length_a       7.290854914717358
_cell_length_b       7.29085478083572
_cell_length_c       7.290855039954553
_cell_angle_alpha    59.99999991115461
_cell_angle_beta     59.99999695869379
_cell_angle_gamma    60.00000053663303

_space_group_name_H-M_alt    "P 1"
_space_group_IT_number       1

loop_
  _space_group_symop_operation_xyz
  'x, y, z'

loop_
  _atom_site_type_symbol
  _atom_site_label
  _atom_site_symmetry_multiplicity
  _atom_site_fract_x
  _atom_site_fract_y
  _atom_site_fract_z
  _atom_site_occupancy
  Cd  Cd1       1.0  0.24999994669089928  0.2500001191349439  0.24999992058041653  1.0000
  Cd  Cd2       1.0  0.750000027780712  0.7499998988092976  0.7499999931956893  1.0000
  Ag  Ag1       1.0  3.034961804520962e-08  0.9999998756920543  1.4436143034946393e-07  1.0000
  Te  Te1       1.0  0.2767921675852858  0.2767923216105047  0.7232076386672217  1.0000
  Te  Te2       1.0  0.7232078766516069  0.7232077198514558  0.2767921269703711  1.0000
  Te  Te3       1.0  0.7232076942348702  0.27679218103116526  0.2767922955122934  1.0000
  Te  Te4       1.0  0.27679229068355926  0.7232078150751985  0.7232078488986653  1.0000
  Te  Te5       1.0  0.27679235192231266  0.723207755008224  0.2767921848324741  1.0000
  Te  Te6       1.0  0.7232076061187266  0.27679232173032003  0.7232078421767286  1.0000
