data_image0
_chemical_formula_structural       Cd2AgO6
_chemical_formula_sum              "Cd2 Ag1 O6"
_cell_length_a       5.411008912941094
_cell_length_b       5.4110087300380725
_cell_length_c       5.4110091621186385
_cell_angle_alpha    59.99999931327751
_cell_angle_beta     59.999999492724896
_cell_angle_gamma    59.99999779003137

_space_group_name_H-M_alt    "P 1"
_space_group_IT_number       1

loop_
  _space_group_symop_operation_xyz
  'x, y, z'

loop_
  _atom_site_type_symbol
  _atom_site_label
  _atom_site_symmetry_multiplicity
  _atom_site_fract_x
  _atom_site_fract_y
  _atom_site_fract_z
  _atom_site_occupancy
  Cd  Cd1       1.0  0.249999908077401  0.24999998210973992  0.2499999679194335  1.0000
  Cd  Cd2       1.0  0.7499999814270558  0.7500001862529811  0.749999671831756  1.0000
  Ag  Ag1       1.0  4.08045878750047e-08  0.9999999864194054  0.9999997886430048  1.0000
  O   O1        1.0  0.26871457777683794  0.2687143004118665  0.7312855258894108  1.0000
  O   O2        1.0  0.7312854266004304  0.7312856257636636  0.26871456007237454  1.0000
  O   O3        1.0  0.7312855331453482  0.2687144527286486  0.26871467326339704  1.0000
  O   O4        1.0  0.26871437537270204  0.7312856137796556  0.7312856510414696  1.0000
  O   O5        1.0  0.2687144502665529  0.7312854197038126  0.26871462915605016  1.0000
  O   O6        1.0  0.7312856939846969  0.26871444535906147  0.7312855689679688  1.0000
