data_image0
_chemical_formula_structural       Cd2BeSe6
_chemical_formula_sum              "Cd2 Be1 Se6"
_cell_length_a       5.460277070188405
_cell_length_b       5.472678644834605
_cell_length_c       5.460188841242746
_cell_angle_alpha    59.87892447903214
_cell_angle_beta     59.987279882248416
_cell_angle_gamma    59.76956211825489

_space_group_name_H-M_alt    "P 1"
_space_group_IT_number       1

loop_
  _space_group_symop_operation_xyz
  'x, y, z'

loop_
  _atom_site_type_symbol
  _atom_site_label
  _atom_site_symmetry_multiplicity
  _atom_site_fract_x
  _atom_site_fract_y
  _atom_site_fract_z
  _atom_site_occupancy
  Cd  Cd1       1.0  0.18878484136790905  0.19237869808836938  0.34163852520162935  1.0000
  Cd  Cd2       1.0  0.6934788598504376  0.6953722713372045  0.8389472916817611  1.0000
  Be  Be1       1.0  0.9395199609345215  0.9454903341406464  0.0864283415088818  1.0000
  Se  Se1       1.0  0.14368604390616885  0.14934353096014383  0.8822680902748602  1.0000
  Se  Se2       1.0  0.7353178167577251  0.7417536751735107  0.2911074288811674  1.0000
  Se  Se3       1.0  0.7344337616753864  0.1496023234669872  0.29120365065838555  1.0000
  Se  Se4       1.0  0.1446336581478984  0.7406895540342789  0.8826382464458341  1.0000
  Se  Se5       1.0  0.14479044525561002  0.7403605535895474  0.29075812217876795  1.0000
  Se  Se6       1.0  0.7348651913180504  0.15065227725178013  0.8820723248506931  1.0000
