data_image0
_chemical_formula_structural       Cd2BeTe6
_chemical_formula_sum              "Cd2 Be1 Te6"
_cell_length_a       7.280587107701663
_cell_length_b       7.280586725491242
_cell_length_c       7.280586763528079
_cell_angle_alpha    59.99999611535913
_cell_angle_beta     60.000000187693686
_cell_angle_gamma    59.9999911187117

_space_group_name_H-M_alt    "P 1"
_space_group_IT_number       1

loop_
  _space_group_symop_operation_xyz
  'x, y, z'

loop_
  _atom_site_type_symbol
  _atom_site_label
  _atom_site_symmetry_multiplicity
  _atom_site_fract_x
  _atom_site_fract_y
  _atom_site_fract_z
  _atom_site_occupancy
  Cd  Cd1       1.0  0.2500000644598664  0.2500000883620086  0.24999993983062363  1.0000
  Cd  Cd2       1.0  0.750000082667634  0.7500000548102383  0.7499998330195778  1.0000
  Be  Be1       1.0  0.9999998560588995  0.9999999798135429  0.999999815601741  1.0000
  Te  Te1       1.0  0.22480245838188478  0.22480215726151087  0.7751977970514742  1.0000
  Te  Te2       1.0  0.7751980718731684  0.7751977167576712  0.22480228691368614  1.0000
  Te  Te3       1.0  0.7751978450229894  0.22480210578680743  0.2248021026127041  1.0000
  Te  Te4       1.0  0.22480197534198826  0.7751979566395582  0.7751977847131866  1.0000
  Te  Te5       1.0  0.2248018649655075  0.7751978776870083  0.2248024139910441  1.0000
  Te  Te6       1.0  0.7751977994768464  0.22480207203152497  0.7751979798728256  1.0000
