data_image0
_chemical_formula_structural       Cd2CaO6
_chemical_formula_sum              "Cd2 Ca1 O6"
_cell_length_a       5.536094355226795
_cell_length_b       5.536094469969523
_cell_length_c       5.5360942883794095
_cell_angle_alpha    60.00000114356573
_cell_angle_beta     60.000001848673044
_cell_angle_gamma    60.00000069253392

_space_group_name_H-M_alt    "P 1"
_space_group_IT_number       1

loop_
  _space_group_symop_operation_xyz
  'x, y, z'

loop_
  _atom_site_type_symbol
  _atom_site_label
  _atom_site_symmetry_multiplicity
  _atom_site_fract_x
  _atom_site_fract_y
  _atom_site_fract_z
  _atom_site_occupancy
  Cd  Cd1       1.0  0.25000014095495904  0.25000000620381735  0.24999994115682178  1.0000
  Cd  Cd2       1.0  0.7499999570230212  0.749999983214809  0.7500000108682431  1.0000
  Ca  Ca1       1.0  4.6139927234305236e-08  0.9999999867262579  0.999999869768268  1.0000
  O   O1        1.0  0.2859190106419608  0.2859190179890646  0.7140809278200849  1.0000
  O   O2        1.0  0.7140809227303324  0.7140808895748186  0.2859191167276236  1.0000
  O   O3        1.0  0.7140808296501878  0.2859191359097996  0.2859191160205776  1.0000
  O   O4        1.0  0.28591903562548826  0.7140809884585413  0.7140809770034882  1.0000
  O   O5        1.0  0.2859191190282271  0.7140809197259921  0.2859190550537  1.0000
  O   O6        1.0  0.7140809416589866  0.2859190564188919  0.7140809800561027  1.0000
