data_image0
_chemical_formula_structural       Cd2CaS6
_chemical_formula_sum              "Cd2 Ca1 S6"
_cell_length_a       6.817090579054616
_cell_length_b       6.8170907650470225
_cell_length_c       6.8170904053211165
_cell_angle_alpha    60.000001297483145
_cell_angle_beta     60.0000020474459
_cell_angle_gamma    59.999999421645335

_space_group_name_H-M_alt    "P 1"
_space_group_IT_number       1

loop_
  _space_group_symop_operation_xyz
  'x, y, z'

loop_
  _atom_site_type_symbol
  _atom_site_label
  _atom_site_symmetry_multiplicity
  _atom_site_fract_x
  _atom_site_fract_y
  _atom_site_fract_z
  _atom_site_occupancy
  Cd  Cd1       1.0  0.24999978504225454  0.25000025600364373  0.24999994531013103  1.0000
  Cd  Cd2       1.0  0.749999822207847  0.7500001086660758  0.7500000655503202  1.0000
  Ca  Ca1       1.0  1.0532581905238661e-07  0.9999999838307787  0.9999998850104311  1.0000
  S   S1        1.0  0.27603748614759227  0.27603732931037767  0.7239625886675818  1.0000
  S   S2        1.0  0.7239626963803054  0.7239625646553811  0.27603733176651996  1.0000
  S   S3        1.0  0.723962520095245  0.2760374002617102  0.27603751681040634  1.0000
  S   S4        1.0  0.2760374173584049  0.7239624362134943  0.7239626781258189  1.0000
  S   S5        1.0  0.2760375391625888  0.7239625321528866  0.2760374152005458  1.0000
  S   S6        1.0  0.7239626297970259  0.2760373923547309  0.7239625627573346  1.0000
