data_image0
_chemical_formula_structural       Cd2CrO6
_chemical_formula_sum              "Cd2 Cr1 O6"
_cell_length_a       5.332756728650538
_cell_length_b       5.3327574672068625
_cell_length_c       5.332757402939818
_cell_angle_alpha    60.00000649999276
_cell_angle_beta     59.99999732136002
_cell_angle_gamma    60.00000042072981

_space_group_name_H-M_alt    "P 1"
_space_group_IT_number       1

loop_
  _space_group_symop_operation_xyz
  'x, y, z'

loop_
  _atom_site_type_symbol
  _atom_site_label
  _atom_site_symmetry_multiplicity
  _atom_site_fract_x
  _atom_site_fract_y
  _atom_site_fract_z
  _atom_site_occupancy
  Cd  Cd1       1.0  0.24999999517743737  0.25000006368828726  0.2499999940369526  1.0000
  Cd  Cd2       1.0  0.7499999958598056  0.7499999522138364  0.7500000457421455  1.0000
  Cr  Cr1       1.0  2.1559166504739183e-07  0.9999998599046797  0.9999999903798611  1.0000
  O   O1        1.0  0.24751156587014372  0.24751160093075095  0.7524882315032227  1.0000
  O   O2        1.0  0.7524883769188846  0.7524883713351137  0.24751158043854526  1.0000
  O   O3        1.0  0.752488179656354  0.24751192331491578  0.2475115912301321  1.0000
  O   O4        1.0  0.2475115993542711  0.7524882349791742  0.7524884814910937  1.0000
  O   O5        1.0  0.24751175894484465  0.7524881684721733  0.24751170780333373  1.0000
  O   O6        1.0  0.7524883791375511  0.24751174408094312  0.7524883120028912  1.0000
