data_image0
_chemical_formula_structural       Cd2CoO6
_chemical_formula_sum              "Cd2 Co1 O6"
_cell_length_a       5.258646567190019
_cell_length_b       5.258646977411377
_cell_length_c       5.2586463774631405
_cell_angle_alpha    60.00000023350384
_cell_angle_beta     60.000000418387714
_cell_angle_gamma    60.00000057582838

_space_group_name_H-M_alt    "P 1"
_space_group_IT_number       1

loop_
  _space_group_symop_operation_xyz
  'x, y, z'

loop_
  _atom_site_type_symbol
  _atom_site_label
  _atom_site_symmetry_multiplicity
  _atom_site_fract_x
  _atom_site_fract_y
  _atom_site_fract_z
  _atom_site_occupancy
  Cd  Cd1       1.0  0.24999999921557486  0.24999988371965787  0.25000008294753684  1.0000
  Cd  Cd2       1.0  0.7499999322972888  0.7500000843550924  0.7499999812475353  1.0000
  Co  Co1       1.0  1.5069692203921002e-09  7.452836437472274e-08  0.9999999486709208  1.0000
  O   O1        1.0  0.237501022806516  0.23750083677259828  0.7624990591434907  1.0000
  O   O2        1.0  0.762499013682932  0.7624991918564474  0.2375008956633186  1.0000
  O   O3        1.0  0.7624990606869576  0.23750094132511249  0.23750094214823653  1.0000
  O   O4        1.0  0.23750086467984932  0.7624991571742743  0.7624990675140625  1.0000
  O   O5        1.0  0.23750093768413263  0.762498983399948  0.23750098114819135  1.0000
  O   O6        1.0  0.7624991096093946  0.23750090083039285  0.7624990309477843  1.0000
