data_image0
_chemical_formula_structural       Cd2CS6
_chemical_formula_sum              "Cd2 C1 S6"
_cell_length_a       6.011389283733702
_cell_length_b       6.011389232369875
_cell_length_c       6.0113888121346415
_cell_angle_alpha    60.00000181666917
_cell_angle_beta     60.00000029276416
_cell_angle_gamma    59.99999750820789

_space_group_name_H-M_alt    "P 1"
_space_group_IT_number       1

loop_
  _space_group_symop_operation_xyz
  'x, y, z'

loop_
  _atom_site_type_symbol
  _atom_site_label
  _atom_site_symmetry_multiplicity
  _atom_site_fract_x
  _atom_site_fract_y
  _atom_site_fract_z
  _atom_site_occupancy
  Cd  Cd1       1.0  0.24999994398347838  0.24999997242669145  0.24999997561245463  1.0000
  Cd  Cd2       1.0  0.7499999769832393  0.750000000812407  0.7500000321379942  1.0000
  C   C1        1.0  0.9999999324805231  0.9999999144302886  0.9999992980223362  1.0000
  S   S1        1.0  0.22423051101762614  0.22423001656734418  0.7757698009779256  1.0000
  S   S2        1.0  0.7757699838620007  0.775769710149468  0.22422992663156568  1.0000
  S   S3        1.0  0.7757696673540596  0.22423062458637935  0.2242300776706036  1.0000
  S   S4        1.0  0.22422974524808278  0.7757703551155373  0.7757702299887319  1.0000
  S   S5        1.0  0.22423042141521551  0.7757695751402278  0.22423034102136752  1.0000
  S   S6        1.0  0.7757698367200668  0.22422980726037525  0.7757703658111738  1.0000
