data_image0
_chemical_formula_structural       Cd2CrTe6
_chemical_formula_sum              "Cd2 Cr1 Te6"
_cell_length_a       7.176963656761172
_cell_length_b       7.176963805130946
_cell_length_c       7.1769637652531175
_cell_angle_alpha    59.99999929907009
_cell_angle_beta     59.99999968629763
_cell_angle_gamma    60.00000017835139

_space_group_name_H-M_alt    "P 1"
_space_group_IT_number       1

loop_
  _space_group_symop_operation_xyz
  'x, y, z'

loop_
  _atom_site_type_symbol
  _atom_site_label
  _atom_site_symmetry_multiplicity
  _atom_site_fract_x
  _atom_site_fract_y
  _atom_site_fract_z
  _atom_site_occupancy
  Cd  Cd1       1.0  0.24999999613672852  0.2500000147426744  0.2499999956615231  1.0000
  Cd  Cd2       1.0  0.7500000058320243  0.7500000305760678  0.7499999781328933  1.0000
  Cr  Cr1       1.0  0.9999999935811507  0.9999999709895951  0.9999999759142212  1.0000
  Te  Te1       1.0  0.262333199931641  0.2623332183830827  0.7376668319198567  1.0000
  Te  Te2       1.0  0.737666856789892  0.7376667399044429  0.2623332262877753  1.0000
  Te  Te3       1.0  0.7376667112244599  0.262333264885268  0.2623332636965398  1.0000
  Te  Te4       1.0  0.26233325218096487  0.7376666934022581  0.7376667701084553  1.0000
  Te  Te5       1.0  0.2623332734757218  0.7376667957745465  0.2623332522922843  1.0000
  Te  Te6       1.0  0.7376667140937968  0.26233327343511786  0.7376666958560849  1.0000
