data_image0
_chemical_formula_structural       Cd2CaTe6
_chemical_formula_sum              "Cd2 Ca1 Te6"
_cell_length_a       7.798760678795228
_cell_length_b       7.798760820265479
_cell_length_c       7.798760792527697
_cell_angle_alpha    60.0000018223531
_cell_angle_beta     60.00000072813397
_cell_angle_gamma    60.00000038887592

_space_group_name_H-M_alt    "P 1"
_space_group_IT_number       1

loop_
  _space_group_symop_operation_xyz
  'x, y, z'

loop_
  _atom_site_type_symbol
  _atom_site_label
  _atom_site_symmetry_multiplicity
  _atom_site_fract_x
  _atom_site_fract_y
  _atom_site_fract_z
  _atom_site_occupancy
  Cd  Cd1       1.0  0.24999997949618702  0.24999997711377914  0.2500000238353134  1.0000
  Cd  Cd2       1.0  0.7500000038436707  0.7500000239970136  0.7500000232746691  1.0000
  Ca  Ca1       1.0  0.9999999910418716  0.999999978013907  0.9999999988027953  1.0000
  Te  Te1       1.0  0.2878390853200374  0.28783902339956174  0.712160952940001  1.0000
  Te  Te2       1.0  0.7121609021332426  0.7121609431616567  0.2878391004122722  1.0000
  Te  Te3       1.0  0.7121610511018939  0.28783901258984745  0.28783902017619734  1.0000
  Te  Te4       1.0  0.28783904819084927  0.7121609382670168  0.7121609107377324  1.0000
  Te  Te5       1.0  0.28783897746987047  0.7121610105298073  0.2878390788406995  1.0000
  Te  Te6       1.0  0.7121609574713479  0.2878390958001436  0.7121608885688246  1.0000
