data_image0
_chemical_formula_structural       Cd2CuSe6
_chemical_formula_sum              "Cd2 Cu1 Se6"
_cell_length_a       6.636737131406073
_cell_length_b       6.636736783287395
_cell_length_c       6.6367369218066194
_cell_angle_alpha    60.00000176161967
_cell_angle_beta     60.00000095452984
_cell_angle_gamma    60.000000497225805

_space_group_name_H-M_alt    "P 1"
_space_group_IT_number       1

loop_
  _space_group_symop_operation_xyz
  'x, y, z'

loop_
  _atom_site_type_symbol
  _atom_site_label
  _atom_site_symmetry_multiplicity
  _atom_site_fract_x
  _atom_site_fract_y
  _atom_site_fract_z
  _atom_site_occupancy
  Cd  Cd1       1.0  0.2499999452544092  0.2500000332178561  0.2500000105699079  1.0000
  Cd  Cd2       1.0  0.7500000495220377  0.749999990774841  0.7500000063914422  1.0000
  Cu  Cu1       1.0  0.9999999840427312  0.9999999852367824  1.2346713847332973e-08  1.0000
  Se  Se1       1.0  0.2621939413857744  0.26219391502851297  0.7378060626398599  1.0000
  Se  Se2       1.0  0.7378060603863367  0.7378060462205087  0.26219394151285147  1.0000
  Se  Se3       1.0  0.7378061071415665  0.2621939506877631  0.2621938697598983  1.0000
  Se  Se4       1.0  0.2621939231346825  0.7378060972951612  0.7378060722535006  1.0000
  Se  Se5       1.0  0.2621939197325318  0.7378060931395022  0.26219390288320193  1.0000
  Se  Se6       1.0  0.7378060741483768  0.2621938865635417  0.7378061110557455  1.0000
