data_image0
_chemical_formula_structural       Cd2CoS6
_chemical_formula_sum              "Cd2 Co1 S6"
_cell_length_a       6.256841096734355
_cell_length_b       6.2568409079490115
_cell_length_c       6.256840872018936
_cell_angle_alpha    60.00000107545395
_cell_angle_beta     60.00000190934169
_cell_angle_gamma    60.00000182706775

_space_group_name_H-M_alt    "P 1"
_space_group_IT_number       1

loop_
  _space_group_symop_operation_xyz
  'x, y, z'

loop_
  _atom_site_type_symbol
  _atom_site_label
  _atom_site_symmetry_multiplicity
  _atom_site_fract_x
  _atom_site_fract_y
  _atom_site_fract_z
  _atom_site_occupancy
  Cd  Cd1       1.0  0.24999996026166021  0.2500000025446543  0.24999993916138674  1.0000
  Cd  Cd2       1.0  0.7499999738211571  0.7500001935916458  0.7499999608775976  1.0000
  Co  Co1       1.0  4.7237796116192714e-08  0.9999999745531607  1.9471284058551914e-08  1.0000
  S   S1        1.0  0.24558087967565742  0.24558075320034792  0.7544191734354436  1.0000
  S   S2        1.0  0.754419116786517  0.754419139531319  0.24558087748293955  1.0000
  S   S3        1.0  0.7544191875682859  0.2455808420331375  0.24558085283418274  1.0000
  S   S4        1.0  0.24558084339866157  0.7544190800602688  0.7544191757404487  1.0000
  S   S5        1.0  0.24558083122699254  0.7544191663819843  0.24558086147064614  1.0000
  S   S6        1.0  0.7544191412979986  0.24558082030724648  0.7544191576340487  1.0000
