data_image0
_chemical_formula_structural       Cd2CuS6
_chemical_formula_sum              "Cd2 Cu1 S6"
_cell_length_a       6.320617715071705
_cell_length_b       6.320617391374732
_cell_length_c       6.320617480879748
_cell_angle_alpha    59.99999755914332
_cell_angle_beta     59.999997864384916
_cell_angle_gamma    59.999999169996926

_space_group_name_H-M_alt    "P 1"
_space_group_IT_number       1

loop_
  _space_group_symop_operation_xyz
  'x, y, z'

loop_
  _atom_site_type_symbol
  _atom_site_label
  _atom_site_symmetry_multiplicity
  _atom_site_fract_x
  _atom_site_fract_y
  _atom_site_fract_z
  _atom_site_occupancy
  Cd  Cd1       1.0  0.2500000386714567  0.25000000944636663  0.24999998477960947  1.0000
  Cd  Cd2       1.0  0.7500001075448862  0.7499999934605317  0.7499999886698464  1.0000
  Cu  Cu1       1.0  3.637298982137649e-08  0.9999999128035814  0.9999999906049889  1.0000
  S   S1        1.0  0.2588205725029093  0.2588205174910123  0.7411794333560621  1.0000
  S   S2        1.0  0.7411795077431571  0.741179464101205  0.2588205251972901  1.0000
  S   S3        1.0  0.7411793822264456  0.25882060410366187  0.258820549466698  1.0000
  S   S4        1.0  0.25882048000985  0.7411795053766332  0.7411794873721063  1.0000
  S   S5        1.0  0.2588205087828308  0.7411794790322763  0.25882051581623694  1.0000
  S   S6        1.0  0.7411793723143802  0.258820535500807  0.7411795258411146  1.0000
