data_image0
_chemical_formula_structural       Cd2CrSe6
_chemical_formula_sum              "Cd2 Cr1 Se6"
_cell_length_a       6.7035173240395185
_cell_length_b       6.703517330161297
_cell_length_c       6.703517394171046
_cell_angle_alpha    59.999999737024304
_cell_angle_beta     59.9999989489196
_cell_angle_gamma    59.999999343155174

_space_group_name_H-M_alt    "P 1"
_space_group_IT_number       1

loop_
  _space_group_symop_operation_xyz
  'x, y, z'

loop_
  _atom_site_type_symbol
  _atom_site_label
  _atom_site_symmetry_multiplicity
  _atom_site_fract_x
  _atom_site_fract_y
  _atom_site_fract_z
  _atom_site_occupancy
  Cd  Cd1       1.0  0.25000000595097316  0.24999997116945866  0.25000000020019103  1.0000
  Cd  Cd2       1.0  0.7500000074460329  0.7500000377456196  0.7500000108143323  1.0000
  Cr  Cr1       1.0  0.9999999798162372  3.4713347527675105e-08  0.9999999897516995  1.0000
  Se  Se1       1.0  0.25576392550442906  0.25576383545322345  0.744236093770401  1.0000
  Se  Se2       1.0  0.7442361267286242  0.7442361241323606  0.25576385685366215  1.0000
  Se  Se3       1.0  0.7442361418321206  0.2557638636927155  0.25576386510028926  1.0000
  Se  Se4       1.0  0.25576383551418524  0.7442361086819972  0.7442361478994214  1.0000
  Se  Se5       1.0  0.2557638600636654  0.7442361436281717  0.2557638688146588  1.0000
  Se  Se6       1.0  0.7442361164467286  0.2557638725949798  0.7442361748901841  1.0000
