data_image0
_chemical_formula_structural       Cd2CoTe6
_chemical_formula_sum              "Cd2 Co1 Te6"
_cell_length_a       7.0956467636418346
_cell_length_b       7.095646466493537
_cell_length_c       7.095645842700398
_cell_angle_alpha    60.00000478984271
_cell_angle_beta     60.00000113608244
_cell_angle_gamma    60.0000017851743

_space_group_name_H-M_alt    "P 1"
_space_group_IT_number       1

loop_
  _space_group_symop_operation_xyz
  'x, y, z'

loop_
  _atom_site_type_symbol
  _atom_site_label
  _atom_site_symmetry_multiplicity
  _atom_site_fract_x
  _atom_site_fract_y
  _atom_site_fract_z
  _atom_site_occupancy
  Cd  Cd1       1.0  0.2499999852648795  0.25000009430397013  0.24999996607111255  1.0000
  Cd  Cd2       1.0  0.7500000526199664  0.7499998703857012  0.749999912313642  1.0000
  Co  Co1       1.0  0.9999999984544409  2.4164715136589942e-08  0.9999999957369973  1.0000
  Te  Te1       1.0  0.2445770220054708  0.24457729864073896  0.7554228031149791  1.0000
  Te  Te2       1.0  0.7554230258746887  0.7554225970068964  0.24457730068791808  1.0000
  Te  Te3       1.0  0.7554230176288955  0.24457692360546432  0.24457695922105496  1.0000
  Te  Te4       1.0  0.24457701312334434  0.7554229599598112  0.755423091539863  1.0000
  Te  Te5       1.0  0.24457694270771513  0.7554230344484806  0.24457693675616818  1.0000
  Te  Te6       1.0  0.7554229188126459  0.2445771615320399  0.7554231058322494  1.0000
