data_image0
_chemical_formula_structural       Cd2CuTe6
_chemical_formula_sum              "Cd2 Cu1 Te6"
_cell_length_a       7.101598637720916
_cell_length_b       7.1015983549206165
_cell_length_c       7.101598917419496
_cell_angle_alpha    59.9999960607487
_cell_angle_beta     59.99999955766256
_cell_angle_gamma    59.99999484577198

_space_group_name_H-M_alt    "P 1"
_space_group_IT_number       1

loop_
  _space_group_symop_operation_xyz
  'x, y, z'

loop_
  _atom_site_type_symbol
  _atom_site_label
  _atom_site_symmetry_multiplicity
  _atom_site_fract_x
  _atom_site_fract_y
  _atom_site_fract_z
  _atom_site_occupancy
  Cd  Cd1       1.0  0.25000015892609456  0.2499999599059658  0.2499999905920446  1.0000
  Cd  Cd2       1.0  0.7499997865908072  0.750000062526013  0.7499999325740206  1.0000
  Cu  Cu1       1.0  8.264563947296921e-08  0.9999999862031562  2.091827144369032e-07  1.0000
  Te  Te1       1.0  0.2680441802861113  0.2680437539009504  0.7319559379959361  1.0000
  Te  Te2       1.0  0.7319557057911595  0.731956344413635  0.26804391499076213  1.0000
  Te  Te3       1.0  0.7319556547857523  0.2680440108165733  0.26804414972359014  1.0000
  Te  Te4       1.0  0.26804436050439906  0.731955763272334  0.7319559894594124  1.0000
  Te  Te5       1.0  0.2680442097749587  0.7319558424267593  0.2680438994974781  1.0000
  Te  Te6       1.0  0.7319558638471186  0.26804428348149306  0.7319559613869387  1.0000
