data_image0
_chemical_formula_structural       Cd2CO6
_chemical_formula_sum              "Cd2 C1 O6"
_cell_length_a       4.96427444339087
_cell_length_b       4.964274379657987
_cell_length_c       4.9642741479738675
_cell_angle_alpha    59.999996840051075
_cell_angle_beta     59.99999934411063
_cell_angle_gamma    59.99999678014904

_space_group_name_H-M_alt    "P 1"
_space_group_IT_number       1

loop_
  _space_group_symop_operation_xyz
  'x, y, z'

loop_
  _atom_site_type_symbol
  _atom_site_label
  _atom_site_symmetry_multiplicity
  _atom_site_fract_x
  _atom_site_fract_y
  _atom_site_fract_z
  _atom_site_occupancy
  Cd  Cd1       1.0  0.24999999261768063  0.25000002580089203  0.25000000635775765  1.0000
  Cd  Cd2       1.0  0.7500000058137108  0.7499999935206749  0.7500000148036505  1.0000
  C   C1        1.0  1.8514240372448055e-07  0.9999999679274717  0.999999816702221  1.0000
  O   O1        1.0  0.22019926434993572  0.22019933203125125  0.7798007262813484  1.0000
  O   O2        1.0  0.779800709740891  0.7798006626191402  0.2201992972276063  1.0000
  O   O3        1.0  0.7798006155716911  0.22019935801794013  0.22019937725909722  1.0000
  O   O4        1.0  0.2201993009087943  0.7798006489680394  0.7798006970887394  1.0000
  O   O5        1.0  0.22019932224831837  0.7798006781924955  0.22019939532731964  1.0000
  O   O6        1.0  0.7798006080471945  0.22019933619483606  0.7798006845274722  1.0000
