data_image0
_chemical_formula_structural       Cd2FeSe6
_chemical_formula_sum              "Cd2 Fe1 Se6"
_cell_length_a       6.700128723139868
_cell_length_b       6.700128860601557
_cell_length_c       6.700128804113198
_cell_angle_alpha    60.00000145330605
_cell_angle_beta     59.99999932973727
_cell_angle_gamma    59.99999982951979

_space_group_name_H-M_alt    "P 1"
_space_group_IT_number       1

loop_
  _space_group_symop_operation_xyz
  'x, y, z'

loop_
  _atom_site_type_symbol
  _atom_site_label
  _atom_site_symmetry_multiplicity
  _atom_site_fract_x
  _atom_site_fract_y
  _atom_site_fract_z
  _atom_site_occupancy
  Cd  Cd1       1.0  0.2500000415816526  0.2499999568200268  0.2500000066775986  1.0000
  Cd  Cd2       1.0  0.7499999683485343  0.7499999984160394  0.7500000641032019  1.0000
  Fe  Fe1       1.0  1.85571752911069e-08  0.9999999908602889  1.4693879870674598e-08  1.0000
  Se  Se1       1.0  0.24137017881542433  0.24137013181934916  0.7586298352700622  1.0000
  Se  Se2       1.0  0.7586297977429021  0.7586298563196768  0.24137018649240452  1.0000
  Se  Se3       1.0  0.7586298721394155  0.24137019828998404  0.24137010395545944  1.0000
  Se  Se4       1.0  0.24137014351647842  0.7586298483431926  0.7586298421459934  1.0000
  Se  Se5       1.0  0.24137015947977447  0.7586298098529857  0.2413701720922163  1.0000
  Se  Se6       1.0  0.7586298220217343  0.24137022032871033  0.7586297306567727  1.0000
