data_image0
_chemical_formula_structural       Cd2FeTe6
_chemical_formula_sum              "Cd2 Fe1 Te6"
_cell_length_a       7.365595784478533
_cell_length_b       7.365596101889068
_cell_length_c       7.3655944375214615
_cell_angle_alpha    59.99999704798915
_cell_angle_beta     60.00001124725686
_cell_angle_gamma    59.99999277538733

_space_group_name_H-M_alt    "P 1"
_space_group_IT_number       1

loop_
  _space_group_symop_operation_xyz
  'x, y, z'

loop_
  _atom_site_type_symbol
  _atom_site_label
  _atom_site_symmetry_multiplicity
  _atom_site_fract_x
  _atom_site_fract_y
  _atom_site_fract_z
  _atom_site_occupancy
  Cd  Cd1       1.0  0.2500000256573728  0.2500000442105133  0.24999994313588259  1.0000
  Cd  Cd2       1.0  0.7499999785905781  0.749999948061698  0.7500000401241971  1.0000
  Fe  Fe1       1.0  0.9999999790032432  0.999999950116269  0.9999999770607091  1.0000
  Te  Te1       1.0  0.22807869880298262  0.228078587316181  0.7719213170375003  1.0000
  Te  Te2       1.0  0.7719211553621294  0.7719211638513113  0.2280787518456137  1.0000
  Te  Te3       1.0  0.7719216030781203  0.22807862994157488  0.22807844204506364  1.0000
  Te  Te4       1.0  0.22807861755784245  0.771921442144567  0.7719216442818265  1.0000
  Te  Te5       1.0  0.22807827315303442  0.7719218114238505  0.22807819137567795  1.0000
  Te  Te6       1.0  0.7719216813360752  0.2280784335926557  0.7719216727420252  1.0000
