data_image0
_chemical_formula_structural       Cd2FeS6
_chemical_formula_sum              "Cd2 Fe1 S6"
_cell_length_a       6.35668858525448
_cell_length_b       6.356688902314281
_cell_length_c       6.356688174258363
_cell_angle_alpha    60.00000232104938
_cell_angle_beta     60.00000221520687
_cell_angle_gamma    60.00000142739707

_space_group_name_H-M_alt    "P 1"
_space_group_IT_number       1

loop_
  _space_group_symop_operation_xyz
  'x, y, z'

loop_
  _atom_site_type_symbol
  _atom_site_label
  _atom_site_symmetry_multiplicity
  _atom_site_fract_x
  _atom_site_fract_y
  _atom_site_fract_z
  _atom_site_occupancy
  Cd  Cd1       1.0  0.25000002393446896  0.2499998766290912  0.2500000695652298  1.0000
  Cd  Cd2       1.0  0.7500000881109683  0.7499998861387044  0.7500001620855253  1.0000
  Fe  Fe1       1.0  2.4990417178715387e-08  2.3120430016201596e-08  0.9999999586399677  1.0000
  S   S1        1.0  0.2425827519303469  0.24258290559207935  0.7574170814951694  1.0000
  S   S2        1.0  0.7574171850811566  0.757417240589521  0.24258270931235382  1.0000
  S   S3        1.0  0.7574171759935142  0.24258283132264352  0.24258271178663968  1.0000
  S   S4        1.0  0.24258273362554195  0.7574171954033997  0.757417298747486  1.0000
  S   S5        1.0  0.24258288289241753  0.7574172368719159  0.2425826605666492  1.0000
  S   S6        1.0  0.7574171631665614  0.24258281104785342  0.7574172617117745  1.0000
