data_image0
_chemical_formula_structural       Cd2GeS6
_chemical_formula_sum              "Cd2 Ge1 S6"
_cell_length_a       6.5031091384478
_cell_length_b       6.5031087072333245
_cell_length_c       6.503109216710218
_cell_angle_alpha    60.00000040957847
_cell_angle_beta     59.99999884820246
_cell_angle_gamma    59.999998365067334

_space_group_name_H-M_alt    "P 1"
_space_group_IT_number       1

loop_
  _space_group_symop_operation_xyz
  'x, y, z'

loop_
  _atom_site_type_symbol
  _atom_site_label
  _atom_site_symmetry_multiplicity
  _atom_site_fract_x
  _atom_site_fract_y
  _atom_site_fract_z
  _atom_site_occupancy
  Cd  Cd1       1.0  0.2500000711359184  0.24999999793901934  0.2499999884144892  1.0000
  Cd  Cd2       1.0  0.7499999873478718  0.7500000540833649  0.7499999466503438  1.0000
  Ge  Ge1       1.0  1.3559602421793237e-07  0.9999997796513037  0.999999982405017  1.0000
  S   S1        1.0  0.251914662880615  0.2519146186243423  0.7480853778717614  1.0000
  S   S2        1.0  0.7480855011367886  0.7480853618318027  0.25191464323702284  1.0000
  S   S3        1.0  0.7480852306141967  0.25191468359435637  0.2519146173706318  1.0000
  S   S4        1.0  0.2519145007412572  0.7480855454603157  0.7480854573267224  1.0000
  S   S5        1.0  0.25191464596960333  0.7480853501342293  0.25191460741797794  1.0000
  S   S6        1.0  0.7480852571403925  0.2519146246719444  0.7480853685932833  1.0000
