data_image0
_chemical_formula_structural       Cd2GeTe6
_chemical_formula_sum              "Cd2 Ge1 Te6"
_cell_length_a       7.34746783786925
_cell_length_b       7.347467257077121
_cell_length_c       7.347467382109476
_cell_angle_alpha    59.99999830268644
_cell_angle_beta     60.000004792669976
_cell_angle_gamma    59.99999833672316

_space_group_name_H-M_alt    "P 1"
_space_group_IT_number       1

loop_
  _space_group_symop_operation_xyz
  'x, y, z'

loop_
  _atom_site_type_symbol
  _atom_site_label
  _atom_site_symmetry_multiplicity
  _atom_site_fract_x
  _atom_site_fract_y
  _atom_site_fract_z
  _atom_site_occupancy
  Cd  Cd1       1.0  0.24999994577560322  0.2499999710214907  0.25000000910656733  1.0000
  Cd  Cd2       1.0  0.7500001247783381  0.7500000030767486  0.7499997950353825  1.0000
  Ge  Ge1       1.0  6.634069520933231e-08  0.9999998999863576  8.488713519149238e-08  1.0000
  Te  Te1       1.0  0.2746462792920544  0.27464673416895075  0.7253535167318051  1.0000
  Te  Te2       1.0  0.7253537562571244  0.7253533449436034  0.27464659401967695  1.0000
  Te  Te3       1.0  0.7253536775295816  0.274646399458011  0.27464651209176555  1.0000
  Te  Te4       1.0  0.27464647574800677  0.7253534396218076  0.7253535604579214  1.0000
  Te  Te5       1.0  0.2746460883490672  0.7253536451121935  0.2746465889945468  1.0000
  Te  Te6       1.0  0.7253535817858775  0.2746465590174198  0.7253533357275472  1.0000
