data_image0
_chemical_formula_structural       Cd2HgTe6
_chemical_formula_sum              "Cd2 Hg1 Te6"
_cell_length_a       7.464603699109747
_cell_length_b       7.4646028079845035
_cell_length_c       7.464603442600866
_cell_angle_alpha    59.99999623856019
_cell_angle_beta     59.99999996865025
_cell_angle_gamma    60.000001175031066

_space_group_name_H-M_alt    "P 1"
_space_group_IT_number       1

loop_
  _space_group_symop_operation_xyz
  'x, y, z'

loop_
  _atom_site_type_symbol
  _atom_site_label
  _atom_site_symmetry_multiplicity
  _atom_site_fract_x
  _atom_site_fract_y
  _atom_site_fract_z
  _atom_site_occupancy
  Cd  Cd1       1.0  0.25000005848992973  0.24999986031129687  0.2500000377646678  1.0000
  Cd  Cd2       1.0  0.7500000183505153  0.7500000058847357  0.7500000155489251  1.0000
  Hg  Hg1       1.0  0.9999998751862699  0.9999999474964117  1.958311322231194e-07  1.0000
  Te  Te1       1.0  0.2820214630547354  0.28202163023987187  0.7179784230382803  1.0000
  Te  Te2       1.0  0.7179785768744243  0.7179784951925875  0.2820214186385481  1.0000
  Te  Te3       1.0  0.7179786105440088  0.28202155806489315  0.2820214996250126  1.0000
  Te  Te4       1.0  0.28202154214013675  0.7179783868865144  0.7179784549545469  1.0000
  Te  Te5       1.0  0.2820214659266276  0.717978361760315  0.28202165071261126  1.0000
  Te  Te6       1.0  0.717978387921299  0.2820217603906597  0.7179783258352548  1.0000
