data_image0
_chemical_formula_structural       Cd2HgS6
_chemical_formula_sum              "Cd2 Hg1 S6"
_cell_length_a       6.606620060358013
_cell_length_b       6.60661984542897
_cell_length_c       6.606619819262716
_cell_angle_alpha    60.000001524287356
_cell_angle_beta     60.00000062437995
_cell_angle_gamma    59.99999911031468

_space_group_name_H-M_alt    "P 1"
_space_group_IT_number       1

loop_
  _space_group_symop_operation_xyz
  'x, y, z'

loop_
  _atom_site_type_symbol
  _atom_site_label
  _atom_site_symmetry_multiplicity
  _atom_site_fract_x
  _atom_site_fract_y
  _atom_site_fract_z
  _atom_site_occupancy
  Cd  Cd1       1.0  0.25000003146215394  0.25000019845997906  0.24999989116692153  1.0000
  Cd  Cd2       1.0  0.7500001552204  0.749999757455719  0.7500001634593291  1.0000
  Hg  Hg1       1.0  2.7683009165132772e-08  0.999999953654632  0.9999999230540787  1.0000
  S   S1        1.0  0.2719191048938776  0.27191925732410055  0.728080787368222  1.0000
  S   S2        1.0  0.7280809275587948  0.7280807208373709  0.2719190819869498  1.0000
  S   S3        1.0  0.7280807596006452  0.271919365566035  0.27191905146354506  1.0000
  S   S4        1.0  0.27191908625911904  0.7280807738773143  0.7280809107697109  1.0000
  S   S5        1.0  0.2719191338153616  0.7280807860598626  0.2719192063306533  1.0000
  S   S6        1.0  0.7280807617975246  0.27191918839398593  0.7280809860749909  1.0000
