data_image0
_chemical_formula_structural       Cd2InO6
_chemical_formula_sum              "Cd2 In1 O6"
_cell_length_a       5.462805749654426
_cell_length_b       5.46280572823074
_cell_length_c       5.462805763010295
_cell_angle_alpha    60.000000286898725
_cell_angle_beta     60.00000051948068
_cell_angle_gamma    60.00000029768736

_space_group_name_H-M_alt    "P 1"
_space_group_IT_number       1

loop_
  _space_group_symop_operation_xyz
  'x, y, z'

loop_
  _atom_site_type_symbol
  _atom_site_label
  _atom_site_symmetry_multiplicity
  _atom_site_fract_x
  _atom_site_fract_y
  _atom_site_fract_z
  _atom_site_occupancy
  Cd  Cd1       1.0  0.2500000172760322  0.2499999117653898  0.25000005558364446  1.0000
  Cd  Cd2       1.0  0.7500000235542503  0.7500000357202012  0.7499999428089066  1.0000
  In  In1       1.0  6.324405374698723e-08  0.9999998609978358  0.9999999866233428  1.0000
  O   O1        1.0  0.27832202093365577  0.2783220057416318  0.7216780030650533  1.0000
  O   O2        1.0  0.7216779296427072  0.7216781300694718  0.2783219517833851  1.0000
  O   O3        1.0  0.7216780056221918  0.27832202135415496  0.27832204994558096  1.0000
  O   O4        1.0  0.27832199923034395  0.7216780023584294  0.7216779997142319  1.0000
  O   O5        1.0  0.27832197627160427  0.7216780187995351  0.2783220051450449  1.0000
  O   O6        1.0  0.7216779626700217  0.27832202509078263  0.7216779996505933  1.0000
