data_image0
_chemical_formula_structural       Cd2InTe6
_chemical_formula_sum              "Cd2 In1 Te6"
_cell_length_a       7.5129436605947335
_cell_length_b       7.51294381672984
_cell_length_c       7.512943614345301
_cell_angle_alpha    60.0000007653035
_cell_angle_beta     60.000000279665116
_cell_angle_gamma    60.000000540125555

_space_group_name_H-M_alt    "P 1"
_space_group_IT_number       1

loop_
  _space_group_symop_operation_xyz
  'x, y, z'

loop_
  _atom_site_type_symbol
  _atom_site_label
  _atom_site_symmetry_multiplicity
  _atom_site_fract_x
  _atom_site_fract_y
  _atom_site_fract_z
  _atom_site_occupancy
  Cd  Cd1       1.0  0.25000000287975477  0.25000000986777565  0.24999999390852065  1.0000
  Cd  Cd2       1.0  0.7500000258253892  0.7500000149317094  0.7499999671579461  1.0000
  In  In1       1.0  2.539826345346994e-08  1.14112578837301e-08  2.891818707108581e-09  1.0000
  Te  Te1       1.0  0.2755175094650286  0.2755175054153005  0.7244824852226353  1.0000
  Te  Te2       1.0  0.7244824481063314  0.7244824884107702  0.27551752822846687  1.0000
  Te  Te3       1.0  0.724482523938546  0.2755174133246516  0.27551756221135415  1.0000
  Te  Te4       1.0  0.27551753457599054  0.7244824989924332  0.7244824588261237  1.0000
  Te  Te5       1.0  0.2755174898542793  0.7244825030220534  0.27551756034069236  1.0000
  Te  Te6       1.0  0.7244824410135762  0.27551754786030747  0.7244824445891981  1.0000
