data_image0
_chemical_formula_structural       Cd2MnSe6
_chemical_formula_sum              "Cd2 Mn1 Se6"
_cell_length_a       6.77493141820087
_cell_length_b       6.774931210436822
_cell_length_c       6.774931593455829
_cell_angle_alpha    59.999999019561876
_cell_angle_beta     59.99999864761556
_cell_angle_gamma    60.000000465527464

_space_group_name_H-M_alt    "P 1"
_space_group_IT_number       1

loop_
  _space_group_symop_operation_xyz
  'x, y, z'

loop_
  _atom_site_type_symbol
  _atom_site_label
  _atom_site_symmetry_multiplicity
  _atom_site_fract_x
  _atom_site_fract_y
  _atom_site_fract_z
  _atom_site_occupancy
  Cd  Cd1       1.0  0.2500000027682599  0.24999996505850114  0.2500000114080765  1.0000
  Cd  Cd2       1.0  0.7499999772449629  0.7500000343730132  0.7499999904875919  1.0000
  Mn  Mn1       1.0  4.424880537141258e-09  0.9999999764991224  6.857918488795119e-08  1.0000
  Se  Se1       1.0  0.24516827491858476  0.2451682337398322  0.7548317385088065  1.0000
  Se  Se2       1.0  0.7548317376667484  0.7548317855770416  0.24516824011018612  1.0000
  Se  Se3       1.0  0.7548317013519233  0.24516831456429294  0.24516835755711597  1.0000
  Se  Se4       1.0  0.24516835287979566  0.7548316360577063  0.7548316301580316  1.0000
  Se  Se5       1.0  0.24516830490204788  0.7548316751546791  0.24516835130633066  1.0000
  Se  Se6       1.0  0.7548316435019864  0.2451683730863511  0.7548316213247591  1.0000
