data_image0
_chemical_formula_structural       Cd2MnO6
_chemical_formula_sum              "Cd2 Mn1 O6"
_cell_length_a       5.2620433724827915
_cell_length_b       5.262043257259989
_cell_length_c       5.262043711971518
_cell_angle_alpha    59.999999224995875
_cell_angle_beta     59.999999211380484
_cell_angle_gamma    60.000003932597025

_space_group_name_H-M_alt    "P 1"
_space_group_IT_number       1

loop_
  _space_group_symop_operation_xyz
  'x, y, z'

loop_
  _atom_site_type_symbol
  _atom_site_label
  _atom_site_symmetry_multiplicity
  _atom_site_fract_x
  _atom_site_fract_y
  _atom_site_fract_z
  _atom_site_occupancy
  Cd  Cd1       1.0  0.24999997976033836  0.24999998792971453  0.24999999489066116  1.0000
  Cd  Cd2       1.0  0.7499999739691735  0.7500000243043586  0.7499999883811602  1.0000
  Mn  Mn1       1.0  0.9999999945691487  1.629255710616326e-08  9.772365775538792e-09  1.0000
  O   O1        1.0  0.24958351367555287  0.2495834453665085  0.7504165208711554  1.0000
  O   O2        1.0  0.7504164328052115  0.7504166017801871  0.2495834732739588  1.0000
  O   O3        1.0  0.7504165130491338  0.2495833819374219  0.2495835255328704  1.0000
  O   O4        1.0  0.2495835509554479  0.7504165627989222  0.7504165237687864  1.0000
  O   O5        1.0  0.24958351485268904  0.7504165651535935  0.24958340160898515  1.0000
  O   O6        1.0  0.7504164865108038  0.2495834424254657  0.7504165392689277  1.0000
