data_image0
_chemical_formula_structural       Cd2MgTe6
_chemical_formula_sum              "Cd2 Mg1 Te6"
_cell_length_a       7.475423418959338
_cell_length_b       7.475423893485048
_cell_length_c       7.475423170518341
_cell_angle_alpha    60.00000325931768
_cell_angle_beta     60.00000150728614
_cell_angle_gamma    60.00000459375062

_space_group_name_H-M_alt    "P 1"
_space_group_IT_number       1

loop_
  _space_group_symop_operation_xyz
  'x, y, z'

loop_
  _atom_site_type_symbol
  _atom_site_label
  _atom_site_symmetry_multiplicity
  _atom_site_fract_x
  _atom_site_fract_y
  _atom_site_fract_z
  _atom_site_occupancy
  Cd  Cd1       1.0  0.25000007993511086  0.24999991127576637  0.2500000032375398  1.0000
  Cd  Cd2       1.0  0.7499999335015144  0.7500002171439915  0.749999897127277  1.0000
  Mg  Mg1       1.0  0.9999999860819642  2.7852148386065998e-08  5.323020473893752e-08  1.0000
  Te  Te1       1.0  0.28027379688120446  0.28027352100955083  0.7197263607046182  1.0000
  Te  Te2       1.0  0.7197263016432003  0.7197262223952117  0.2802737605228032  1.0000
  Te  Te3       1.0  0.7197263026697187  0.2802733541782695  0.2802739185581367  1.0000
  Te  Te4       1.0  0.2802737024841496  0.7197266415341914  0.7197260201965012  1.0000
  Te  Te5       1.0  0.28027362317683574  0.7197267303837034  0.2802736439588895  1.0000
  Te  Te6       1.0  0.719726282243199  0.28027336526881863  0.7197263535521785  1.0000
