data_image0
_chemical_formula_structural       Cd2MgS6
_chemical_formula_sum              "Cd2 Mg1 S6"
_cell_length_a       6.5209514053773985
_cell_length_b       6.520951614514396
_cell_length_c       6.520951968158682
_cell_angle_alpha    59.99999599166424
_cell_angle_beta     59.99999911292409
_cell_angle_gamma    59.99999876117545

_space_group_name_H-M_alt    "P 1"
_space_group_IT_number       1

loop_
  _space_group_symop_operation_xyz
  'x, y, z'

loop_
  _atom_site_type_symbol
  _atom_site_label
  _atom_site_symmetry_multiplicity
  _atom_site_fract_x
  _atom_site_fract_y
  _atom_site_fract_z
  _atom_site_occupancy
  Cd  Cd1       1.0  0.24999994811485876  0.25000007258676127  0.24999999009134025  1.0000
  Cd  Cd2       1.0  0.7499999994743785  0.7500001614152153  0.7499998978788807  1.0000
  Mg  Mg1       1.0  0.9999999919686806  1.8781691438358453e-08  0.9999999501527792  1.0000
  S   S1        1.0  0.26727262951073055  0.26727264889407537  0.7327273743836586  1.0000
  S   S2        1.0  0.7327272862633722  0.7327273033825488  0.2672727224964364  1.0000
  S   S3        1.0  0.7327273189925099  0.26727264533894396  0.26727270843570017  1.0000
  S   S4        1.0  0.26727276376960935  0.7327272787651443  0.7327273681092472  1.0000
  S   S5        1.0  0.2672727384038031  0.7327271943673335  0.2672727263730335  1.0000
  S   S6        1.0  0.7327273248094548  0.2672726715135194  0.732727274044081  1.0000
