data_image0
_chemical_formula_structural       Cd2MgO6
_chemical_formula_sum              "Cd2 Mg1 O6"
_cell_length_a       5.227289356439945
_cell_length_b       5.227289142647632
_cell_length_c       5.227289275588106
_cell_angle_alpha    59.9999998238029
_cell_angle_beta     59.9999998923016
_cell_angle_gamma    60.000001046085664

_space_group_name_H-M_alt    "P 1"
_space_group_IT_number       1

loop_
  _space_group_symop_operation_xyz
  'x, y, z'

loop_
  _atom_site_type_symbol
  _atom_site_label
  _atom_site_symmetry_multiplicity
  _atom_site_fract_x
  _atom_site_fract_y
  _atom_site_fract_z
  _atom_site_occupancy
  Cd  Cd1       1.0  0.2500000570586949  0.25000011366943975  0.24999991514435096  1.0000
  Cd  Cd2       1.0  0.7499999939711944  0.7500000575073935  0.7500000484813822  1.0000
  Mg  Mg1       1.0  7.537349562206014e-08  0.9999999859421037  0.9999998813424785  1.0000
  O   O1        1.0  0.2679952664638666  0.2679952861539602  0.7320046653235706  1.0000
  O   O2        1.0  0.7320048202047175  0.7320045991789665  0.26799522062280023  1.0000
  O   O3        1.0  0.7320046427938286  0.2679953379971138  0.26799529692854196  1.0000
  O   O4        1.0  0.26799524470612185  0.7320047207165402  0.7320047989546382  1.0000
  O   O5        1.0  0.26799525303510624  0.7320047044172285  0.2679953417976091  1.0000
  O   O6        1.0  0.7320046353377988  0.2679951926306103  0.7320048421341503  1.0000
