data_image0
_chemical_formula_structural       Cd2MnTe6
_chemical_formula_sum              "Cd2 Mn1 Te6"
_cell_length_a       7.1067032789557265
_cell_length_b       7.106701993728923
_cell_length_c       7.10670279857636
_cell_angle_alpha    59.99999861684554
_cell_angle_beta     60.000002681039376
_cell_angle_gamma    60.00000376590545

_space_group_name_H-M_alt    "P 1"
_space_group_IT_number       1

loop_
  _space_group_symop_operation_xyz
  'x, y, z'

loop_
  _atom_site_type_symbol
  _atom_site_label
  _atom_site_symmetry_multiplicity
  _atom_site_fract_x
  _atom_site_fract_y
  _atom_site_fract_z
  _atom_site_occupancy
  Cd  Cd1       1.0  0.25000008609787944  0.24999989834883452  0.2500000342893698  1.0000
  Cd  Cd2       1.0  0.7499999716153732  0.7500001017608651  0.7499999668654632  1.0000
  Mn  Mn1       1.0  0.9999999569327693  9.995522910644242e-08  5.035485131214771e-08  1.0000
  Te  Te1       1.0  0.25100262608389556  0.25100224652409114  0.7489975396737659  1.0000
  Te  Te2       1.0  0.7489974315307967  0.7489977587557053  0.2510024054746515  1.0000
  Te  Te3       1.0  0.7489973702474579  0.25100244179671816  0.25100252239367615  1.0000
  Te  Te4       1.0  0.2510026810003975  0.7489974997185329  0.7489974127925177  1.0000
  Te  Te5       1.0  0.2510025555105123  0.7489975234054926  0.2510023806986753  1.0000
  Te  Te6       1.0  0.7489973284810214  0.25100241293964853  0.7489976983927478  1.0000
