data_image0
_chemical_formula_structural       Cd2NbSe6
_chemical_formula_sum              "Cd2 Nb1 Se6"
_cell_length_a       6.902202367695542
_cell_length_b       6.902202424399955
_cell_length_c       6.902202243536655
_cell_angle_alpha    59.99999960101418
_cell_angle_beta     59.99999913751196
_cell_angle_gamma    59.999999479769706

_space_group_name_H-M_alt    "P 1"
_space_group_IT_number       1

loop_
  _space_group_symop_operation_xyz
  'x, y, z'

loop_
  _atom_site_type_symbol
  _atom_site_label
  _atom_site_symmetry_multiplicity
  _atom_site_fract_x
  _atom_site_fract_y
  _atom_site_fract_z
  _atom_site_occupancy
  Cd  Cd1       1.0  0.2500000069672914  0.2500000399336248  0.24999997404557228  1.0000
  Cd  Cd2       1.0  0.7500000021980221  0.749999960102517  0.7500000156842622  1.0000
  Nb  Nb1       1.0  0.9999999914323119  1.0646556869355594e-08  3.373207641414135e-08  1.0000
  Se  Se1       1.0  0.25597272584821  0.25597268129924006  0.7440272732597992  1.0000
  Se  Se2       1.0  0.7440273078372158  0.7440272903460825  0.25597271550776285  1.0000
  Se  Se3       1.0  0.7440273311951939  0.25597269592124594  0.2559726488505456  1.0000
  Se  Se4       1.0  0.25597268466190043  0.7440273041148959  0.7440273100059523  1.0000
  Se  Se5       1.0  0.2559726855757211  0.7440272977835833  0.25597267723158634  1.0000
  Se  Se6       1.0  0.7440272641405957  0.2559727199968206  0.7440273507363714  1.0000
