data_image0
_chemical_formula_structural       Cd2NiSe6
_chemical_formula_sum              "Cd2 Ni1 Se6"
_cell_length_a       6.631122555363038
_cell_length_b       6.63112234048927
_cell_length_c       6.63112256887828
_cell_angle_alpha    59.99999843540683
_cell_angle_beta     59.99999864573018
_cell_angle_gamma    59.99999877760772

_space_group_name_H-M_alt    "P 1"
_space_group_IT_number       1

loop_
  _space_group_symop_operation_xyz
  'x, y, z'

loop_
  _atom_site_type_symbol
  _atom_site_label
  _atom_site_symmetry_multiplicity
  _atom_site_fract_x
  _atom_site_fract_y
  _atom_site_fract_z
  _atom_site_occupancy
  Cd  Cd1       1.0  0.2500000060270311  0.25000002233044055  0.2500000150938952  1.0000
  Cd  Cd2       1.0  0.7500000009514977  0.7499999303159331  0.7500000694027682  1.0000
  Ni  Ni1       1.0  0.9999999807396862  5.540894055679371e-09  0.9999999691587028  1.0000
  Se  Se1       1.0  0.2505168180097435  0.2505168049258144  0.7494831930000803  1.0000
  Se  Se2       1.0  0.7494831747724768  0.7494832529975475  0.25051676452206756  1.0000
  Se  Se3       1.0  0.7494831832854598  0.25051682520396845  0.2505168177009765  1.0000
  Se  Se4       1.0  0.2505168053290529  0.7494831773104524  0.7494831741336169  1.0000
  Se  Se5       1.0  0.25051683527044216  0.7494831643608394  0.25051682537903824  1.0000
  Se  Se6       1.0  0.7494831953473691  0.25051682707179335  0.7494831600430412  1.0000
