data_image0
_chemical_formula_structural       Cd2NbTe6
_chemical_formula_sum              "Cd2 Nb1 Te6"
_cell_length_a       7.369336227455417
_cell_length_b       7.369336583889975
_cell_length_c       7.369336195311366
_cell_angle_alpha    60.000000327544065
_cell_angle_beta     60.00000272265105
_cell_angle_gamma    59.99999674766854

_space_group_name_H-M_alt    "P 1"
_space_group_IT_number       1

loop_
  _space_group_symop_operation_xyz
  'x, y, z'

loop_
  _atom_site_type_symbol
  _atom_site_label
  _atom_site_symmetry_multiplicity
  _atom_site_fract_x
  _atom_site_fract_y
  _atom_site_fract_z
  _atom_site_occupancy
  Cd  Cd1       1.0  0.2499999858147684  0.25000005295743727  0.24999998855468447  1.0000
  Cd  Cd2       1.0  0.7499999761711563  0.7499999710722703  0.749999987779832  1.0000
  Nb  Nb1       1.0  0.9999999372126775  3.323895368643734e-08  0.9999998261547518  1.0000
  Te  Te1       1.0  0.26420541854191903  0.2642054056650033  0.7357945528569775  1.0000
  Te  Te2       1.0  0.7357946152688295  0.7357945768160189  0.2642053934127542  1.0000
  Te  Te3       1.0  0.7357946080745592  0.2642053585308245  0.2642054451856543  1.0000
  Te  Te4       1.0  0.2642053326075078  0.7357946871041945  0.7357947019768997  1.0000
  Te  Te5       1.0  0.26420534518465616  0.7357946361187484  0.2642053869597238  1.0000
  Te  Te6       1.0  0.7357947702325109  0.2642052848702158  0.7357947270164663  1.0000
