data_image0
_chemical_formula_structural       Cd2NbS6
_chemical_formula_sum              "Cd2 Nb1 S6"
_cell_length_a       6.510134230440937
_cell_length_b       6.510134262544339
_cell_length_c       6.510134133127586
_cell_angle_alpha    59.999999199865854
_cell_angle_beta     59.999997199873015
_cell_angle_gamma    59.9999996536187

_space_group_name_H-M_alt    "P 1"
_space_group_IT_number       1

loop_
  _space_group_symop_operation_xyz
  'x, y, z'

loop_
  _atom_site_type_symbol
  _atom_site_label
  _atom_site_symmetry_multiplicity
  _atom_site_fract_x
  _atom_site_fract_y
  _atom_site_fract_z
  _atom_site_occupancy
  Cd  Cd1       1.0  0.25000007906649935  0.24999998653656794  0.24999987119154793  1.0000
  Cd  Cd2       1.0  0.750000073896478  0.7499998109878132  0.7499999738339708  1.0000
  Nb  Nb1       1.0  0.9999999949647693  4.7032243508417685e-08  0.9999999329194933  1.0000
  S   S1        1.0  0.2570917486107669  0.25709176580359366  0.7429082253984216  1.0000
  S   S2        1.0  0.742908161297172  0.7429083139142459  0.25709170911862317  1.0000
  S   S3        1.0  0.7429082852147595  0.25709172782193596  0.25709179686838235  1.0000
  S   S4        1.0  0.2570917258492802  0.7429082559501267  0.7429083900305647  1.0000
  S   S5        1.0  0.2570916742030554  0.7429083049624519  0.25709186355800745  1.0000
  S   S6        1.0  0.7429082534233881  0.25709180673731247  0.7429082396532208  1.0000
