data_image0
_chemical_formula_structural       Cd2NiO6
_chemical_formula_sum              "Cd2 Ni1 O6"
_cell_length_a       5.1688794127824735
_cell_length_b       5.168879053463126
_cell_length_c       5.168879139541357
_cell_angle_alpha    60.00000125592215
_cell_angle_beta     60.00000198331947
_cell_angle_gamma    60.00000106390406

_space_group_name_H-M_alt    "P 1"
_space_group_IT_number       1

loop_
  _space_group_symop_operation_xyz
  'x, y, z'

loop_
  _atom_site_type_symbol
  _atom_site_label
  _atom_site_symmetry_multiplicity
  _atom_site_fract_x
  _atom_site_fract_y
  _atom_site_fract_z
  _atom_site_occupancy
  Cd  Cd1       1.0  0.24999991321175488  0.25000017286297077  0.24999996279870193  1.0000
  Cd  Cd2       1.0  0.7499999596774467  0.7499999522881385  0.7500000267015968  1.0000
  Ni  Ni1       1.0  2.6424085151873576e-08  0.9999999810443259  0.9999999962657943  1.0000
  O   O1        1.0  0.24765537279859687  0.24765542018747777  0.7523445803313872  1.0000
  O   O2        1.0  0.7523446247193684  0.7523446125547196  0.24765536790846426  1.0000
  O   O3        1.0  0.7523446221712098  0.24765541057650062  0.24765541917543496  1.0000
  O   O4        1.0  0.24765547763604426  0.7523445297567858  0.752344568621301  1.0000
  O   O5        1.0  0.24765542375518157  0.7523445269753959  0.24765545070330963  1.0000
  O   O6        1.0  0.7523445721173843  0.24765539677167422  0.7523446167004322  1.0000
