data_image0
_chemical_formula_structural       Cd2PdS6
_chemical_formula_sum              "Cd2 Pd1 S6"
_cell_length_a       6.457647358077357
_cell_length_b       6.457647739265384
_cell_length_c       6.4576475105255
_cell_angle_alpha    59.99999792055477
_cell_angle_beta     59.99999973637866
_cell_angle_gamma    59.9999958707794

_space_group_name_H-M_alt    "P 1"
_space_group_IT_number       1

loop_
  _space_group_symop_operation_xyz
  'x, y, z'

loop_
  _atom_site_type_symbol
  _atom_site_label
  _atom_site_symmetry_multiplicity
  _atom_site_fract_x
  _atom_site_fract_y
  _atom_site_fract_z
  _atom_site_occupancy
  Cd  Cd1       1.0  0.250000021950804  0.2500001125693439  0.25000001812418954  1.0000
  Cd  Cd2       1.0  0.7499998997779991  0.7500001385670877  0.7500000790279941  1.0000
  Pd  Pd1       1.0  0.999999995720329  0.9999999431025948  0.999999745655056  1.0000
  S   S1        1.0  0.25877034683839906  0.2587704103683657  0.7412295726092798  1.0000
  S   S2        1.0  0.7412296851430431  0.7412296226613108  0.2587702455313865  1.0000
  S   S3        1.0  0.7412295990702228  0.2587704091133586  0.2587704552229976  1.0000
  S   S4        1.0  0.2587705253013475  0.7412293735676693  0.7412297500586923  1.0000
  S   S5        1.0  0.25877047673527925  0.7412294795350839  0.25877043027378194  1.0000
  S   S6        1.0  0.7412294511203331  0.2587705440116851  0.7412296877938446  1.0000
