data_image0
_chemical_formula_structural       Cd2PtO6
_chemical_formula_sum              "Cd2 Pt1 O6"
_cell_length_a       5.438271551668074
_cell_length_b       5.438271306222284
_cell_length_c       5.438271516555442
_cell_angle_alpha    59.99999943460846
_cell_angle_beta     59.99999847439314
_cell_angle_gamma    59.99999857513414

_space_group_name_H-M_alt    "P 1"
_space_group_IT_number       1

loop_
  _space_group_symop_operation_xyz
  'x, y, z'

loop_
  _atom_site_type_symbol
  _atom_site_label
  _atom_site_symmetry_multiplicity
  _atom_site_fract_x
  _atom_site_fract_y
  _atom_site_fract_z
  _atom_site_occupancy
  Cd  Cd1       1.0  0.25000008281087305  0.24999998664460432  0.24999995629674224  1.0000
  Cd  Cd2       1.0  0.750000044810568  0.7500000229921913  0.7499999373332463  1.0000
  Pt  Pt1       1.0  2.402224136982118e-08  0.999999927933281  0.99999993392008  1.0000
  O   O1        1.0  0.24858951980104352  0.24858959876863876  0.751410487231852  1.0000
  O   O2        1.0  0.7514104230503196  0.7514104874390465  0.2485895763433656  1.0000
  O   O3        1.0  0.7514104777136741  0.24858948167111225  0.24858961742332458  1.0000
  O   O4        1.0  0.24858956946219357  0.7514103297822108  0.751410478041052  1.0000
  O   O5        1.0  0.24858943370667877  0.7514105723891554  0.2485896861370239  1.0000
  O   O6        1.0  0.751410424662147  0.24858960164984112  0.7514103114051237  1.0000
