data_image0
_chemical_formula_structural       Cd2PbO6
_chemical_formula_sum              "Cd2 Pb1 O6"
_cell_length_a       5.610287436538992
_cell_length_b       5.610287411379007
_cell_length_c       5.6102869713018935
_cell_angle_alpha    60.000002414366115
_cell_angle_beta     60.00000213904029
_cell_angle_gamma    59.99999746828759

_space_group_name_H-M_alt    "P 1"
_space_group_IT_number       1

loop_
  _space_group_symop_operation_xyz
  'x, y, z'

loop_
  _atom_site_type_symbol
  _atom_site_label
  _atom_site_symmetry_multiplicity
  _atom_site_fract_x
  _atom_site_fract_y
  _atom_site_fract_z
  _atom_site_occupancy
  Cd  Cd1       1.0  0.25000012513660413  0.24999985936258623  0.24999998208910057  1.0000
  Cd  Cd2       1.0  0.7500000125163383  0.7500000801856129  0.7499999390505132  1.0000
  Pb  Pb1       1.0  0.999999905801504  1.0915174599656899e-08  0.999999692283418  1.0000
  O   O1        1.0  0.26373842228906935  0.2637385131266554  0.7362614378094059  1.0000
  O   O2        1.0  0.7362615813070886  0.7362616927517073  0.26373834054859807  1.0000
  O   O3        1.0  0.7362614966544696  0.26373858758384555  0.2637385261646119  1.0000
  O   O4        1.0  0.26373822829486526  0.736261731812302  0.7362616181658748  1.0000
  O   O5        1.0  0.2637386249106958  0.736261340937077  0.26373857974310855  1.0000
  O   O6        1.0  0.7362616441202802  0.26373814890609637  0.7362618160518842  1.0000
