data_image0
_chemical_formula_structural       Cd2PbTe6
_chemical_formula_sum              "Cd2 Pb1 Te6"
_cell_length_a       7.759174487353859
_cell_length_b       7.759174489081469
_cell_length_c       7.75917469610626
_cell_angle_alpha    60.00000100987212
_cell_angle_beta     60.00000034079713
_cell_angle_gamma    60.000000022435174

_space_group_name_H-M_alt    "P 1"
_space_group_IT_number       1

loop_
  _space_group_symop_operation_xyz
  'x, y, z'

loop_
  _atom_site_type_symbol
  _atom_site_label
  _atom_site_symmetry_multiplicity
  _atom_site_fract_x
  _atom_site_fract_y
  _atom_site_fract_z
  _atom_site_occupancy
  Cd  Cd1       1.0  0.24999999618444238  0.25000003613715255  0.24999999385750335  1.0000
  Cd  Cd2       1.0  0.7499999826625828  0.7500000010770355  0.7499999930772016  1.0000
  Pb  Pb1       1.0  0.9999999416748885  4.103963225823439e-08  1.7664317695310656e-08  1.0000
  Te  Te1       1.0  0.28964995876398314  0.2896501009447842  0.7103499865059156  1.0000
  Te  Te2       1.0  0.7103499298588675  0.710350037290036  0.2896499731210146  1.0000
  Te  Te3       1.0  0.7103500269849685  0.28965001747680424  0.28964991779254273  1.0000
  Te  Te4       1.0  0.28965010758139537  0.7103498918831438  0.7103499508170668  1.0000
  Te  Te5       1.0  0.2896500601497137  0.7103499069124458  0.28965009391988455  1.0000
  Te  Te6       1.0  0.7103500036161882  0.2896499693001117  0.7103500702462571  1.0000
