data_image0
_chemical_formula_structural       Cd2PtS6
_chemical_formula_sum              "Cd2 Pt1 S6"
_cell_length_a       6.333668127663747
_cell_length_b       6.333667309112196
_cell_length_c       6.333668208755661
_cell_angle_alpha    60.00000171508479
_cell_angle_beta     60.00000088887543
_cell_angle_gamma    59.999999095077

_space_group_name_H-M_alt    "P 1"
_space_group_IT_number       1

loop_
  _space_group_symop_operation_xyz
  'x, y, z'

loop_
  _atom_site_type_symbol
  _atom_site_label
  _atom_site_symmetry_multiplicity
  _atom_site_fract_x
  _atom_site_fract_y
  _atom_site_fract_z
  _atom_site_occupancy
  Cd  Cd1       1.0  0.25000010782846926  0.2499999301811387  0.2500000012171044  1.0000
  Cd  Cd2       1.0  0.7500000034417068  0.750000034190325  0.749999887121057  1.0000
  Pt  Pt1       1.0  1.1059279958862119e-10  0.9999999941988678  0.9999997802254615  1.0000
  S   S1        1.0  0.25742995825301995  0.2574300426514752  0.7425699926716219  1.0000
  S   S2        1.0  0.7425699642220198  0.7425700068030447  0.2574300248869122  1.0000
  S   S3        1.0  0.742569850019555  0.2574300642062895  0.2574300293599184  1.0000
  S   S4        1.0  0.25742995905263066  0.7425700683975863  0.7425701564751648  1.0000
  S   S5        1.0  0.2574300798866436  0.7425699601153416  0.2574300341205274  1.0000
  S   S6        1.0  0.7425700682345294  0.25742988823379387  0.7425701085287828  1.0000
