data_image0
_chemical_formula_structural       Cd2PbSe6
_chemical_formula_sum              "Cd2 Pb1 Se6"
_cell_length_a       6.965862186624062
_cell_length_b       6.965861748904271
_cell_length_c       6.9658616433574325
_cell_angle_alpha    59.999994395048525
_cell_angle_beta     59.99999832698326
_cell_angle_gamma    59.99999851272515

_space_group_name_H-M_alt    "P 1"
_space_group_IT_number       1

loop_
  _space_group_symop_operation_xyz
  'x, y, z'

loop_
  _atom_site_type_symbol
  _atom_site_label
  _atom_site_symmetry_multiplicity
  _atom_site_fract_x
  _atom_site_fract_y
  _atom_site_fract_z
  _atom_site_occupancy
  Cd  Cd1       1.0  0.2500000721567702  0.24999989808860662  0.2499999204143724  1.0000
  Cd  Cd2       1.0  0.7499999536669482  0.7500000599735206  0.7500001002666824  1.0000
  Pb  Pb1       1.0  1.8099154832047388e-08  6.505376704697344e-08  1.8955072152054764e-07  1.0000
  Se  Se1       1.0  0.3074864143770166  0.3074864575730673  0.6925135509548416  1.0000
  Se  Se2       1.0  0.6925137595124239  0.692513588399571  0.3074864507925961  1.0000
  Se  Se3       1.0  0.6925138623158007  0.30748605732883033  0.30748634612122044  1.0000
  Se  Se4       1.0  0.3074866484229335  0.6925133908523591  0.6925133755235523  1.0000
  Se  Se5       1.0  0.30748604526583745  0.6925137330691773  0.3074865147445114  1.0000
  Se  Se6       1.0  0.6925132218279205  0.307486750697792  0.6925135535416185  1.0000
