data_image0
_chemical_formula_structural       Cd2PbS6
_chemical_formula_sum              "Cd2 Pb1 S6"
_cell_length_a       6.676667425712668
_cell_length_b       6.676667528345749
_cell_length_c       6.676667435119457
_cell_angle_alpha    60.00000040012002
_cell_angle_beta     60.00000010761344
_cell_angle_gamma    59.99999897795113

_space_group_name_H-M_alt    "P 1"
_space_group_IT_number       1

loop_
  _space_group_symop_operation_xyz
  'x, y, z'

loop_
  _atom_site_type_symbol
  _atom_site_label
  _atom_site_symmetry_multiplicity
  _atom_site_fract_x
  _atom_site_fract_y
  _atom_site_fract_z
  _atom_site_occupancy
  Cd  Cd1       1.0  0.250000016045386  0.25000000005037426  0.24999998500351436  1.0000
  Cd  Cd2       1.0  0.7500000018784707  0.7499999469545233  0.7499999642983499  1.0000
  Pb  Pb1       1.0  0.9999999890118062  1.834365733510669e-09  0.9999999836083693  1.0000
  S   S1        1.0  0.2717107264747881  0.27171072754563147  0.7282892424577945  1.0000
  S   S2        1.0  0.7282892916228875  0.7282892708215006  0.27171073799066464  1.0000
  S   S3        1.0  0.7282892823128951  0.27171073661352696  0.27171073019687664  1.0000
  S   S4        1.0  0.2717107571317131  0.7282892911034529  0.7282892818178139  1.0000
  S   S5        1.0  0.27171068736338405  0.7282892751799659  0.27171076962513946  1.0000
  S   S6        1.0  0.728289236714189  0.2717107562057471  0.7282893177094937  1.0000
