data_image0
_chemical_formula_structural       Cd2SrO6
_chemical_formula_sum              "Cd2 Sr1 O6"
_cell_length_a       5.668054035958888
_cell_length_b       5.668054051305927
_cell_length_c       5.668054026442588
_cell_angle_alpha    60.00000050288175
_cell_angle_beta     60.00000009045516
_cell_angle_gamma    59.9999998306577

_space_group_name_H-M_alt    "P 1"
_space_group_IT_number       1

loop_
  _space_group_symop_operation_xyz
  'x, y, z'

loop_
  _atom_site_type_symbol
  _atom_site_label
  _atom_site_symmetry_multiplicity
  _atom_site_fract_x
  _atom_site_fract_y
  _atom_site_fract_z
  _atom_site_occupancy
  Cd  Cd1       1.0  0.250000009261896  0.24999996103463146  0.2500000132610786  1.0000
  Cd  Cd2       1.0  0.7500000175148371  0.7500000300373045  0.7500000332015443  1.0000
  Sr  Sr1       1.0  2.998263917855806e-08  0.9999999589450765  1.965033354235757e-08  1.0000
  O   O1        1.0  0.2921735314365113  0.2921735268974451  0.7078264511564615  1.0000
  O   O2        1.0  0.7078264019781805  0.7078264814607743  0.29217348514502994  1.0000
  O   O3        1.0  0.7078264725500061  0.29217351085248183  0.2921735699107926  1.0000
  O   O4        1.0  0.29217352905996863  0.7078264823802397  0.7078264898190912  1.0000
  O   O5        1.0  0.2921735134880456  0.7078265347689007  0.2921735067408267  1.0000
  O   O6        1.0  0.7078264906110414  0.2921735060011002  0.7078264362336163  1.0000
