data_image0
_chemical_formula_structural       Cd2SrSe6
_chemical_formula_sum              "Cd2 Sr1 Se6"
_cell_length_a       7.350259081974846
_cell_length_b       7.350259026859813
_cell_length_c       7.350258199495749
_cell_angle_alpha    59.99999816829368
_cell_angle_beta     60.00000422251193
_cell_angle_gamma    60.00000723646056

_space_group_name_H-M_alt    "P 1"
_space_group_IT_number       1

loop_
  _space_group_symop_operation_xyz
  'x, y, z'

loop_
  _atom_site_type_symbol
  _atom_site_label
  _atom_site_symmetry_multiplicity
  _atom_site_fract_x
  _atom_site_fract_y
  _atom_site_fract_z
  _atom_site_occupancy
  Cd  Cd1       1.0  0.2500000514584594  0.2500000055814872  0.2500000458432616  1.0000
  Cd  Cd2       1.0  0.75000018974802  0.7499998917749173  0.7499999524043454  1.0000
  Sr  Sr1       1.0  2.5865118873710934e-09  1.6662591370495368e-09  2.7804535763038587e-08  1.0000
  Se  Se1       1.0  0.3036507403201914  0.3036505726285305  0.6963491804065841  1.0000
  Se  Se2       1.0  0.6963490755987918  0.6963483949543078  0.3036512994601072  1.0000
  Se  Se3       1.0  0.6963495088126403  0.3036508388373925  0.3036513055757378  1.0000
  Se  Se4       1.0  0.30365088212003344  0.6963495000780877  0.6963492840728848  1.0000
  Se  Se5       1.0  0.3036504341578388  0.6963495685036388  0.3036506717504106  1.0000
  Se  Se6       1.0  0.696349114935752  0.3036512269673555  0.6963482425783848  1.0000
