data_image0
_chemical_formula_structural       Cd2SO6
_chemical_formula_sum              "Cd2 S1 O6"
_cell_length_a       5.143568551087839
_cell_length_b       5.143569102454944
_cell_length_c       5.143569179992739
_cell_angle_alpha    60.000000892478475
_cell_angle_beta     59.999998936256965
_cell_angle_gamma    60.000001623528675

_space_group_name_H-M_alt    "P 1"
_space_group_IT_number       1

loop_
  _space_group_symop_operation_xyz
  'x, y, z'

loop_
  _atom_site_type_symbol
  _atom_site_label
  _atom_site_symmetry_multiplicity
  _atom_site_fract_x
  _atom_site_fract_y
  _atom_site_fract_z
  _atom_site_occupancy
  Cd  Cd1       1.0  0.24999998073556945  0.2500000270410961  0.2500000179820703  1.0000
  Cd  Cd2       1.0  0.7500000104187167  0.7499999573051165  0.7500000059264571  1.0000
  S   S1        1.0  0.9999999788656505  9.524474734337269e-09  0.9999999941398854  1.0000
  O   O1        1.0  0.22517837607979269  0.2251783483156579  0.7748215966396217  1.0000
  O   O2        1.0  0.7748216058457352  0.7748216098382489  0.22517834971484907  1.0000
  O   O3        1.0  0.7748216325302084  0.22517832304006422  0.22517840544124446  1.0000
  O   O4        1.0  0.22517844146124866  0.7748215946348254  0.7748216764863193  1.0000
  O   O5        1.0  0.22517841820155554  0.7748216754971656  0.22517829477805773  1.0000
  O   O6        1.0  0.7748215682565831  0.22517843742945534  0.7748216730208661  1.0000
