data_image0
_chemical_formula_structural       Cd2SrS6
_chemical_formula_sum              "Cd2 Sr1 S6"
_cell_length_a       7.053187085395892
_cell_length_b       7.053187335604807
_cell_length_c       7.05318737261213
_cell_angle_alpha    59.9999985440922
_cell_angle_beta     59.999996215108936
_cell_angle_gamma    59.999998894339

_space_group_name_H-M_alt    "P 1"
_space_group_IT_number       1

loop_
  _space_group_symop_operation_xyz
  'x, y, z'

loop_
  _atom_site_type_symbol
  _atom_site_label
  _atom_site_symmetry_multiplicity
  _atom_site_fract_x
  _atom_site_fract_y
  _atom_site_fract_z
  _atom_site_occupancy
  Cd  Cd1       1.0  0.2500000419380835  0.24999998532877196  0.24999998553268554  1.0000
  Cd  Cd2       1.0  0.7500000407826385  0.7499999507769908  0.7500000428346894  1.0000
  Sr  Sr1       1.0  4.1856178708865116e-08  0.9999998940770537  1.4120388516014657e-07  1.0000
  S   S1        1.0  0.2873825002612964  0.2873824942598322  0.7126174418307119  1.0000
  S   S2        1.0  0.7126174722890865  0.7126176102807794  0.2873824581584986  1.0000
  S   S3        1.0  0.7126174915575891  0.2873824503726536  0.28738254482029774  1.0000
  S   S4        1.0  0.2873825308871353  0.712617470105134  0.7126175144100713  1.0000
  S   S5        1.0  0.28738240378549007  0.7126175487729386  0.2873824340491275  1.0000
  S   S6        1.0  0.7126174695438231  0.2873826078609255  0.7126174370454404  1.0000
