data_image0
_chemical_formula_structural       Cd2ScS6
_chemical_formula_sum              "Cd2 Sc1 S6"
_cell_length_a       6.575733624532216
_cell_length_b       6.5757333136564045
_cell_length_c       6.575733568805562
_cell_angle_alpha    59.99999668780171
_cell_angle_beta     59.999998288919805
_cell_angle_gamma    59.9999967177776

_space_group_name_H-M_alt    "P 1"
_space_group_IT_number       1

loop_
  _space_group_symop_operation_xyz
  'x, y, z'

loop_
  _atom_site_type_symbol
  _atom_site_label
  _atom_site_symmetry_multiplicity
  _atom_site_fract_x
  _atom_site_fract_y
  _atom_site_fract_z
  _atom_site_occupancy
  Cd  Cd1       1.0  0.24999987857989936  0.25000001048767473  0.25000001070342276  1.0000
  Cd  Cd2       1.0  0.7499997781826638  0.7500003890672793  0.7500001272952839  1.0000
  Sc  Sc1       1.0  0.9999999733586779  0.999999985099822  5.5747836866932284e-08  1.0000
  S   S1        1.0  0.2654126831200573  0.26541242038126095  0.734587473823656  1.0000
  S   S2        1.0  0.7345874450945193  0.7345874129669454  0.2654125397084739  1.0000
  S   S3        1.0  0.734587547210979  0.26541245456310025  0.26541258888391134  1.0000
  S   S4        1.0  0.2654125705192721  0.7345874681861725  0.7345873228393891  1.0000
  S   S5        1.0  0.2654126048830862  0.7345874828954372  0.26541247883698044  1.0000
  S   S6        1.0  0.7345875223910928  0.2654123690779929  0.7345874087555345  1.0000
