data_image0
_chemical_formula_structural       Cd2ScSe6
_chemical_formula_sum              "Cd2 Sc1 Se6"
_cell_length_a       6.997499755901915
_cell_length_b       6.997499793647327
_cell_length_c       6.99749962699583
_cell_angle_alpha    60.000001017065586
_cell_angle_beta     60.00000142009779
_cell_angle_gamma    59.99999932477938

_space_group_name_H-M_alt    "P 1"
_space_group_IT_number       1

loop_
  _space_group_symop_operation_xyz
  'x, y, z'

loop_
  _atom_site_type_symbol
  _atom_site_label
  _atom_site_symmetry_multiplicity
  _atom_site_fract_x
  _atom_site_fract_y
  _atom_site_fract_z
  _atom_site_occupancy
  Cd  Cd1       1.0  0.24999995369015263  0.2500000443446767  0.2499999767240944  1.0000
  Cd  Cd2       1.0  0.7499999849356259  0.74999995450744  0.7500000361024985  1.0000
  Sc  Sc1       1.0  0.9999999854316673  1.4002085645824455e-08  0.9999998702366714  1.0000
  Se  Se1       1.0  0.2659038062741849  0.26590379614222054  0.7340961827329125  1.0000
  Se  Se2       1.0  0.7340962148768477  0.7340961729554633  0.2659037965628611  1.0000
  Se  Se3       1.0  0.7340962704123201  0.26590374098141095  0.26590380571893746  1.0000
  Se  Se4       1.0  0.26590373977100273  0.7340962263660123  0.7340962971205364  1.0000
  Se  Se5       1.0  0.26590376614284134  0.7340962545877597  0.2659038047093824  1.0000
  Se  Se6       1.0  0.7340962781590291  0.2659037985224357  0.7340962267567767  1.0000
