data_image0
_chemical_formula_structural       Cd2ScTe6
_chemical_formula_sum              "Cd2 Sc1 Te6"
_cell_length_a       7.476333639526594
_cell_length_b       7.47633374194833
_cell_length_c       7.476333921833549
_cell_angle_alpha    59.999998617406334
_cell_angle_beta     59.99999716026589
_cell_angle_gamma    59.999997806999474

_space_group_name_H-M_alt    "P 1"
_space_group_IT_number       1

loop_
  _space_group_symop_operation_xyz
  'x, y, z'

loop_
  _atom_site_type_symbol
  _atom_site_label
  _atom_site_symmetry_multiplicity
  _atom_site_fract_x
  _atom_site_fract_y
  _atom_site_fract_z
  _atom_site_occupancy
  Cd  Cd1       1.0  0.2500000317355886  0.25000004830534406  0.24999994370516024  1.0000
  Cd  Cd2       1.0  0.7500000151324563  0.7499998893626975  0.7499999868913193  1.0000
  Sc  Sc1       1.0  0.9999999883188556  0.99999977557175  5.251455453944907e-08  1.0000
  Te  Te1       1.0  0.27208609608431805  0.2720863823343787  0.7279137814817368  1.0000
  Te  Te2       1.0  0.7279139689077575  0.7279137928672119  0.2720861644042248  1.0000
  Te  Te3       1.0  0.7279137987468368  0.27208620398813943  0.27208618096609244  1.0000
  Te  Te4       1.0  0.2720862001942765  0.7279138172261853  0.727913890989632  1.0000
  Te  Te5       1.0  0.2720860859651595  0.7279139223603389  0.27208613481502303  1.0000
  Te  Te6       1.0  0.7279138096353244  0.27208617257129597  0.7279138797244485  1.0000
