data_image0
_chemical_formula_structural       Cd2ScO6
_chemical_formula_sum              "Cd2 Sc1 O6"
_cell_length_a       5.287559820209255
_cell_length_b       5.287560268907747
_cell_length_c       5.287559750028785
_cell_angle_alpha    60.00000066493191
_cell_angle_beta     60.00000236176396
_cell_angle_gamma    60.00000273836215

_space_group_name_H-M_alt    "P 1"
_space_group_IT_number       1

loop_
  _space_group_symop_operation_xyz
  'x, y, z'

loop_
  _atom_site_type_symbol
  _atom_site_label
  _atom_site_symmetry_multiplicity
  _atom_site_fract_x
  _atom_site_fract_y
  _atom_site_fract_z
  _atom_site_occupancy
  Cd  Cd1       1.0  0.24999983048770555  0.24999994660743924  0.25000007143521985  1.0000
  Cd  Cd2       1.0  0.7500000805797055  0.7500000575522556  0.7499998695105797  1.0000
  Sc  Sc1       1.0  0.9999999878471814  0.9999999119815131  1.0682260186007503e-07  1.0000
  O   O1        1.0  0.2708335928485434  0.2708332714893265  0.7291666043023348  1.0000
  O   O2        1.0  0.7291666589607956  0.7291666145402937  0.2708333690711458  1.0000
  O   O3        1.0  0.729166649390077  0.2708334636923479  0.2708333563702048  1.0000
  O   O4        1.0  0.270833327785685  0.7291666238532782  0.729166568456632  1.0000
  O   O5        1.0  0.2708332914871485  0.7291666405948518  0.27083351448357595  1.0000
  O   O6        1.0  0.7291666435566787  0.2708334423182198  0.7291664999186104  1.0000
