data_image0
_chemical_formula_structural       Cd2TiS6
_chemical_formula_sum              "Cd2 Ti1 S6"
_cell_length_a       6.444926498817336
_cell_length_b       6.444926393023439
_cell_length_c       6.444926697410919
_cell_angle_alpha    59.99999903794317
_cell_angle_beta     59.99999892696726
_cell_angle_gamma    60.00000198895844

_space_group_name_H-M_alt    "P 1"
_space_group_IT_number       1

loop_
  _space_group_symop_operation_xyz
  'x, y, z'

loop_
  _atom_site_type_symbol
  _atom_site_label
  _atom_site_symmetry_multiplicity
  _atom_site_fract_x
  _atom_site_fract_y
  _atom_site_fract_z
  _atom_site_occupancy
  Cd  Cd1       1.0  0.2500000830888782  0.2500000706319456  0.24999991351183323  1.0000
  Cd  Cd2       1.0  0.7500000437215837  0.7499999040433305  0.7499998560379467  1.0000
  Ti  Ti1       1.0  2.307399236365877e-08  1.140194533788144e-08  9.139367658159868e-09  1.0000
  S   S1        1.0  0.25566164337332736  0.25566162239477497  0.74433839805425  1.0000
  S   S2        1.0  0.744338346095443  0.7443383826856834  0.2556616732210692  1.0000
  S   S3        1.0  0.7443382621306104  0.25566166916593963  0.2556617531240925  1.0000
  S   S4        1.0  0.25566164240747774  0.7443383112103029  0.7443383388332991  1.0000
  S   S5        1.0  0.2556616177896572  0.7443382944835144  0.2556617122963773  1.0000
  S   S6        1.0  0.7443383539614031  0.2556617315005079  0.7443383232506385  1.0000
