data_image0
_chemical_formula_structural       Cd2TiO6
_chemical_formula_sum              "Cd2 Ti1 O6"
_cell_length_a       5.3762331560768715
_cell_length_b       5.376233451829919
_cell_length_c       5.376233848204684
_cell_angle_alpha    60.00000413530671
_cell_angle_beta     60.00000303934484
_cell_angle_gamma    60.000005579711114

_space_group_name_H-M_alt    "P 1"
_space_group_IT_number       1

loop_
  _space_group_symop_operation_xyz
  'x, y, z'

loop_
  _atom_site_type_symbol
  _atom_site_label
  _atom_site_symmetry_multiplicity
  _atom_site_fract_x
  _atom_site_fract_y
  _atom_site_fract_z
  _atom_site_occupancy
  Cd  Cd1       1.0  0.24999999902722986  0.2500000404845109  0.25000000941086076  1.0000
  Cd  Cd2       1.0  0.7499999436290401  0.7499999209831686  0.7499999691902623  1.0000
  Ti  Ti1       1.0  0.9999997404153602  3.5993539565485833e-07  0.9999998028816126  1.0000
  O   O1        1.0  0.24990736810261766  0.24990730541285466  0.7500926711758091  1.0000
  O   O2        1.0  0.7500926893207326  0.7500925694880932  0.24990749234922252  1.0000
  O   O3        1.0  0.750092579796616  0.2499071255861037  0.24990735056767566  1.0000
  O   O4        1.0  0.24990724002258055  0.7500928951114543  0.7500927435387573  1.0000
  O   O5        1.0  0.24990752948691394  0.7500925800348276  0.24990707694072445  1.0000
  O   O6        1.0  0.750092824375771  0.2499072174116671  0.7500928654895905  1.0000
