data_image0
_chemical_formula_structural       Cd2TiSe6
_chemical_formula_sum              "Cd2 Ti1 Se6"
_cell_length_a       6.852142729094733
_cell_length_b       6.8521424187466895
_cell_length_c       6.852142764022257
_cell_angle_alpha    59.99999906295078
_cell_angle_beta     59.99999784920498
_cell_angle_gamma    59.99999970182856

_space_group_name_H-M_alt    "P 1"
_space_group_IT_number       1

loop_
  _space_group_symop_operation_xyz
  'x, y, z'

loop_
  _atom_site_type_symbol
  _atom_site_label
  _atom_site_symmetry_multiplicity
  _atom_site_fract_x
  _atom_site_fract_y
  _atom_site_fract_z
  _atom_site_occupancy
  Cd  Cd1       1.0  0.25000003655025527  0.24999994501244163  0.25000001823415946  1.0000
  Cd  Cd2       1.0  0.7499999913793907  0.750000028075412  0.7500000465070751  1.0000
  Ti  Ti1       1.0  0.9999999929877408  0.9999999553152575  4.044247571986818e-08  1.0000
  Se  Se1       1.0  0.25486458429420755  0.2548645378110937  0.7451354622172875  1.0000
  Se  Se2       1.0  0.7451354063573179  0.7451354460010968  0.2548645720189143  1.0000
  Se  Se3       1.0  0.7451354651162913  0.2548645732225024  0.2548645277727134  1.0000
  Se  Se4       1.0  0.25486460463586813  0.7451354159518571  0.7451353868840185  1.0000
  Se  Se5       1.0  0.2548645631463477  0.7451354636325243  0.2548645494388119  1.0000
  Se  Se6       1.0  0.745135350615357  0.25486463457260533  0.7451354047511376  1.0000
