data_image0
_chemical_formula_structural       Cd2TiTe6
_chemical_formula_sum              "Cd2 Ti1 Te6"
_cell_length_a       7.297168483815839
_cell_length_b       7.297168482258006
_cell_length_c       7.297168494620748
_cell_angle_alpha    59.99999809914454
_cell_angle_beta     59.999996989918095
_cell_angle_gamma    60.00000051495628

_space_group_name_H-M_alt    "P 1"
_space_group_IT_number       1

loop_
  _space_group_symop_operation_xyz
  'x, y, z'

loop_
  _atom_site_type_symbol
  _atom_site_label
  _atom_site_symmetry_multiplicity
  _atom_site_fract_x
  _atom_site_fract_y
  _atom_site_fract_z
  _atom_site_occupancy
  Cd  Cd1       1.0  0.2500000096799405  0.25000001689293927  0.24999996840921507  1.0000
  Cd  Cd2       1.0  0.7499999745034055  0.750000033894978  0.7500000820384143  1.0000
  Ti  Ti1       1.0  1.4559638596856664e-08  9.398948918212948e-08  0.9999999361326726  1.0000
  Te  Te1       1.0  0.26418334907063096  0.26418332495451713  0.735816634943756  1.0000
  Te  Te2       1.0  0.7358166478871613  0.7358165261057389  0.26418330479169405  1.0000
  Te  Te3       1.0  0.7358165756813678  0.26418343512973813  0.26418337025234767  1.0000
  Te  Te4       1.0  0.2641834350681528  0.7358165502012148  0.7358166503064726  1.0000
  Te  Te5       1.0  0.2641834483305358  0.7358166001037343  0.2641833992722517  1.0000
  Te  Te6       1.0  0.7358165507662866  0.26418341543812535  0.7358166517489066  1.0000
