data_image0
_chemical_formula_structural       Cd2VS6
_chemical_formula_sum              "Cd2 V1 S6"
_cell_length_a       6.441830179389999
_cell_length_b       6.441830468918919
_cell_length_c       6.441830489037687
_cell_angle_alpha    60.000001761875694
_cell_angle_beta     60.00000098386256
_cell_angle_gamma    60.000002702210395

_space_group_name_H-M_alt    "P 1"
_space_group_IT_number       1

loop_
  _space_group_symop_operation_xyz
  'x, y, z'

loop_
  _atom_site_type_symbol
  _atom_site_label
  _atom_site_symmetry_multiplicity
  _atom_site_fract_x
  _atom_site_fract_y
  _atom_site_fract_z
  _atom_site_occupancy
  Cd  Cd1       1.0  0.2500000677064739  0.25000001880161  0.2499999287275284  1.0000
  Cd  Cd2       1.0  0.749999962796522  0.7500000944295738  0.7499999199310886  1.0000
  V   V1        1.0  5.864627002772599e-08  0.9999999638764926  5.2385124863081226e-08  1.0000
  S   S1        1.0  0.24733749502779184  0.2473374367049919  0.7526625487902743  1.0000
  S   S2        1.0  0.7526624882209022  0.7526625225259717  0.24733752934096573  1.0000
  S   S3        1.0  0.7526624661671457  0.24733745616656136  0.24733753940359166  1.0000
  S   S4        1.0  0.24733753399387037  0.7526624308173843  0.7526625198243819  1.0000
  S   S5        1.0  0.24733743828949392  0.7526625334181433  0.24733752598106373  1.0000
  S   S6        1.0  0.7526624660330653  0.2473375227759205  0.7526624360192816  1.0000
