data_image0
_chemical_formula_structural       Cd2VTe6
_chemical_formula_sum              "Cd2 V1 Te6"
_cell_length_a       7.174589045550185
_cell_length_b       7.174589395893748
_cell_length_c       7.1745899866583995
_cell_angle_alpha    59.999998000037365
_cell_angle_beta     60.00000017241274
_cell_angle_gamma    59.999998490716386

_space_group_name_H-M_alt    "P 1"
_space_group_IT_number       1

loop_
  _space_group_symop_operation_xyz
  'x, y, z'

loop_
  _atom_site_type_symbol
  _atom_site_label
  _atom_site_symmetry_multiplicity
  _atom_site_fract_x
  _atom_site_fract_y
  _atom_site_fract_z
  _atom_site_occupancy
  Cd  Cd1       1.0  0.25000016226447336  0.24999989859424931  0.25000003614441657  1.0000
  Cd  Cd2       1.0  0.7499999408029409  0.7499998852663315  0.7500000762216914  1.0000
  V   V1        1.0  2.368394459963672e-08  1.3656473792190765e-07  0.9999998473976509  1.0000
  Te  Te1       1.0  0.26389912318810393  0.2638992856665688  0.736100991856486  1.0000
  Te  Te2       1.0  0.7361005612262815  0.7361008464340965  0.2638994860485474  1.0000
  Te  Te3       1.0  0.7361007217467136  0.2638991849553818  0.2638991489835185  1.0000
  Te  Te4       1.0  0.2638991206010049  0.736101076881787  0.7361005787801783  1.0000
  Te  Te5       1.0  0.2638992926843935  0.7361007328169891  0.26389899383220927  1.0000
  Te  Te6       1.0  0.7361010398343574  0.2638989469129777  0.7361008509837876  1.0000
