data_image0
_chemical_formula_structural       Cd2VO6
_chemical_formula_sum              "Cd2 V1 O6"
_cell_length_a       5.348487835735529
_cell_length_b       5.34849004323749
_cell_length_c       5.348489137813124
_cell_angle_alpha    60.00000453688068
_cell_angle_beta     60.00000272144868
_cell_angle_gamma    60.000003157559725

_space_group_name_H-M_alt    "P 1"
_space_group_IT_number       1

loop_
  _space_group_symop_operation_xyz
  'x, y, z'

loop_
  _atom_site_type_symbol
  _atom_site_label
  _atom_site_symmetry_multiplicity
  _atom_site_fract_x
  _atom_site_fract_y
  _atom_site_fract_z
  _atom_site_occupancy
  Cd  Cd1       1.0  0.25000003261336473  0.24999999197689068  0.24999995203720504  1.0000
  Cd  Cd2       1.0  0.7500000401813497  0.7499999805104534  0.7499998957389002  1.0000
  V   V1        1.0  9.462243260103636e-08  0.9999999816808934  0.9999997487040398  1.0000
  O   O1        1.0  0.24704779559176956  0.24704756629765443  0.7529523076813129  1.0000
  O   O2        1.0  0.7529519490008406  0.7529524840459216  0.24704791393605693  1.0000
  O   O3        1.0  0.7529525388303004  0.24704754299201434  0.24704748865467432  1.0000
  O   O4        1.0  0.24704756985797208  0.7529525096414399  0.7529522524897403  1.0000
  O   O5        1.0  0.2470474928620036  0.752952472218941  0.24704778408813993  1.0000
  O   O6        1.0  0.7529525905104206  0.2470474361514914  0.7529525186158645  1.0000
