data_image0
_chemical_formula_structural       Cd2YO6
_chemical_formula_sum              "Cd2 Y1 O6"
_cell_length_a       5.561606266215672
_cell_length_b       5.5616065448380985
_cell_length_c       5.561606417020179
_cell_angle_alpha    59.99999978535332
_cell_angle_beta     59.99999972399511
_cell_angle_gamma    60.000000775889355

_space_group_name_H-M_alt    "P 1"
_space_group_IT_number       1

loop_
  _space_group_symop_operation_xyz
  'x, y, z'

loop_
  _atom_site_type_symbol
  _atom_site_label
  _atom_site_symmetry_multiplicity
  _atom_site_fract_x
  _atom_site_fract_y
  _atom_site_fract_z
  _atom_site_occupancy
  Cd  Cd1       1.0  0.24999996900122584  0.2500000514464048  0.24999998577928592  1.0000
  Cd  Cd2       1.0  0.7499999961148114  0.7500000178063956  0.7500000098173681  1.0000
  Y   Y1        1.0  0.999999957889508  0.9999999581592978  2.759126403468698e-08  1.0000
  O   O1        1.0  0.28080993014304084  0.2808099260876536  0.7191900734673604  1.0000
  O   O2        1.0  0.7191900705418843  0.7191900925158755  0.2808099152851526  1.0000
  O   O3        1.0  0.7191900903046491  0.2808099559500621  0.2808099392559644  1.0000
  O   O4        1.0  0.2808099563085548  0.7191900494406138  0.7191900187545028  1.0000
  O   O5        1.0  0.2808099849744463  0.7191900112712133  0.28080997515571415  1.0000
  O   O6        1.0  0.7191900391999962  0.280809936863764  0.719190067653025  1.0000
