data_image0
_chemical_formula_structural       Cd2YS6
_chemical_formula_sum              "Cd2 Y1 S6"
_cell_length_a       6.850816908856265
_cell_length_b       6.850816856961309
_cell_length_c       6.850816910122468
_cell_angle_alpha    59.99999814038958
_cell_angle_beta     59.99999804782686
_cell_angle_gamma    59.99999952290759

_space_group_name_H-M_alt    "P 1"
_space_group_IT_number       1

loop_
  _space_group_symop_operation_xyz
  'x, y, z'

loop_
  _atom_site_type_symbol
  _atom_site_label
  _atom_site_symmetry_multiplicity
  _atom_site_fract_x
  _atom_site_fract_y
  _atom_site_fract_z
  _atom_site_occupancy
  Cd  Cd1       1.0  0.24999999939052503  0.24999997704379312  0.2500000014193594  1.0000
  Cd  Cd2       1.0  0.7499999834607225  0.7499999954898598  0.7499999458616251  1.0000
  Y   Y1        1.0  2.724254489373413e-08  0.9999998677075698  0.9999999605651078  1.0000
  S   S1        1.0  0.2725683955961373  0.2725683956350868  0.7274315634832138  1.0000
  S   S2        1.0  0.727431625048648  0.7274317163419394  0.27256836524395006  1.0000
  S   S3        1.0  0.7274315995478459  0.27256840811665584  0.27256842611147586  1.0000
  S   S4        1.0  0.27256840211546746  0.7274316091103842  0.7274316835542132  1.0000
  S   S5        1.0  0.2725683598351781  0.7274315907902583  0.27256845143156216  1.0000
  S   S6        1.0  0.7274316066197212  0.27256844610187314  0.7274315988605115  1.0000
