data_image0
_chemical_formula_structural       Cd2ZnO6
_chemical_formula_sum              "Cd2 Zn1 O6"
_cell_length_a       5.259534228445222
_cell_length_b       5.259534251610696
_cell_length_c       5.259534578462373
_cell_angle_alpha    59.99999970525397
_cell_angle_beta     59.99999949733095
_cell_angle_gamma    59.999999733403534

_space_group_name_H-M_alt    "P 1"
_space_group_IT_number       1

loop_
  _space_group_symop_operation_xyz
  'x, y, z'

loop_
  _atom_site_type_symbol
  _atom_site_label
  _atom_site_symmetry_multiplicity
  _atom_site_fract_x
  _atom_site_fract_y
  _atom_site_fract_z
  _atom_site_occupancy
  Cd  Cd1       1.0  0.25000002341800714  0.25000009712451104  0.2499998836684618  1.0000
  Cd  Cd2       1.0  0.7500000020660456  0.7500000678261578  0.7499998272939999  1.0000
  Zn  Zn1       1.0  0.9999999935696978  0.9999999534276305  5.502096892991927e-08  1.0000
  O   O1        1.0  0.2616835213264169  0.26168345119637737  0.7383164980574723  1.0000
  O   O2        1.0  0.7383165240308691  0.7383165158217224  0.2616835491048142  1.0000
  O   O3        1.0  0.7383165092178039  0.26168341245426535  0.2616835452627398  1.0000
  O   O4        1.0  0.26168352795896344  0.7383164078608692  0.7383165831439047  1.0000
  O   O5        1.0  0.26168347901700995  0.7383165038646884  0.26168353199384714  1.0000
  O   O6        1.0  0.7383164351882027  0.2616835865701917  0.7383165076282323  1.0000
