data_image0
_chemical_formula_structural       Cd2ZnS6
_chemical_formula_sum              "Cd2 Zn1 S6"
_cell_length_a       6.404885215068612
_cell_length_b       6.404884302378434
_cell_length_c       6.404885136106909
_cell_angle_alpha    59.99999935900127
_cell_angle_beta     60.00000025482265
_cell_angle_gamma    59.99999801544841

_space_group_name_H-M_alt    "P 1"
_space_group_IT_number       1

loop_
  _space_group_symop_operation_xyz
  'x, y, z'

loop_
  _atom_site_type_symbol
  _atom_site_label
  _atom_site_symmetry_multiplicity
  _atom_site_fract_x
  _atom_site_fract_y
  _atom_site_fract_z
  _atom_site_occupancy
  Cd  Cd1       1.0  0.2499999400821078  0.24999995721458518  0.25000003331015336  1.0000
  Cd  Cd2       1.0  0.7500000323599845  0.7500000303567367  0.7499999363754586  1.0000
  Zn  Zn1       1.0  0.9999999920418651  7.648814185286371e-09  0.9999999049148574  1.0000
  S   S1        1.0  0.26079760642874883  0.2607976946201281  0.7392024272643749  1.0000
  S   S2        1.0  0.7392023707844684  0.7392022948634083  0.2607977732758047  1.0000
  S   S3        1.0  0.7392023046262951  0.2607976612999938  0.2607976546591623  1.0000
  S   S4        1.0  0.2607976349990008  0.7392024084961274  0.7392023683878629  1.0000
  S   S5        1.0  0.2607977060099848  0.7392023328890854  0.2607975398597627  1.0000
  S   S6        1.0  0.739202410478391  0.260797601140509  0.7392023658378706  1.0000
