data_image0
_chemical_formula_structural       Cl2CoO6
_chemical_formula_sum              "Cl2 Co1 O6"
_cell_length_a       5.780895449113858
_cell_length_b       5.780895685745007
_cell_length_c       5.780895085351518
_cell_angle_alpha    60.000005851316935
_cell_angle_beta     60.00000412812074
_cell_angle_gamma    59.99999593058824

_space_group_name_H-M_alt    "P 1"
_space_group_IT_number       1

loop_
  _space_group_symop_operation_xyz
  'x, y, z'

loop_
  _atom_site_type_symbol
  _atom_site_label
  _atom_site_symmetry_multiplicity
  _atom_site_fract_x
  _atom_site_fract_y
  _atom_site_fract_z
  _atom_site_occupancy
  Cl  Cl1       1.0  0.25000003104504936  0.2500000536262512  0.24999979437868095  1.0000
  Cl  Cl2       1.0  0.7500001176378758  0.7499996439385637  0.750000354156018  1.0000
  Co  Co1       1.0  7.336190983523753e-08  0.9999999237301246  0.9999998665267804  1.0000
  O   O1        1.0  0.2223749520539733  0.22237546811244763  0.7776248501153155  1.0000
  O   O2        1.0  0.7776247351710247  0.7776247209693208  0.2223751155957872  1.0000
  O   O3        1.0  0.7776248302786519  0.22237544393202496  0.22237485869441134  1.0000
  O   O4        1.0  0.222375062741699  0.7776248468428801  0.7776250311150681  1.0000
  O   O5        1.0  0.22237526012123368  0.777624759661437  0.222375101626577  1.0000
  O   O6        1.0  0.7776248761683764  0.22237523874562887  0.7776249563085728  1.0000
