data_image0
_chemical_formula_structural       Cl2CO6
_chemical_formula_sum              "Cl2 C1 O6"
_cell_length_a       6.104434696896778
_cell_length_b       6.104432072823368
_cell_length_c       6.10443071307688
_cell_angle_alpha    59.99998445003304
_cell_angle_beta     59.99998602893856
_cell_angle_gamma    59.999971000951426

_space_group_name_H-M_alt    "P 1"
_space_group_IT_number       1

loop_
  _space_group_symop_operation_xyz
  'x, y, z'

loop_
  _atom_site_type_symbol
  _atom_site_label
  _atom_site_symmetry_multiplicity
  _atom_site_fract_x
  _atom_site_fract_y
  _atom_site_fract_z
  _atom_site_occupancy
  Cl  Cl1       1.0  0.2500001042235642  0.24999954899755836  0.24999997337189694  1.0000
  Cl  Cl2       1.0  0.750000043147666  0.749999852791702  0.7500001498313263  1.0000
  C   C1        1.0  0.9999999623074478  0.9999986036004771  1.5515933217297327e-07  1.0000
  O   O1        1.0  0.17015745672538474  0.17015860440531227  0.8298421378152782  1.0000
  O   O2        1.0  0.8298418520734248  0.8298414574637046  0.17015847925852343  1.0000
  O   O3        1.0  0.829842454945945  0.1701579276580396  0.170158105354445  1.0000
  O   O4        1.0  0.17015889956219868  0.8298422846848801  0.8298407649180218  1.0000
  O   O5        1.0  0.17015874053425417  0.8298421146384201  0.1701577060265143  1.0000
  O   O6        1.0  0.8298418077645193  0.17015897847954606  0.8298418870668179  1.0000
