data_image0
_chemical_formula_structural       Cl2HfO6
_chemical_formula_sum              "Cl2 Hf1 O6"
_cell_length_a       5.608682908242064
_cell_length_b       5.608682793466594
_cell_length_c       5.608682858920713
_cell_angle_alpha    60.00000018254884
_cell_angle_beta     59.999999785815106
_cell_angle_gamma    59.9999993465518

_space_group_name_H-M_alt    "P 1"
_space_group_IT_number       1

loop_
  _space_group_symop_operation_xyz
  'x, y, z'

loop_
  _atom_site_type_symbol
  _atom_site_label
  _atom_site_symmetry_multiplicity
  _atom_site_fract_x
  _atom_site_fract_y
  _atom_site_fract_z
  _atom_site_occupancy
  Cl  Cl1       1.0  0.25000001893531965  0.2499999945583255  0.25000002734544113  1.0000
  Cl  Cl2       1.0  0.749999996373654  0.7499999858586346  0.7499999792223614  1.0000
  Hf  Hf1       1.0  4.6456153961036265e-08  8.297902928963174e-08  0.9999999994686015  1.0000
  O   O1        1.0  0.27251141482606905  0.27251136411874766  0.7274885841065832  1.0000
  O   O2        1.0  0.7274885867387756  0.7274885092989385  0.2725115113601172  1.0000
  O   O3        1.0  0.7274886036849049  0.2725114039801905  0.2725113504333898  1.0000
  O   O4        1.0  0.27251140987567096  0.7274886681504327  0.7274885558803367  1.0000
  O   O5        1.0  0.27251128101178  0.7274885922886859  0.27251141952457153  1.0000
  O   O6        1.0  0.7274886477038389  0.27251139467925  0.7274885753588765  1.0000
