data_image0
_chemical_formula_structural       Cl2MoO6
_chemical_formula_sum              "Cl2 Mo1 O6"
_cell_length_a       5.853114055438322
_cell_length_b       5.85311429680738
_cell_length_c       5.8531139466213515
_cell_angle_alpha    60.000001881141365
_cell_angle_beta     60.00000259956396
_cell_angle_gamma    60.000000998075215

_space_group_name_H-M_alt    "P 1"
_space_group_IT_number       1

loop_
  _space_group_symop_operation_xyz
  'x, y, z'

loop_
  _atom_site_type_symbol
  _atom_site_label
  _atom_site_symmetry_multiplicity
  _atom_site_fract_x
  _atom_site_fract_y
  _atom_site_fract_z
  _atom_site_occupancy
  Cl  Cl1       1.0  0.2499999050109508  0.25000014006328825  0.2499999650852822  1.0000
  Cl  Cl2       1.0  0.7499999227238464  0.7499998740559769  0.750000040558405  1.0000
  Mo  Mo1       1.0  0.9999998070999985  2.5318850917093993e-07  0.9999999032245441  1.0000
  O   O1        1.0  0.23539759060540916  0.23539766460070086  0.7646023797474304  1.0000
  O   O2        1.0  0.7646024163975559  0.7646021904910699  0.2353977012005371  1.0000
  O   O3        1.0  0.7646024412589326  0.23539765634790139  0.23539752851295115  1.0000
  O   O4        1.0  0.2353976721929321  0.7646023410316249  0.7646022862618307  1.0000
  O   O5        1.0  0.23539761671017437  0.7646023100161277  0.2353977098421406  1.0000
  O   O6        1.0  0.7646025305596503  0.2353976036647152  0.7646025006158287  1.0000
