data_image0
_chemical_formula_structural       Cl2NiO6
_chemical_formula_sum              "Cl2 Ni1 O6"
_cell_length_a       5.730451860646575
_cell_length_b       5.730452307475645
_cell_length_c       5.730452557552107
_cell_angle_alpha    59.99999661335421
_cell_angle_beta     59.99999662153054
_cell_angle_gamma    59.99999955804919

_space_group_name_H-M_alt    "P 1"
_space_group_IT_number       1

loop_
  _space_group_symop_operation_xyz
  'x, y, z'

loop_
  _atom_site_type_symbol
  _atom_site_label
  _atom_site_symmetry_multiplicity
  _atom_site_fract_x
  _atom_site_fract_y
  _atom_site_fract_z
  _atom_site_occupancy
  Cl  Cl1       1.0  0.25000008358950065  0.24999964454937426  0.25000033262788024  1.0000
  Cl  Cl2       1.0  0.7499998608098851  0.7500001518845911  0.7500000776764622  1.0000
  Ni  Ni1       1.0  0.9999999310002122  2.564708249468371e-08  3.9126980666293524e-08  1.0000
  O   O1        1.0  0.22590830684463056  0.22590773668196507  0.7740920322888836  1.0000
  O   O2        1.0  0.7740918281684812  0.7740920319676646  0.22590815874079792  1.0000
  O   O3        1.0  0.774091639795741  0.2259081057071053  0.22590824546767002  1.0000
  O   O4        1.0  0.2259081711332365  0.7740923148058995  0.7740914134641139  1.0000
  O   O5        1.0  0.2259082922744695  0.7740919648820482  0.22590794401961825  1.0000
  O   O6        1.0  0.7740918620506493  0.2259080239050556  0.7740917660573052  1.0000
