data_image0
_chemical_formula_structural       Cl2OsO6
_chemical_formula_sum              "Cl2 Os1 O6"
_cell_length_a       5.653371683226735
_cell_length_b       5.653371454674852
_cell_length_c       5.653371534137193
_cell_angle_alpha    60.00000016224771
_cell_angle_beta     59.99999949371777
_cell_angle_gamma    59.999998644975705

_space_group_name_H-M_alt    "P 1"
_space_group_IT_number       1

loop_
  _space_group_symop_operation_xyz
  'x, y, z'

loop_
  _atom_site_type_symbol
  _atom_site_label
  _atom_site_symmetry_multiplicity
  _atom_site_fract_x
  _atom_site_fract_y
  _atom_site_fract_z
  _atom_site_occupancy
  Cl  Cl1       1.0  0.24999998828616293  0.25000001940774896  0.24999999171409232  1.0000
  Cl  Cl2       1.0  0.750000001768625  0.7500000148953008  0.7500000278791484  1.0000
  Os  Os1       1.0  3.61667476047852e-08  0.9999999956672042  0.9999999115599288  1.0000
  O   O1        1.0  0.230787757896897  0.23078774051941645  0.7692122257542501  1.0000
  O   O2        1.0  0.7692122461049479  0.7692122764524534  0.23078769824397338  1.0000
  O   O3        1.0  0.7692122613103829  0.23078773953251985  0.2307878092825919  1.0000
  O   O4        1.0  0.23078773848256356  0.7692122839385436  0.7692122409281141  1.0000
  O   O5        1.0  0.2307877450797602  0.7692122253117413  0.23078780259987813  1.0000
  O   O6        1.0  0.7692122238916814  0.23078770067144244  0.7692122675441208  1.0000
