data_image0
_chemical_formula_structural       Cl2PdO6
_chemical_formula_sum              "Cl2 Pd1 O6"
_cell_length_a       2.239732043099025
_cell_length_b       2.552223507680042
_cell_length_c       3.3645409266475337
_cell_angle_alpha    65.5789222010742
_cell_angle_beta     67.77773758551173
_cell_angle_gamma    82.30560234103933

_space_group_name_H-M_alt    "P 1"
_space_group_IT_number       1

loop_
  _space_group_symop_operation_xyz
  'x, y, z'

loop_
  _atom_site_type_symbol
  _atom_site_label
  _atom_site_symmetry_multiplicity
  _atom_site_fract_x
  _atom_site_fract_y
  _atom_site_fract_z
  _atom_site_occupancy
  Cl  Cl1       1.0  0.5418486940568483  0.5459064246972183  0.646127178218205  1.0000
  Cl  Cl2       1.0  0.05681904512061453  0.9517899482001279  0.1881923818944491  1.0000
  Pd  Pd1       1.0  0.8373549720844221  0.29256081869877315  0.4076914832048568  1.0000
  O   O1        1.0  0.2292761318935565  0.16825970832739015  0.40519005391125257  1.0000
  O   O2        1.0  0.9212017925906895  0.4100686964667899  0.4253228299282601  1.0000
  O   O3        1.0  0.6233382738819558  0.1973483233880443  0.4751629349078493  1.0000
  O   O4        1.0  0.14740430857726738  0.19961867656818058  0.012403679274423984  1.0000
  O   O5        1.0  0.8722674086760575  0.8469670076599682  0.5902451445371371  1.0000
  O   O6        1.0  0.7572024182692358  0.3511161991002961  0.3960433650814883  1.0000
