data_image0
_chemical_formula_structural       Cl2PO6
_chemical_formula_sum              "Cl2 P1 O6"
_cell_length_a       5.833317773505122
_cell_length_b       5.833318019330302
_cell_length_c       5.833317912669102
_cell_angle_alpha    59.999997920652085
_cell_angle_beta     59.99999964983002
_cell_angle_gamma    59.99999813075604

_space_group_name_H-M_alt    "P 1"
_space_group_IT_number       1

loop_
  _space_group_symop_operation_xyz
  'x, y, z'

loop_
  _atom_site_type_symbol
  _atom_site_label
  _atom_site_symmetry_multiplicity
  _atom_site_fract_x
  _atom_site_fract_y
  _atom_site_fract_z
  _atom_site_occupancy
  Cl  Cl1       1.0  0.2500000077387699  0.24999996789360476  0.25000003257021536  1.0000
  Cl  Cl2       1.0  0.7500000164372987  0.7499999477717474  0.7500000499117498  1.0000
  P   P1        1.0  0.9999994326986764  4.073162357317422e-07  2.0685001196941252e-07  1.0000
  O   O1        1.0  0.20205394165073778  0.20205379337072712  0.7979460943174321  1.0000
  O   O2        1.0  0.7979462347678619  0.797946027814057  0.20205385471184903  1.0000
  O   O3        1.0  0.7979463291813124  0.20205378041560068  0.2020537733734897  1.0000
  O   O4        1.0  0.2020538716086394  0.7979461814402499  0.7979461685633502  1.0000
  O   O5        1.0  0.20205382546893713  0.7979461753662473  0.20205375197466935  1.0000
  O   O6        1.0  0.7979463224957154  0.20205371930342378  0.7979461865391719  1.0000
