data_image0
_chemical_formula_structural       Cl2RhO6
_chemical_formula_sum              "Cl2 Rh1 O6"
_cell_length_a       5.68435636322375
_cell_length_b       5.68435673387388
_cell_length_c       5.6843577247772
_cell_angle_alpha    59.99998579056979
_cell_angle_beta     59.99998918700733
_cell_angle_gamma    59.999999894093506

_space_group_name_H-M_alt    "P 1"
_space_group_IT_number       1

loop_
  _space_group_symop_operation_xyz
  'x, y, z'

loop_
  _atom_site_type_symbol
  _atom_site_label
  _atom_site_symmetry_multiplicity
  _atom_site_fract_x
  _atom_site_fract_y
  _atom_site_fract_z
  _atom_site_occupancy
  Cl  Cl1       1.0  0.24999975894520804  0.2500002872274706  0.25000002193230736  1.0000
  Cl  Cl2       1.0  0.7500002135421368  0.7499996055573782  0.7499999616241869  1.0000
  Rh  Rh1       1.0  0.9999996769102762  1.2130332572235637e-06  5.102812034619121e-07  1.0000
  O   O1        1.0  0.2402112583829649  0.24021132110268473  0.7597887398610603  1.0000
  O   O2        1.0  0.7597881099824246  0.7597889336529746  0.2402115635621448  1.0000
  O   O3        1.0  0.7597889685945866  0.24021086720631937  0.24021103508366173  1.0000
  O   O4        1.0  0.24021152344390215  0.7597881982165933  0.7597887452578882  1.0000
  O   O5        1.0  0.240211536849499  0.759788556842722  0.24021133644929546  1.0000
  O   O6        1.0  0.7597886281458315  0.2402113251691771  0.7597888359546559  1.0000
