data_image0
_chemical_formula_structural       Cl2RuO6
_chemical_formula_sum              "Cl2 Ru1 O6"
_cell_length_a       5.968754685721083
_cell_length_b       5.968755301625613
_cell_length_c       5.968754661481423
_cell_angle_alpha    59.99999974850696
_cell_angle_beta     60.00000102853815
_cell_angle_gamma    60.00000048233959

_space_group_name_H-M_alt    "P 1"
_space_group_IT_number       1

loop_
  _space_group_symop_operation_xyz
  'x, y, z'

loop_
  _atom_site_type_symbol
  _atom_site_label
  _atom_site_symmetry_multiplicity
  _atom_site_fract_x
  _atom_site_fract_y
  _atom_site_fract_z
  _atom_site_occupancy
  Cl  Cl1       1.0  0.2499999802448765  0.25000012114928116  0.24999997552249134  1.0000
  Cl  Cl2       1.0  0.7500001730884481  0.749999811479551  0.7499999473172455  1.0000
  Ru  Ru1       1.0  0.9999999963252864  5.745394670845346e-08  2.3372122630637455e-08  1.0000
  O   O1        1.0  0.21226235867350124  0.21226237492203556  0.7877375378226698  1.0000
  O   O2        1.0  0.7877377448670867  0.7877376664589192  0.21226226171545426  1.0000
  O   O3        1.0  0.7877377228816803  0.21226230613212754  0.21226227913905152  1.0000
  O   O4        1.0  0.21226233655600044  0.7877376470159729  0.7877376870904373  1.0000
  O   O5        1.0  0.21226217611694623  0.7877376716939457  0.21226246492990758  1.0000
  O   O6        1.0  0.7877375078555144  0.21226235737544089  0.7877378470923329  1.0000
