data_image0
_chemical_formula_structural       Cl2SeO6
_chemical_formula_sum              "Cl2 Se1 O6"
_cell_length_a       5.484144499914186
_cell_length_b       5.48414448945504
_cell_length_c       5.484144617155851
_cell_angle_alpha    59.999999733396834
_cell_angle_beta     59.999997864956626
_cell_angle_gamma    59.99999984283095

_space_group_name_H-M_alt    "P 1"
_space_group_IT_number       1

loop_
  _space_group_symop_operation_xyz
  'x, y, z'

loop_
  _atom_site_type_symbol
  _atom_site_label
  _atom_site_symmetry_multiplicity
  _atom_site_fract_x
  _atom_site_fract_y
  _atom_site_fract_z
  _atom_site_occupancy
  Cl  Cl1       1.0  0.24999997787121714  0.24999992905872392  0.2500001052216784  1.0000
  Cl  Cl2       1.0  0.7499999151491413  0.7500000194338478  0.7500000282480498  1.0000
  Se  Se1       1.0  0.9999997217131452  0.999999761042584  6.123691911013786e-07  1.0000
  O   O1        1.0  0.23914214788938318  0.23914219183923885  0.7608577615167919  1.0000
  O   O2        1.0  0.7608579428130796  0.7608579531790595  0.23914201620987674  1.0000
  O   O3        1.0  0.760857932494953  0.23914208612968674  0.23914208721161584  1.0000
  O   O4        1.0  0.23914224872694684  0.7608578757623657  0.7608577313481404  1.0000
  O   O5        1.0  0.23914224353179472  0.7608579012340263  0.23914205363804228  1.0000
  O   O6        1.0  0.7608578075050243  0.23914229961544378  0.7608576594792722  1.0000
