data_image0
_chemical_formula_structural       Cl2SiO6
_chemical_formula_sum              "Cl2 Si1 O6"
_cell_length_a       5.92408689610828
_cell_length_b       5.92408735161307
_cell_length_c       5.924086987206894
_cell_angle_alpha    59.99999595861818
_cell_angle_beta     59.99999611876115
_cell_angle_gamma    60.00000363244808

_space_group_name_H-M_alt    "P 1"
_space_group_IT_number       1

loop_
  _space_group_symop_operation_xyz
  'x, y, z'

loop_
  _atom_site_type_symbol
  _atom_site_label
  _atom_site_symmetry_multiplicity
  _atom_site_fract_x
  _atom_site_fract_y
  _atom_site_fract_z
  _atom_site_occupancy
  Cl  Cl1       1.0  0.25000038948330733  0.2499995640113178  0.2500000250484806  1.0000
  Cl  Cl2       1.0  0.7499997079491988  0.7500002901328654  0.7499997902792613  1.0000
  Si  Si1       1.0  0.9999999115377215  1.075047057051029e-07  1.2214464236007234e-07  1.0000
  O   O1        1.0  0.2063310624004394  0.2063308771271848  0.793668987277395  1.0000
  O   O2        1.0  0.7936689946502766  0.7936690162975674  0.2063308066566469  1.0000
  O   O3        1.0  0.7936688266704075  0.2063310986862088  0.20633102521354413  1.0000
  O   O4        1.0  0.2063309151597295  0.7936692433639573  0.7936691729767161  1.0000
  O   O5        1.0  0.20633110961733975  0.7936691233480729  0.20633088304047584  1.0000
  O   O6        1.0  0.7936691378803596  0.2063307659418747  0.7936691469021188  1.0000
