data_image0
_chemical_formula_structural       Cl2SnO6
_chemical_formula_sum              "Cl2 Sn1 O6"
_cell_length_a       5.932590502904064
_cell_length_b       5.93259036284023
_cell_length_c       5.93259043570697
_cell_angle_alpha    59.99999709688342
_cell_angle_beta     59.99999637016625
_cell_angle_gamma    59.99999514292818

_space_group_name_H-M_alt    "P 1"
_space_group_IT_number       1

loop_
  _space_group_symop_operation_xyz
  'x, y, z'

loop_
  _atom_site_type_symbol
  _atom_site_label
  _atom_site_symmetry_multiplicity
  _atom_site_fract_x
  _atom_site_fract_y
  _atom_site_fract_z
  _atom_site_occupancy
  Cl  Cl1       1.0  0.24999995095120708  0.25000002211115746  0.25000003188805675  1.0000
  Cl  Cl2       1.0  0.7500000360483731  0.7500000539468553  0.7500000170025148  1.0000
  Sn  Sn1       1.0  3.106781250381081e-09  0.99999997316234  4.38919216217417e-08  1.0000
  O   O1        1.0  0.24973573943123198  0.24973568316665448  0.750264221529278  1.0000
  O   O2        1.0  0.7502642864586854  0.7502642587030623  0.24973570307863485  1.0000
  O   O3        1.0  0.7502642585720847  0.24973569549714988  0.2497357253604492  1.0000
  O   O4        1.0  0.24973574407947766  0.7502642401792603  0.7502643016147192  1.0000
  O   O5        1.0  0.24973568330016896  0.7502642612234987  0.24973575606374276  1.0000
  O   O6        1.0  0.7502643406028593  0.24973575083701824  0.7502642524345149  1.0000
