data_image0
_chemical_formula_structural       Cl2SO6
_chemical_formula_sum              "Cl2 S1 O6"
_cell_length_a       5.799594735221235
_cell_length_b       5.799595687897086
_cell_length_c       5.79959485240973
_cell_angle_alpha    60.000005659185966
_cell_angle_beta     60.00000220019184
_cell_angle_gamma    60.000000733844

_space_group_name_H-M_alt    "P 1"
_space_group_IT_number       1

loop_
  _space_group_symop_operation_xyz
  'x, y, z'

loop_
  _atom_site_type_symbol
  _atom_site_label
  _atom_site_symmetry_multiplicity
  _atom_site_fract_x
  _atom_site_fract_y
  _atom_site_fract_z
  _atom_site_occupancy
  Cl  Cl1       1.0  0.25000001401185246  0.2500000828927624  0.2499999679318432  1.0000
  Cl  Cl2       1.0  0.7500000189475062  0.7500002761313788  0.7499997464297552  1.0000
  S   S1        1.0  0.9999999977088374  0.9999999113054011  3.169881308311401e-08  1.0000
  O   O1        1.0  0.19596699421693659  0.19596691997893903  0.8040330066764697  1.0000
  O   O2        1.0  0.8040328935271452  0.8040330145782012  0.1959669459712853  1.0000
  O   O3        1.0  0.8040330045527221  0.19596684859160843  0.19596711621057453  1.0000
  O   O4        1.0  0.1959669564996701  0.8040328959056723  0.8040330258565919  1.0000
  O   O5        1.0  0.19596722270939562  0.8040328329829938  0.19596690930261396  1.0000
  O   O6        1.0  0.8040329437542623  0.1959671374743248  0.8040329532813468  1.0000
