data_image0
_chemical_formula_structural       Cl2TaO6
_chemical_formula_sum              "Cl2 Ta1 O6"
_cell_length_a       5.879599161124085
_cell_length_b       5.879599230319672
_cell_length_c       5.8795990134969145
_cell_angle_alpha    59.9999968238119
_cell_angle_beta     59.999999613491106
_cell_angle_gamma    60.00000038493626

_space_group_name_H-M_alt    "P 1"
_space_group_IT_number       1

loop_
  _space_group_symop_operation_xyz
  'x, y, z'

loop_
  _atom_site_type_symbol
  _atom_site_label
  _atom_site_symmetry_multiplicity
  _atom_site_fract_x
  _atom_site_fract_y
  _atom_site_fract_z
  _atom_site_occupancy
  Cl  Cl1       1.0  0.2500000983318762  0.25000008786298156  0.24999994447251989  1.0000
  Cl  Cl2       1.0  0.750000103907682  0.7499998823923512  0.7500001161582516  1.0000
  Ta  Ta1       1.0  0.999999896586662  3.332866288105079e-08  2.7272084980925195e-09  1.0000
  O   O1        1.0  0.23944186254284666  0.23944192976512615  0.7605580777866193  1.0000
  O   O2        1.0  0.7605580810766459  0.7605579738328823  0.23944196349765226  1.0000
  O   O3        1.0  0.7605580361714639  0.23944191702631365  0.23944190406597943  1.0000
  O   O4        1.0  0.23944194214144165  0.7605581240524303  0.7605581021551007  1.0000
  O   O5        1.0  0.2394419707290919  0.7605581163799741  0.23944181438564294  1.0000
  O   O6        1.0  0.7605579951060043  0.23944192678181653  0.7605580813786731  1.0000
