data_image0
_chemical_formula_structural       Cl2TiO6
_chemical_formula_sum              "Cl2 Ti1 O6"
_cell_length_a       5.7732266771063285
_cell_length_b       5.773227044271551
_cell_length_c       5.773226782299146
_cell_angle_alpha    60.00000061602812
_cell_angle_beta     60.00000053852939
_cell_angle_gamma    60.00000050694515

_space_group_name_H-M_alt    "P 1"
_space_group_IT_number       1

loop_
  _space_group_symop_operation_xyz
  'x, y, z'

loop_
  _atom_site_type_symbol
  _atom_site_label
  _atom_site_symmetry_multiplicity
  _atom_site_fract_x
  _atom_site_fract_y
  _atom_site_fract_z
  _atom_site_occupancy
  Cl  Cl1       1.0  0.25000000266781636  0.24999994385705807  0.2500000737901699  1.0000
  Cl  Cl2       1.0  0.7500001336419239  0.7500000606847081  0.7499999123523523  1.0000
  Ti  Ti1       1.0  1.1016821472388038e-07  0.999999921507401  0.9999998767699114  1.0000
  O   O1        1.0  0.23917411960113694  0.23917415263534778  0.7608258691430726  1.0000
  O   O2        1.0  0.760825732393496  0.7608257628067133  0.23917435393872796  1.0000
  O   O3        1.0  0.760825875395481  0.23917420383770277  0.23917420549248597  1.0000
  O   O4        1.0  0.2391741410887263  0.7608258961680378  0.7608257339382721  1.0000
  O   O5        1.0  0.23917398903197035  0.7608259503226871  0.2391742674432863  1.0000
  O   O6        1.0  0.7608258710807995  0.23917416877585074  0.7608256609486456  1.0000
