data_image0
_chemical_formula_structural       Cl2TeO6
_chemical_formula_sum              "Cl2 Te1 O6"
_cell_length_a       5.796468098006515
_cell_length_b       5.7964685753357355
_cell_length_c       5.796468507533891
_cell_angle_alpha    59.99999971499924
_cell_angle_beta     60.00000008755722
_cell_angle_gamma    59.999999743688925

_space_group_name_H-M_alt    "P 1"
_space_group_IT_number       1

loop_
  _space_group_symop_operation_xyz
  'x, y, z'

loop_
  _atom_site_type_symbol
  _atom_site_label
  _atom_site_symmetry_multiplicity
  _atom_site_fract_x
  _atom_site_fract_y
  _atom_site_fract_z
  _atom_site_occupancy
  Cl  Cl1       1.0  0.2500000038843485  0.25000001382592296  0.2499999713791319  1.0000
  Cl  Cl2       1.0  0.7499999570833118  0.7499999780903024  0.7499999938182554  1.0000
  Te  Te1       1.0  3.350277438925368e-08  1.9016239641314075e-08  0.9999999685649285  1.0000
  O   O1        1.0  0.23744840950186855  0.23744839763123826  0.7625515862027129  1.0000
  O   O2        1.0  0.7625515713658225  0.76255163020455  0.23744843389391895  1.0000
  O   O3        1.0  0.7625516002339855  0.23744838048713093  0.23744837815054953  1.0000
  O   O4        1.0  0.2374484420670094  0.7625515945257675  0.762551615213428  1.0000
  O   O5        1.0  0.23744844692540282  0.7625516012238225  0.23744834077361635  1.0000
  O   O6        1.0  0.7625515451904388  0.23744842872488167  0.762551639863904  1.0000
