data_image0
_chemical_formula_structural       Cl2VO6
_chemical_formula_sum              "Cl2 V1 O6"
_cell_length_a       5.937636476336299
_cell_length_b       5.937636509243816
_cell_length_c       5.9376365961017905
_cell_angle_alpha    60.00000123608486
_cell_angle_beta     60.00000118403098
_cell_angle_gamma    59.99999900112832

_space_group_name_H-M_alt    "P 1"
_space_group_IT_number       1

loop_
  _space_group_symop_operation_xyz
  'x, y, z'

loop_
  _atom_site_type_symbol
  _atom_site_label
  _atom_site_symmetry_multiplicity
  _atom_site_fract_x
  _atom_site_fract_y
  _atom_site_fract_z
  _atom_site_occupancy
  Cl  Cl1       1.0  0.2499999910652605  0.24999996486972792  0.25000001731900445  1.0000
  Cl  Cl2       1.0  0.7499999626632063  0.7500001070653022  0.7499998785758577  1.0000
  V   V1        1.0  0.9999999687868488  0.9999999711224704  6.878129053021493e-08  1.0000
  O   O1        1.0  0.22007833266861504  0.2200782769323127  0.7799216933750625  1.0000
  O   O2        1.0  0.7799215846226347  0.7799217001194048  0.2200784231238665  1.0000
  O   O3        1.0  0.7799217457507428  0.22007825721120566  0.2200784055713752  1.0000
  O   O4        1.0  0.22007826714491663  0.7799217714075289  0.7799216373418425  1.0000
  O   O5        1.0  0.22007836171339473  0.7799216488978356  0.22007834898195902  1.0000
  O   O6        1.0  0.7799217490482837  0.2200782786495385  0.779921636587917  1.0000
