data_image0
_chemical_formula_structural       Cl2WO6
_chemical_formula_sum              "Cl2 W1 O6"
_cell_length_a       5.877562287505518
_cell_length_b       5.877562506774408
_cell_length_c       5.877562070916182
_cell_angle_alpha    60.000001244780016
_cell_angle_beta     60.00000171969782
_cell_angle_gamma    60.00000283388681

_space_group_name_H-M_alt    "P 1"
_space_group_IT_number       1

loop_
  _space_group_symop_operation_xyz
  'x, y, z'

loop_
  _atom_site_type_symbol
  _atom_site_label
  _atom_site_symmetry_multiplicity
  _atom_site_fract_x
  _atom_site_fract_y
  _atom_site_fract_z
  _atom_site_occupancy
  Cl  Cl1       1.0  0.25000020284584296  0.2500000962246138  0.24999995368515313  1.0000
  Cl  Cl2       1.0  0.7499997476962177  0.7499998948425907  0.7500000613439323  1.0000
  W   W1        1.0  1.4463669607075369e-08  1.687848152817202e-07  1.66986380960853e-07  1.0000
  O   O1        1.0  0.23391387867114782  0.23391394890275474  0.7660858687303103  1.0000
  O   O2        1.0  0.7660860562938017  0.766086000489189  0.23391395714759308  1.0000
  O   O3        1.0  0.7660858884441718  0.23391404637518448  0.2339138513535385  1.0000
  O   O4        1.0  0.23391411220692965  0.7660858238337556  0.7660861786335317  1.0000
  O   O5        1.0  0.23391410270810767  0.7660858383813466  0.23391387367144031  1.0000
  O   O6        1.0  0.7660860173641824  0.23391415685338626  0.766086097043409  1.0000
