data_image0
_chemical_formula_structural       Cl2ZrO6
_chemical_formula_sum              "Cl2 Zr1 O6"
_cell_length_a       5.604874007484271
_cell_length_b       5.604874215065042
_cell_length_c       5.6048739916291535
_cell_angle_alpha    59.99999922412293
_cell_angle_beta     59.99999898420431
_cell_angle_gamma    59.99999968006549

_space_group_name_H-M_alt    "P 1"
_space_group_IT_number       1

loop_
  _space_group_symop_operation_xyz
  'x, y, z'

loop_
  _atom_site_type_symbol
  _atom_site_label
  _atom_site_symmetry_multiplicity
  _atom_site_fract_x
  _atom_site_fract_y
  _atom_site_fract_z
  _atom_site_occupancy
  Cl  Cl1       1.0  0.25000001119906684  0.2500000321292521  0.2500000176331466  1.0000
  Cl  Cl2       1.0  0.7499999808254285  0.7499999827603493  0.7500000361859914  1.0000
  Zr  Zr1       1.0  1.1878913943555226e-08  2.0540338311511563e-07  4.2125479304815865e-07  1.0000
  O   O1        1.0  0.27848250917783873  0.2784824695322021  0.7215175161002941  1.0000
  O   O2        1.0  0.721517403688998  0.7215173749162869  0.2784826089933899  1.0000
  O   O3        1.0  0.7215175819951416  0.27848240205420716  0.2784823856171966  1.0000
  O   O4        1.0  0.2784826747562753  0.721517306915453  0.7215172944987777  1.0000
  O   O5        1.0  0.2784824484920303  0.7215175493882314  0.27848241465455953  1.0000
  O   O6        1.0  0.7215173733878502  0.27848267308991326  0.7215172832361019  1.0000
