data_image0
_chemical_formula_structural       Co2AgTe6
_chemical_formula_sum              "Co2 Ag1 Te6"
_cell_length_a       7.159844501640311
_cell_length_b       7.159844458953868
_cell_length_c       7.159844587634453
_cell_angle_alpha    59.9999996349871
_cell_angle_beta     59.99999994546269
_cell_angle_gamma    59.999998437320585

_space_group_name_H-M_alt    "P 1"
_space_group_IT_number       1

loop_
  _space_group_symop_operation_xyz
  'x, y, z'

loop_
  _atom_site_type_symbol
  _atom_site_label
  _atom_site_symmetry_multiplicity
  _atom_site_fract_x
  _atom_site_fract_y
  _atom_site_fract_z
  _atom_site_occupancy
  Co  Co1       1.0  0.25000004474887927  0.24999997547430183  0.24999999881659504  1.0000
  Co  Co2       1.0  0.7499999498709574  0.7500000102410689  0.7500001067857128  1.0000
  Ag  Ag1       1.0  0.999999999413023  3.079034468163854e-08  0.9999999555680706  1.0000
  Te  Te1       1.0  0.2748785120052858  0.27487847679284755  0.7251215168969323  1.0000
  Te  Te2       1.0  0.7251214847974873  0.7251215072119482  0.27487845857810733  1.0000
  Te  Te3       1.0  0.7251214864561273  0.27487849908368917  0.2748784684811528  1.0000
  Te  Te4       1.0  0.27487853699746534  0.7251214968951292  0.7251214946648576  1.0000
  Te  Te5       1.0  0.27487852612404123  0.7251215442029417  0.27487844385900917  1.0000
  Te  Te6       1.0  0.7251214637386033  0.2748784654604747  0.7251215529837083  1.0000
