data_image0
_chemical_formula_structural       Co2AuO6
_chemical_formula_sum              "Co2 Au1 O6"
_cell_length_a       5.22125006851572
_cell_length_b       5.221249905263795
_cell_length_c       5.221249795885656
_cell_angle_alpha    60.00000062773465
_cell_angle_beta     60.0000030765104
_cell_angle_gamma    60.0000027642797

_space_group_name_H-M_alt    "P 1"
_space_group_IT_number       1

loop_
  _space_group_symop_operation_xyz
  'x, y, z'

loop_
  _atom_site_type_symbol
  _atom_site_label
  _atom_site_symmetry_multiplicity
  _atom_site_fract_x
  _atom_site_fract_y
  _atom_site_fract_z
  _atom_site_occupancy
  Co  Co1       1.0  0.25000031067427236  0.2499995693508474  0.250000011095634  1.0000
  Co  Co2       1.0  0.7500000830168865  0.7499998949731074  0.7499993606187587  1.0000
  Au  Au1       1.0  3.5951504667874933e-09  8.20992498340098e-08  3.1188059520429064e-09  1.0000
  O   O1        1.0  0.26603111819520303  0.2660312774270231  0.7339687844906438  1.0000
  O   O2        1.0  0.733968644367216  0.733968965666936  0.26603163957025944  1.0000
  O   O3        1.0  0.733968591882947  0.2660309751463173  0.26603140149849547  1.0000
  O   O4        1.0  0.2660313357019348  0.7339689254764918  0.7339686918469477  1.0000
  O   O5        1.0  0.2660310703689563  0.7339690853697328  0.2660311576838309  1.0000
  O   O6        1.0  0.733968851646632  0.26603122340363206  0.7339689431332586  1.0000
