data_image0
_chemical_formula_structural       Co2AgS6
_chemical_formula_sum              "Co2 Ag1 S6"
_cell_length_a       6.349126366105613
_cell_length_b       6.349126486985208
_cell_length_c       6.3491263886883385
_cell_angle_alpha    60.00000146638112
_cell_angle_beta     59.999999531904365
_cell_angle_gamma    60.000000549030155

_space_group_name_H-M_alt    "P 1"
_space_group_IT_number       1

loop_
  _space_group_symop_operation_xyz
  'x, y, z'

loop_
  _atom_site_type_symbol
  _atom_site_label
  _atom_site_symmetry_multiplicity
  _atom_site_fract_x
  _atom_site_fract_y
  _atom_site_fract_z
  _atom_site_occupancy
  Co  Co1       1.0  0.2500002342183751  0.2499999874287355  0.24999988648300334  1.0000
  Co  Co2       1.0  0.7499999227328673  0.7500002014818887  0.7499999833629761  1.0000
  Ag  Ag1       1.0  9.271788058890234e-08  0.9999998746151673  0.9999999186822451  1.0000
  S   S1        1.0  0.26746623099690575  0.26746616211354457  0.7325337954217619  1.0000
  S   S2        1.0  0.7325337580342226  0.7325337721694225  0.26746620379707037  1.0000
  S   S3        1.0  0.7325336668436785  0.2674661802183589  0.26746630908491054  1.0000
  S   S4        1.0  0.2674660902951376  0.7325338659464603  0.7325338887408986  1.0000
  S   S5        1.0  0.2674662852408648  0.7325338043588042  0.26746615145119534  1.0000
  S   S6        1.0  0.7325337117993607  0.2674661550011295  0.7325338769001805  1.0000
