data_image0
_chemical_formula_structural       Co2AuS6
_chemical_formula_sum              "Co2 Au1 S6"
_cell_length_a       6.312370660355094
_cell_length_b       6.312370704674664
_cell_length_c       6.312370742981903
_cell_angle_alpha    59.99999984308723
_cell_angle_beta     59.99999912508266
_cell_angle_gamma    60.000000217272174

_space_group_name_H-M_alt    "P 1"
_space_group_IT_number       1

loop_
  _space_group_symop_operation_xyz
  'x, y, z'

loop_
  _atom_site_type_symbol
  _atom_site_label
  _atom_site_symmetry_multiplicity
  _atom_site_fract_x
  _atom_site_fract_y
  _atom_site_fract_z
  _atom_site_occupancy
  Co  Co1       1.0  0.24999985450800738  0.24999999107789053  0.250000069881971  1.0000
  Co  Co2       1.0  0.7500000578697148  0.749999949950918  0.7500000707500838  1.0000
  Au  Au1       1.0  4.638165829237715e-09  0.9999999805977038  3.431330971443478e-08  1.0000
  S   S1        1.0  0.2683164065080975  0.26831637501823186  0.7316835984520733  1.0000
  S   S2        1.0  0.7316836809243502  0.7316835951140216  0.2683163022762915  1.0000
  S   S3        1.0  0.7316836800770222  0.2683164092095066  0.2683163680972198  1.0000
  S   S4        1.0  0.2683163211199168  0.7316836385319319  0.7316836050645138  1.0000
  S   S5        1.0  0.26831631682861945  0.731683668571579  0.2683164169888577  1.0000
  S   S6        1.0  0.7316836794163009  0.26831638305031885  0.7316835487877014  1.0000
