data_image0
_chemical_formula_structural       Co2AuSe6
_chemical_formula_sum              "Co2 Au1 Se6"
_cell_length_a       6.664934803094914
_cell_length_b       6.664935093352963
_cell_length_c       6.664934977794527
_cell_angle_alpha    60.00000149707801
_cell_angle_beta     59.99999728309588
_cell_angle_gamma    60.00000193646023

_space_group_name_H-M_alt    "P 1"
_space_group_IT_number       1

loop_
  _space_group_symop_operation_xyz
  'x, y, z'

loop_
  _atom_site_type_symbol
  _atom_site_label
  _atom_site_symmetry_multiplicity
  _atom_site_fract_x
  _atom_site_fract_y
  _atom_site_fract_z
  _atom_site_occupancy
  Co  Co1       1.0  0.2499999034584433  0.24999967159649616  0.24999998883018829  1.0000
  Co  Co2       1.0  0.7499992275171199  0.75000095712692  0.7499995293269721  1.0000
  Au  Au1       1.0  1.052982400740307e-07  0.9999999595729222  2.6079616636060167e-08  1.0000
  Se  Se1       1.0  0.2953369239836212  0.2953359570372731  0.704663700289984  1.0000
  Se  Se2       1.0  0.7046633187835298  0.7046637271625759  0.29533665247165924  1.0000
  Se  Se3       1.0  0.7046634821571476  0.295336079016197  0.2953368244577269  1.0000
  Se  Se4       1.0  0.29533657689279086  0.704663730140076  0.704663389640664  1.0000
  Se  Se5       1.0  0.2953367432503338  0.7046637009423362  0.2953364770496335  1.0000
  Se  Se6       1.0  0.7046637275732969  0.29533619825607244  0.7046634126217417  1.0000
