data_image0
_chemical_formula_structural       Co2AgO6
_chemical_formula_sum              "Co2 Ag1 O6"
_cell_length_a       5.125748508046854
_cell_length_b       5.125748372168427
_cell_length_c       5.125748456035152
_cell_angle_alpha    59.99999979115807
_cell_angle_beta     59.99999755759894
_cell_angle_gamma    60.000000557201204

_space_group_name_H-M_alt    "P 1"
_space_group_IT_number       1

loop_
  _space_group_symop_operation_xyz
  'x, y, z'

loop_
  _atom_site_type_symbol
  _atom_site_label
  _atom_site_symmetry_multiplicity
  _atom_site_fract_x
  _atom_site_fract_y
  _atom_site_fract_z
  _atom_site_occupancy
  Co  Co1       1.0  0.24999979789882734  0.2499994646202656  0.2500010239223378  1.0000
  Co  Co2       1.0  0.7499992583435636  0.7500000975009682  0.7500014857892745  1.0000
  Ag  Ag1       1.0  0.9999999490965293  3.106216336886988e-08  7.820336567826992e-08  1.0000
  O   O1        1.0  0.269722412939126  0.2697218096419922  0.73027756454438  1.0000
  O   O2        1.0  0.7302778199819402  0.7302780678796458  0.2697211888355848  1.0000
  O   O3        1.0  0.7302778948510478  0.2697223064414611  0.26972172802404687  1.0000
  O   O4        1.0  0.2697220884794796  0.7302783739176366  0.730277696886679  1.0000
  O   O5        1.0  0.26972247235661595  0.730278126018317  0.2697215325055415  1.0000
  O   O6        1.0  0.7302782673189004  0.2697217180517798  0.7302777294799745  1.0000
