data_image0
_chemical_formula_structural       Co2BeS6
_chemical_formula_sum              "Co2 Be1 S6"
_cell_length_a       6.198877161495291
_cell_length_b       6.198877142668021
_cell_length_c       6.198876998512681
_cell_angle_alpha    59.99999936610865
_cell_angle_beta     60.00000066033367
_cell_angle_gamma    59.999999982211726

_space_group_name_H-M_alt    "P 1"
_space_group_IT_number       1

loop_
  _space_group_symop_operation_xyz
  'x, y, z'

loop_
  _atom_site_type_symbol
  _atom_site_label
  _atom_site_symmetry_multiplicity
  _atom_site_fract_x
  _atom_site_fract_y
  _atom_site_fract_z
  _atom_site_occupancy
  Co  Co1       1.0  0.24999995907963704  0.24999961799162665  0.25000022950912976  1.0000
  Co  Co2       1.0  0.7499999778787513  0.7500002844199046  0.7499996084118341  1.0000
  Be  Be1       1.0  2.066034001053974e-10  2.1733280708186867e-08  0.9999999874168622  1.0000
  S   S1        1.0  0.2591118950429104  0.25911165587516705  0.7408881764536293  1.0000
  S   S2        1.0  0.7408881195669333  0.740888309760448  0.2591119701304888  1.0000
  S   S3        1.0  0.7408883021386351  0.259111623284106  0.2591119468857835  1.0000
  S   S4        1.0  0.259111813699314  0.7408883739635554  0.7408880332601419  1.0000
  S   S5        1.0  0.25911164518593705  0.7408883851972534  0.2591119207097782  1.0000
  S   S6        1.0  0.7408882964728232  0.2591117266440688  0.7408881295587958  1.0000
