data_image0
_chemical_formula_structural       Co2BeO6
_chemical_formula_sum              "Co2 Be1 O6"
_cell_length_a       4.657554091082835
_cell_length_b       4.657554448945068
_cell_length_c       4.65755453043027
_cell_angle_alpha    59.999997892562774
_cell_angle_beta     59.99999922616895
_cell_angle_gamma    59.99999868205952

_space_group_name_H-M_alt    "P 1"
_space_group_IT_number       1

loop_
  _space_group_symop_operation_xyz
  'x, y, z'

loop_
  _atom_site_type_symbol
  _atom_site_label
  _atom_site_symmetry_multiplicity
  _atom_site_fract_x
  _atom_site_fract_y
  _atom_site_fract_z
  _atom_site_occupancy
  Co  Co1       1.0  0.24999929916328567  0.2499995140465763  0.25000081711378225  1.0000
  Co  Co2       1.0  0.7500000529963471  0.7499996991584066  0.7499998460829205  1.0000
  Be  Be1       1.0  0.9999999795648488  3.155505638975475e-08  0.9999999579402056  1.0000
  O   O1        1.0  0.24715347092284742  0.24715344801941636  0.7528465183466385  1.0000
  O   O2        1.0  0.7528467356191899  0.7528466382087414  0.24715339064680264  1.0000
  O   O3        1.0  0.7528467944659611  0.24715348339680332  0.24715334819339885  1.0000
  O   O4        1.0  0.24715340255441326  0.7528469289002587  0.7528463509972303  1.0000
  O   O5        1.0  0.2471533183189843  0.752846773854196  0.2471534047572392  1.0000
  O   O6        1.0  0.7528469030938257  0.2471535727031655  0.7528463945478541  1.0000
