data_image0
_chemical_formula_structural       Co2BeTe6
_chemical_formula_sum              "Co2 Be1 Te6"
_cell_length_a       7.045532186602339
_cell_length_b       7.045532203994982
_cell_length_c       7.045532214105423
_cell_angle_alpha    59.99999997516742
_cell_angle_beta     60.000000902274365
_cell_angle_gamma    59.99999846016577

_space_group_name_H-M_alt    "P 1"
_space_group_IT_number       1

loop_
  _space_group_symop_operation_xyz
  'x, y, z'

loop_
  _atom_site_type_symbol
  _atom_site_label
  _atom_site_symmetry_multiplicity
  _atom_site_fract_x
  _atom_site_fract_y
  _atom_site_fract_z
  _atom_site_occupancy
  Co  Co1       1.0  0.25000039107638655  0.25000000410231704  0.24999993823833763  1.0000
  Co  Co2       1.0  0.7499997423739297  0.7500001600648938  0.7500005456820146  1.0000
  Be  Be1       1.0  0.9999999826849476  0.9999999339435203  1.5381356208920597e-07  1.0000
  Te  Te1       1.0  0.22933823200869582  0.2293379843381946  0.7706620435207023  1.0000
  Te  Te2       1.0  0.7706617856783127  0.7706619764445961  0.22933810320479547  1.0000
  Te  Te3       1.0  0.7706617013384464  0.2293381990215009  0.2293378523372941  1.0000
  Te  Te4       1.0  0.2293381224569565  0.7706619599307346  0.7706616861914476  1.0000
  Te  Te5       1.0  0.2293383125962918  0.770661888891792  0.22933774590384043  1.0000
  Te  Te6       1.0  0.7706617117487043  0.22933789458150253  0.7706619368631443  1.0000
