data_image0
_chemical_formula_structural       Co2CO6
_chemical_formula_sum              "Co2 C1 O6"
_cell_length_a       4.696884056514371
_cell_length_b       4.696883875396262
_cell_length_c       4.6968839577080725
_cell_angle_alpha    59.99999738359379
_cell_angle_beta     59.999998753469335
_cell_angle_gamma    59.999998210722865

_space_group_name_H-M_alt    "P 1"
_space_group_IT_number       1

loop_
  _space_group_symop_operation_xyz
  'x, y, z'

loop_
  _atom_site_type_symbol
  _atom_site_label
  _atom_site_symmetry_multiplicity
  _atom_site_fract_x
  _atom_site_fract_y
  _atom_site_fract_z
  _atom_site_occupancy
  Co  Co1       1.0  0.24999972915728572  0.2500001662786597  0.25000020043018384  1.0000
  Co  Co2       1.0  0.7499996646905976  0.7500000112205755  0.7499999890582579  1.0000
  C   C1        1.0  0.9999998869117815  3.0392234579441684e-16  7.575474924917358e-09  1.0000
  O   O1        1.0  0.22877274274155948  0.22877249657009535  0.7712274101466803  1.0000
  O   O2        1.0  0.7712275321268496  0.7712273758435594  0.2287727085395349  1.0000
  O   O3        1.0  0.7712275077244997  0.22877256566452392  0.22877252211390614  1.0000
  O   O4        1.0  0.228772657430103  0.7712274736335539  0.7712273550798875  1.0000
  O   O5        1.0  0.22877271980980013  0.7712273257222818  0.22877252713959498  1.0000
  O   O6        1.0  0.771227597001214  0.22877253886866963  0.7712273402888454  1.0000
