data_image0
_chemical_formula_structural       Co2CrTe6
_chemical_formula_sum              "Co2 Cr1 Te6"
_cell_length_a       7.070171903908837
_cell_length_b       7.07017183428641
_cell_length_c       7.070172100910156
_cell_angle_alpha    60.00000014024601
_cell_angle_beta     59.99999940388446
_cell_angle_gamma    59.99999868498881

_space_group_name_H-M_alt    "P 1"
_space_group_IT_number       1

loop_
  _space_group_symop_operation_xyz
  'x, y, z'

loop_
  _atom_site_type_symbol
  _atom_site_label
  _atom_site_symmetry_multiplicity
  _atom_site_fract_x
  _atom_site_fract_y
  _atom_site_fract_z
  _atom_site_occupancy
  Co  Co1       1.0  0.2499999050170801  0.24999993169486398  0.2500001357349169  1.0000
  Co  Co2       1.0  0.7499998553223888  0.7499999475243724  0.749999910079892  1.0000
  Cr  Cr1       1.0  0.9999999889638804  0.9999999792127554  0.9999999480208309  1.0000
  Te  Te1       1.0  0.2620456786870288  0.2620456666861499  0.7379543249201985  1.0000
  Te  Te2       1.0  0.7379542683466824  0.7379543285951978  0.26204577318898764  1.0000
  Te  Te3       1.0  0.7379543762819285  0.2620456848937671  0.2620456573206691  1.0000
  Te  Te4       1.0  0.2620457487026018  0.7379544281819594  0.7379542999878835  1.0000
  Te  Te5       1.0  0.2620457208704767  0.7379543208090781  0.2620456468441326  1.0000
  Te  Te6       1.0  0.7379544635376754  0.26204570218859136  0.737954310233317  1.0000
