data_image0
_chemical_formula_structural       Co2CdO6
_chemical_formula_sum              "Co2 Cd1 O6"
_cell_length_a       5.326682048209335
_cell_length_b       5.326681935133004
_cell_length_c       5.326681920017377
_cell_angle_alpha    59.999998480076954
_cell_angle_beta     59.99999675030421
_cell_angle_gamma    59.99999947314289

_space_group_name_H-M_alt    "P 1"
_space_group_IT_number       1

loop_
  _space_group_symop_operation_xyz
  'x, y, z'

loop_
  _atom_site_type_symbol
  _atom_site_label
  _atom_site_symmetry_multiplicity
  _atom_site_fract_x
  _atom_site_fract_y
  _atom_site_fract_z
  _atom_site_occupancy
  Co  Co1       1.0  0.24999980832099078  0.2500002512983972  0.24999956337658344  1.0000
  Co  Co2       1.0  0.750000085516269  0.7499996111609085  0.7500005532431269  1.0000
  Cd  Cd1       1.0  2.257558726042884e-08  0.9999999908029436  2.8980218858703598e-08  1.0000
  O   O1        1.0  0.28007835524488933  0.2800785019268152  0.7199217696935111  1.0000
  O   O2        1.0  0.7199216372351203  0.7199214548023224  0.28007815097081473  1.0000
  O   O3        1.0  0.7199217812713893  0.2800787312301969  0.28007810715522946  1.0000
  O   O4        1.0  0.28007829443655935  0.7199212944768664  0.7199218538013218  1.0000
  O   O5        1.0  0.2800785195895119  0.7199216222946935  0.2800783211989201  1.0000
  O   O6        1.0  0.7199215000607393  0.2800785390689542  0.719921656278427  1.0000
