data_image0
_chemical_formula_structural       Co2CuO6
_chemical_formula_sum              "Co2 Cu1 O6"
_cell_length_a       4.987391989184769
_cell_length_b       4.987392022166
_cell_length_c       4.987392220234127
_cell_angle_alpha    60.00000765286844
_cell_angle_beta     60.00000812370554
_cell_angle_gamma    60.00000643568047

_space_group_name_H-M_alt    "P 1"
_space_group_IT_number       1

loop_
  _space_group_symop_operation_xyz
  'x, y, z'

loop_
  _atom_site_type_symbol
  _atom_site_label
  _atom_site_symmetry_multiplicity
  _atom_site_fract_x
  _atom_site_fract_y
  _atom_site_fract_z
  _atom_site_occupancy
  Co  Co1       1.0  0.24999955518427902  0.2500010017416833  0.2500019682755816  1.0000
  Co  Co2       1.0  0.7499986355434642  0.7500004906062472  0.749997037573173  1.0000
  Cu  Cu1       1.0  0.9999999910199294  0.9999999852659092  1.1857079026300075e-08  1.0000
  O   O1        1.0  0.25888806977187806  0.25888683300493487  0.7411109969966325  1.0000
  O   O2        1.0  0.7411129796875218  0.7411121398136328  0.2588894553260367  1.0000
  O   O3        1.0  0.7411118538418169  0.2588865165984022  0.25888826940551124  1.0000
  O   O4        1.0  0.2588888629171264  0.7411129056099323  0.7411122087848553  1.0000
  O   O5        1.0  0.25888683405235235  0.7411116070566675  0.25888802503720765  1.0000
  O   O6        1.0  0.7411131855504414  0.25888851747661984  0.7411120375272467  1.0000
