data_image0
_chemical_formula_structural       Co2CdS6
_chemical_formula_sum              "Co2 Cd1 S6"
_cell_length_a       6.3556618516388745
_cell_length_b       6.355662123201142
_cell_length_c       6.355661951389169
_cell_angle_alpha    60.00000047266827
_cell_angle_beta     59.999999127077174
_cell_angle_gamma    59.99999953482633

_space_group_name_H-M_alt    "P 1"
_space_group_IT_number       1

loop_
  _space_group_symop_operation_xyz
  'x, y, z'

loop_
  _atom_site_type_symbol
  _atom_site_label
  _atom_site_symmetry_multiplicity
  _atom_site_fract_x
  _atom_site_fract_y
  _atom_site_fract_z
  _atom_site_occupancy
  Co  Co1       1.0  0.25000006953387655  0.24999991041295586  0.2500000375603354  1.0000
  Co  Co2       1.0  0.7499999738965271  0.7500001301307275  0.7500001045374378  1.0000
  Cd  Cd1       1.0  2.4792948171452302e-08  1.9270134897345565e-09  0.9999999740528173  1.0000
  S   S1        1.0  0.274665898365215  0.274665777492092  0.7253341885645833  1.0000
  S   S2        1.0  0.7253341056464927  0.7253342341463859  0.274665720217101  1.0000
  S   S3        1.0  0.7253341411030365  0.274665825773013  0.274665838906032  1.0000
  S   S4        1.0  0.27466576052518876  0.72533418779248  0.7253341437048898  1.0000
  S   S5        1.0  0.2746658776696914  0.725334200905914  0.274665804852844  1.0000
  S   S6        1.0  0.7253341529895874  0.27466574714110775  0.7253341821899918  1.0000
