data_image0
_chemical_formula_structural       Co2CdTe6
_chemical_formula_sum              "Co2 Cd1 Te6"
_cell_length_a       7.299629311639238
_cell_length_b       7.299629407673672
_cell_length_c       7.29962927445239
_cell_angle_alpha    60.00000065717372
_cell_angle_beta     60.00000071648273
_cell_angle_gamma    60.000001642286826

_space_group_name_H-M_alt    "P 1"
_space_group_IT_number       1

loop_
  _space_group_symop_operation_xyz
  'x, y, z'

loop_
  _atom_site_type_symbol
  _atom_site_label
  _atom_site_symmetry_multiplicity
  _atom_site_fract_x
  _atom_site_fract_y
  _atom_site_fract_z
  _atom_site_occupancy
  Co  Co1       1.0  0.2499999619317278  0.24999997836893206  0.2500000368456959  1.0000
  Co  Co2       1.0  0.7500000407847202  0.749999992152605  0.7499999538319098  1.0000
  Cd  Cd1       1.0  1.6613549175003926e-09  2.3489449985825086e-08  6.6036537518446884e-09  1.0000
  Te  Te1       1.0  0.281915775617673  0.2819157899933092  0.7180842041666028  1.0000
  Te  Te2       1.0  0.718084206485182  0.7180842660969383  0.2819157636229722  1.0000
  Te  Te3       1.0  0.7180842515730473  0.28191575487433324  0.28191581029778673  1.0000
  Te  Te4       1.0  0.2819157380087262  0.7180842408144716  0.7180842072419041  1.0000
  Te  Te5       1.0  0.28191571567035456  0.718084224675121  0.28191582390954695  1.0000
  Te  Te6       1.0  0.718084307530805  0.28191572235696627  0.7180841901893494  1.0000
