data_image0
_chemical_formula_structural       Co2CO6
_chemical_formula_sum              "Co2 C1 O6"
_cell_length_a       4.696149631054402
_cell_length_b       4.69614953233086
_cell_length_c       4.696150036035038
_cell_angle_alpha    60.000003915581395
_cell_angle_beta     60.00000472600604
_cell_angle_gamma    60.000002857479565

_space_group_name_H-M_alt    "P 1"
_space_group_IT_number       1

loop_
  _space_group_symop_operation_xyz
  'x, y, z'

loop_
  _atom_site_type_symbol
  _atom_site_label
  _atom_site_symmetry_multiplicity
  _atom_site_fract_x
  _atom_site_fract_y
  _atom_site_fract_z
  _atom_site_occupancy
  Co  Co1       1.0  0.24999979858393992  0.2499999836080188  0.2500001547820653  1.0000
  Co  Co2       1.0  0.7499997983043691  0.7499999012725185  0.7500005753152309  1.0000
  C   C1        1.0  0.9999998455159699  2.0863818471449806e-08  1.775390987146009e-07  1.0000
  O   O1        1.0  0.2288087136103434  0.22880879041010113  0.7711911044933688  1.0000
  O   O2        1.0  0.7711914860604542  0.7711912040054136  0.22880847943640384  1.0000
  O   O3        1.0  0.7711913885922147  0.22880880674536183  0.22880860558385965  1.0000
  O   O4        1.0  0.22880881495217018  0.7711912424376706  0.7711910959542304  1.0000
  O   O5        1.0  0.2288088725393113  0.7711913216143874  0.22880853756342226  1.0000
  O   O6        1.0  0.7711911782340988  0.22880878755210826  0.7711912359212646  1.0000
