data_image0
_chemical_formula_structural       Co2CN6
_chemical_formula_sum              "Co2 C1 N6"
_cell_length_a       4.634983223095798
_cell_length_b       4.634983202855058
_cell_length_c       4.634983354303912
_cell_angle_alpha    59.99999740346193
_cell_angle_beta     59.99999831177104
_cell_angle_gamma    59.99999564651345

_space_group_name_H-M_alt    "P 1"
_space_group_IT_number       1

loop_
  _space_group_symop_operation_xyz
  'x, y, z'

loop_
  _atom_site_type_symbol
  _atom_site_label
  _atom_site_symmetry_multiplicity
  _atom_site_fract_x
  _atom_site_fract_y
  _atom_site_fract_z
  _atom_site_occupancy
  Co  Co1       1.0  0.24999994668386932  0.24999978212217536  0.2500003433628756  1.0000
  Co  Co2       1.0  0.7500000824991231  0.7500000016800975  0.7500000590918521  1.0000
  C   C1        1.0  2.575507359195673e-07  3.8578947880841886e-07  0.9999965132699764  1.0000
  N   N1        1.0  0.23865209672625493  0.23865208011607944  0.761347712385201  1.0000
  N   N2        1.0  0.7613475415558859  0.7613475609969683  0.23865237865321506  1.0000
  N   N3        1.0  0.7613469968065522  0.2386531459523988  0.23865306835630434  1.0000
  N   N4        1.0  0.2386513874705857  0.7613488072549162  0.7613482822091479  1.0000
  N   N5        1.0  0.2386530965682573  0.7613468831612041  0.23865323746885206  1.0000
  N   N6        1.0  0.7613485727276446  0.23865141825828193  0.761348514389166  1.0000
