data_image0
_chemical_formula_structural       Co2CS6
_chemical_formula_sum              "Co2 C1 S6"
_cell_length_a       3.61315871834188
_cell_length_b       4.083190145605938
_cell_length_c       1.4297109668296564
_cell_angle_alpha    73.77911784012475
_cell_angle_beta     86.66401443712722
_cell_angle_gamma    62.51968969693521

_space_group_name_H-M_alt    "P 1"
_space_group_IT_number       1

loop_
  _space_group_symop_operation_xyz
  'x, y, z'

loop_
  _atom_site_type_symbol
  _atom_site_label
  _atom_site_symmetry_multiplicity
  _atom_site_fract_x
  _atom_site_fract_y
  _atom_site_fract_z
  _atom_site_occupancy
  Co  Co1       1.0  0.895485418462917  0.659042505643571  0.4176310989877247  1.0000
  Co  Co2       1.0  0.19560804112516403  0.5549868094750383  0.22532883174845525  1.0000
  C   C1        1.0  0.9510564150198438  0.385268263054174  0.277164033022183  1.0000
  S   S1        1.0  0.13656429630430297  0.5241223066963887  0.847319800669846  1.0000
  S   S2        1.0  0.8988595520625162  0.40267222084974774  0.23945502127461593  1.0000
  S   S3        1.0  0.9713519120580097  0.655812443727945  0.1931919250393143  1.0000
  S   S4        1.0  0.1139541381356744  0.4071057087643395  0.7350529974858142  1.0000
  S   S5        1.0  0.9316577324490456  0.9857931081365259  0.415793505329792  1.0000
  S   S6        1.0  0.9219160927069372  0.5330507943358079  0.9052698610354404  1.0000
