data_image0
_chemical_formula_structural       Co2CuTe6
_chemical_formula_sum              "Co2 Cu1 Te6"
_cell_length_a       6.960087230393547
_cell_length_b       6.960087484626497
_cell_length_c       6.960087197081371
_cell_angle_alpha    60.00000135533317
_cell_angle_beta     59.99999966480471
_cell_angle_gamma    59.999998699425134

_space_group_name_H-M_alt    "P 1"
_space_group_IT_number       1

loop_
  _space_group_symop_operation_xyz
  'x, y, z'

loop_
  _atom_site_type_symbol
  _atom_site_label
  _atom_site_symmetry_multiplicity
  _atom_site_fract_x
  _atom_site_fract_y
  _atom_site_fract_z
  _atom_site_occupancy
  Co  Co1       1.0  0.2500001310487059  0.25000019186603717  0.24999984354554616  1.0000
  Co  Co2       1.0  0.750000029812759  0.7499999086836581  0.7499999911635289  1.0000
  Cu  Cu1       1.0  8.936917184217017e-08  4.0472379185022706e-08  0.9999999580674419  1.0000
  Te  Te1       1.0  0.2637973368029098  0.2637975035303883  0.7362025562580261  1.0000
  Te  Te2       1.0  0.7362027019946675  0.7362025600662664  0.26379736945362237  1.0000
  Te  Te3       1.0  0.7362024711139615  0.26379744031910435  0.26379739339725955  1.0000
  Te  Te4       1.0  0.26379741135231555  0.7362024402720028  0.7362027307180856  1.0000
  Te  Te5       1.0  0.2637973871286684  0.736202455288573  0.263797456925288  1.0000
  Te  Te6       1.0  0.7362024432031646  0.26379746225557993  0.7362027020792652  1.0000
