data_image0
_chemical_formula_structural       Co2CuS6
_chemical_formula_sum              "Co2 Cu1 S6"
_cell_length_a       6.18384480335249
_cell_length_b       6.183844532723916
_cell_length_c       6.18384461235052
_cell_angle_alpha    59.9999996562151
_cell_angle_beta     60.00000103149206
_cell_angle_gamma    59.999999371856084

_space_group_name_H-M_alt    "P 1"
_space_group_IT_number       1

loop_
  _space_group_symop_operation_xyz
  'x, y, z'

loop_
  _atom_site_type_symbol
  _atom_site_label
  _atom_site_symmetry_multiplicity
  _atom_site_fract_x
  _atom_site_fract_y
  _atom_site_fract_z
  _atom_site_occupancy
  Co  Co1       1.0  0.25000004492211586  0.2499998607959424  0.25000002852773917  1.0000
  Co  Co2       1.0  0.7500000908476345  0.7500001230795471  0.750000136363352  1.0000
  Cu  Cu1       1.0  3.2837688188409475e-08  7.922223050374894e-09  6.425648666085947e-10  1.0000
  S   S1        1.0  0.2603470859033124  0.26034703511782287  0.7396529409072972  1.0000
  S   S2        1.0  0.7396528592705871  0.7396529883687811  0.260346942093314  1.0000
  S   S3        1.0  0.7396530004347591  0.2603470255205255  0.2603471134598638  1.0000
  S   S4        1.0  0.26034694385241536  0.7396530118299687  0.7396528050972059  1.0000
  S   S5        1.0  0.2603470609270752  0.7396530133817203  0.2603470976310168  1.0000
  S   S6        1.0  0.7396528713279636  0.260346936824321  0.7396529529873118  1.0000
