data_image0
_chemical_formula_structural       Co2FeSe6
_chemical_formula_sum              "Co2 Fe1 Se6"
_cell_length_a       6.650578730387047
_cell_length_b       6.650578954500393
_cell_length_c       6.650578802847792
_cell_angle_alpha    60.00000078430918
_cell_angle_beta     59.99999825008018
_cell_angle_gamma    60.00000330811783

_space_group_name_H-M_alt    "P 1"
_space_group_IT_number       1

loop_
  _space_group_symop_operation_xyz
  'x, y, z'

loop_
  _atom_site_type_symbol
  _atom_site_label
  _atom_site_symmetry_multiplicity
  _atom_site_fract_x
  _atom_site_fract_y
  _atom_site_fract_z
  _atom_site_occupancy
  Co  Co1       1.0  0.2500000387786847  0.2500000252669626  0.24999989452391447  1.0000
  Co  Co2       1.0  0.7499997852917909  0.7500001365724006  0.7500002036370246  1.0000
  Fe  Fe1       1.0  0.9999997878445986  4.788058798934691e-08  4.775917111608623e-07  1.0000
  Se  Se1       1.0  0.24287811721225436  0.24287781370591188  0.7571221263458657  1.0000
  Se  Se2       1.0  0.7571221655086827  0.7571222118579328  0.24287770386997162  1.0000
  Se  Se3       1.0  0.7571220943757806  0.2428778774404874  0.24287794305860327  1.0000
  Se  Se4       1.0  0.24287820971283258  0.7571217558708133  0.7571217914211333  1.0000
  Se  Se5       1.0  0.24287799515396793  0.7571220513287902  0.24287798642351618  1.0000
  Se  Se6       1.0  0.7571218149393347  0.24287808472871372  0.7571218474311476  1.0000
