data_image0
_chemical_formula_structural       Co2FeTe6
_chemical_formula_sum              "Co2 Fe1 Te6"
_cell_length_a       7.067571351364876
_cell_length_b       7.067572287762962
_cell_length_c       7.06757190192571
_cell_angle_alpha    59.999995964682846
_cell_angle_beta     59.99999598580608
_cell_angle_gamma    60.000003738381196

_space_group_name_H-M_alt    "P 1"
_space_group_IT_number       1

loop_
  _space_group_symop_operation_xyz
  'x, y, z'

loop_
  _atom_site_type_symbol
  _atom_site_label
  _atom_site_symmetry_multiplicity
  _atom_site_fract_x
  _atom_site_fract_y
  _atom_site_fract_z
  _atom_site_occupancy
  Co  Co1       1.0  0.25000001925948856  0.25000025707238477  0.2499998988828305  1.0000
  Co  Co2       1.0  0.7499999484444048  0.7499998787697981  0.7500002612103296  1.0000
  Fe  Fe1       1.0  0.9999999568303295  0.9999998648332181  4.24761006835574e-08  1.0000
  Te  Te1       1.0  0.2385351725479017  0.23853536749220197  0.7614647788424387  1.0000
  Te  Te2       1.0  0.7614648676548756  0.7614647076982358  0.23853516026036425  1.0000
  Te  Te3       1.0  0.7614645588410144  0.23853556617769578  0.23853536373753179  1.0000
  Te  Te4       1.0  0.2385353599168498  0.76146445182679  0.761464659021055  1.0000
  Te  Te5       1.0  0.2385355903641989  0.7614644350923705  0.23853529565529227  1.0000
  Te  Te6       1.0  0.7614645406745976  0.2385354460124437  0.7614645521660983  1.0000
