data_image0
_chemical_formula_structural       Co2FeS6
_chemical_formula_sum              "Co2 Fe1 S6"
_cell_length_a       6.200529184595967
_cell_length_b       6.2005293650416
_cell_length_c       6.200529262824288
_cell_angle_alpha    60.00000043225974
_cell_angle_beta     60.00000027733377
_cell_angle_gamma    59.99999840330993

_space_group_name_H-M_alt    "P 1"
_space_group_IT_number       1

loop_
  _space_group_symop_operation_xyz
  'x, y, z'

loop_
  _atom_site_type_symbol
  _atom_site_label
  _atom_site_symmetry_multiplicity
  _atom_site_fract_x
  _atom_site_fract_y
  _atom_site_fract_z
  _atom_site_occupancy
  Co  Co1       1.0  0.2499999810212902  0.24999993693798542  0.2499999951212986  1.0000
  Co  Co2       1.0  0.7500001117195131  0.7499998858725496  0.7500003457236788  1.0000
  Fe  Fe1       1.0  0.9999999741930371  0.9999999209909483  8.62760838326993e-08  1.0000
  S   S1        1.0  0.24909116984241894  0.24909116696349162  0.7509088144960206  1.0000
  S   S2        1.0  0.7509089358727344  0.750908952130991  0.24909090563056338  1.0000
  S   S3        1.0  0.7509088596282273  0.24909128894534388  0.2490909575018367  1.0000
  S   S4        1.0  0.24909093121303974  0.7509089032325202  0.7509089673838069  1.0000
  S   S5        1.0  0.24909106193640498  0.7509090256818189  0.24909094459699488  1.0000
  S   S6        1.0  0.750908992277788  0.24909092946888114  0.7509089638902381  1.0000
