data_image0
_chemical_formula_structural       Co2GeS6
_chemical_formula_sum              "Co2 Ge1 S6"
_cell_length_a       6.380562703790191
_cell_length_b       6.380562668259572
_cell_length_c       6.38056257500995
_cell_angle_alpha    60.0000020157449
_cell_angle_beta     60.00000049993862
_cell_angle_gamma    60.00000147627974

_space_group_name_H-M_alt    "P 1"
_space_group_IT_number       1

loop_
  _space_group_symop_operation_xyz
  'x, y, z'

loop_
  _atom_site_type_symbol
  _atom_site_label
  _atom_site_symmetry_multiplicity
  _atom_site_fract_x
  _atom_site_fract_y
  _atom_site_fract_z
  _atom_site_occupancy
  Co  Co1       1.0  0.24999977977181098  0.25000004468641823  0.2500001017109431  1.0000
  Co  Co2       1.0  0.749999967158212  0.7500001724491288  0.750000037841419  1.0000
  Ge  Ge1       1.0  1.1808624187602287e-08  1.3436454890131396e-08  1.4020879266102578e-08  1.0000
  S   S1        1.0  0.2574093966667092  0.25740933118540027  0.7425906222707699  1.0000
  S   S2        1.0  0.7425907030357495  0.7425905442803049  0.257409256266924  1.0000
  S   S3        1.0  0.7425907662827944  0.2574092737770264  0.25740943974746494  1.0000
  S   S4        1.0  0.2574092993267259  0.742590649676019  0.7425906152124394  1.0000
  S   S5        1.0  0.25740942547931206  0.7425906428601908  0.25740934564186396  1.0000
  S   S6        1.0  0.7425906577694221  0.2574093362581634  0.7425905598230652  1.0000
