data_image0
_chemical_formula_structural       Co2GeTe6
_chemical_formula_sum              "Co2 Ge1 Te6"
_cell_length_a       7.219073113538136
_cell_length_b       7.219073209988934
_cell_length_c       7.219073256531007
_cell_angle_alpha    60.00000054618099
_cell_angle_beta     59.999999913339934
_cell_angle_gamma    60.00000056601146

_space_group_name_H-M_alt    "P 1"
_space_group_IT_number       1

loop_
  _space_group_symop_operation_xyz
  'x, y, z'

loop_
  _atom_site_type_symbol
  _atom_site_label
  _atom_site_symmetry_multiplicity
  _atom_site_fract_x
  _atom_site_fract_y
  _atom_site_fract_z
  _atom_site_occupancy
  Co  Co1       1.0  0.24999996250729484  0.24999996774904967  0.2500000722517058  1.0000
  Co  Co2       1.0  0.7500000026369208  0.7499999897707046  0.7500001491810869  1.0000
  Ge  Ge1       1.0  0.9999999825023775  0.9999999949103793  3.6227569874082604e-08  1.0000
  Te  Te1       1.0  0.27379551259955864  0.273795596017663  0.7262044419937772  1.0000
  Te  Te2       1.0  0.7262044549979084  0.7262045124941761  0.27379544645076764  1.0000
  Te  Te3       1.0  0.7262044860302472  0.27379555428225283  0.27379551084460635  1.0000
  Te  Te4       1.0  0.2737955689611603  0.7262044168098218  0.7262043153440307  1.0000
  Te  Te5       1.0  0.2737956295471043  0.7262043952249504  0.2737956023806161  1.0000
  Te  Te6       1.0  0.72620439975506  0.2737955809567462  0.7262044183420056  1.0000
