data_image0
_chemical_formula_structural       Co2GeN6
_chemical_formula_sum              "Co2 Ge1 N6"
_cell_length_a       4.772095828355331
_cell_length_b       4.7720957508128
_cell_length_c       4.7720957285066605
_cell_angle_alpha    60.00000033277255
_cell_angle_beta     60.00000023117022
_cell_angle_gamma    59.999999829194664

_space_group_name_H-M_alt    "P 1"
_space_group_IT_number       1

loop_
  _space_group_symop_operation_xyz
  'x, y, z'

loop_
  _atom_site_type_symbol
  _atom_site_label
  _atom_site_symmetry_multiplicity
  _atom_site_fract_x
  _atom_site_fract_y
  _atom_site_fract_z
  _atom_site_occupancy
  Co  Co1       1.0  0.25000000050471344  0.2499999843518347  0.25000000614607504  1.0000
  Co  Co2       1.0  0.7499999972115037  0.7500000095178817  0.7500000237910853  1.0000
  Ge  Ge1       1.0  5.694875851041973e-09  0.9999999974335283  1.3104405546699171e-08  1.0000
  N   N1        1.0  0.27995549605122283  0.27995552052020506  0.7200444893333154  1.0000
  N   N2        1.0  0.7200444720415663  0.7200445041471717  0.27995548972435985  1.0000
  N   N3        1.0  0.7200444964965261  0.2799555114594835  0.2799555001821566  1.0000
  N   N4        1.0  0.27995550319904694  0.7200445055084779  0.7200444627328033  1.0000
  N   N5        1.0  0.2799555173316038  0.7200444910207552  0.2799555188738  1.0000
  N   N6        1.0  0.7200445074415701  0.2799554797507157  0.7200444923198817  1.0000
