data_image0
_chemical_formula_structural       Co2MnO6
_chemical_formula_sum              "Co2 Mn1 O6"
_cell_length_a       5.288555620287312
_cell_length_b       5.2885555800516375
_cell_length_c       5.288555465964323
_cell_angle_alpha    60.000003042164494
_cell_angle_beta     59.999999789944304
_cell_angle_gamma    60.00000047205325

_space_group_name_H-M_alt    "P 1"
_space_group_IT_number       1

loop_
  _space_group_symop_operation_xyz
  'x, y, z'

loop_
  _atom_site_type_symbol
  _atom_site_label
  _atom_site_symmetry_multiplicity
  _atom_site_fract_x
  _atom_site_fract_y
  _atom_site_fract_z
  _atom_site_occupancy
  Co  Co1       1.0  0.2500000683724143  0.24999998507611906  0.2499999824541935  1.0000
  Co  Co2       1.0  0.7499999561874998  0.7499999945976372  0.7499999916347986  1.0000
  Mn  Mn1       1.0  1.918504182678453e-09  1.3895040438253192e-08  1.4783734005549612e-08  1.0000
  O   O1        1.0  0.25015406194957557  0.2501541428014595  0.7498458476232576  1.0000
  O   O2        1.0  0.7498459398492745  0.7498458855049351  0.250154077603314  1.0000
  O   O3        1.0  0.7498458813159188  0.2501541393287536  0.2501540484917198  1.0000
  O   O4        1.0  0.25015413336385733  0.7498458241341237  0.7498459575515357  1.0000
  O   O5        1.0  0.2501540781220038  0.7498458504095694  0.2501541909789592  1.0000
  O   O6        1.0  0.7498458766789925  0.25015416168594967  0.749845884977134  1.0000
