data_image0
_chemical_formula_structural       Co2MgO6
_chemical_formula_sum              "Co2 Mg1 O6"
_cell_length_a       4.8619250234086415
_cell_length_b       4.861924861132489
_cell_length_c       4.861924410513428
_cell_angle_alpha    60.00000612779393
_cell_angle_beta     60.0000072590237
_cell_angle_gamma    60.00000647813078

_space_group_name_H-M_alt    "P 1"
_space_group_IT_number       1

loop_
  _space_group_symop_operation_xyz
  'x, y, z'

loop_
  _atom_site_type_symbol
  _atom_site_label
  _atom_site_symmetry_multiplicity
  _atom_site_fract_x
  _atom_site_fract_y
  _atom_site_fract_z
  _atom_site_occupancy
  Co  Co1       1.0  0.25000314142111496  0.2499992906886223  0.24999870192928972  1.0000
  Co  Co2       1.0  0.7499999933820194  0.7499994817406119  0.7499990044459968  1.0000
  Mg  Mg1       1.0  6.48449591903704e-08  0.9999999622142017  0.9999999576752379  1.0000
  O   O1        1.0  0.26924517377728424  0.2692456283072921  0.7307545249824303  1.0000
  O   O2        1.0  0.7307532723492122  0.7307558672184651  0.26924610580087766  1.0000
  O   O3        1.0  0.7307534062843699  0.2692453225307232  0.2692456829127505  1.0000
  O   O4        1.0  0.26924603960110155  0.7307541854619958  0.7307549892618437  1.0000
  O   O5        1.0  0.2692452767941253  0.7307543360493787  0.2692456028005213  1.0000
  O   O6        1.0  0.7307536411361104  0.2692459150640598  0.7307554225142535  1.0000
