data_image0
_chemical_formula_structural       Co2MnSe6
_chemical_formula_sum              "Co2 Mn1 Se6"
_cell_length_a       6.698327913051161
_cell_length_b       6.698327621047079
_cell_length_c       6.698327722661719
_cell_angle_alpha    59.99999996512592
_cell_angle_beta     60.0000001111678
_cell_angle_gamma    60.00000170627411

_space_group_name_H-M_alt    "P 1"
_space_group_IT_number       1

loop_
  _space_group_symop_operation_xyz
  'x, y, z'

loop_
  _atom_site_type_symbol
  _atom_site_label
  _atom_site_symmetry_multiplicity
  _atom_site_fract_x
  _atom_site_fract_y
  _atom_site_fract_z
  _atom_site_occupancy
  Co  Co1       1.0  0.250000101025441  0.24999987130865603  0.25000003832954976  1.0000
  Co  Co2       1.0  0.7499998522692689  0.7500000820050098  0.7500000391717133  1.0000
  Mn  Mn1       1.0  0.9999999932778019  5.1196146684657384e-08  9.114134557186752e-09  1.0000
  Se  Se1       1.0  0.24792432620201746  0.24792415147025013  0.7520757436659822  1.0000
  Se  Se2       1.0  0.7520756490667029  0.7520758548679963  0.24792422915503828  1.0000
  Se  Se3       1.0  0.7520757346264714  0.2479242363497982  0.24792425048897193  1.0000
  Se  Se4       1.0  0.24792431295790082  0.7520757443903772  0.7520757407747356  1.0000
  Se  Se5       1.0  0.24792428480459794  0.7520757639118715  0.24792420162777562  1.0000
  Se  Se6       1.0  0.7520757398466958  0.24792424425481002  0.7520757485735602  1.0000
