data_image0
_chemical_formula_structural       Co2MnS6
_chemical_formula_sum              "Co2 Mn1 S6"
_cell_length_a       6.288375827472798
_cell_length_b       6.288376487706856
_cell_length_c       6.288376227545279
_cell_angle_alpha    60.00000008519235
_cell_angle_beta     60.000001157074834
_cell_angle_gamma    60.000001392911855

_space_group_name_H-M_alt    "P 1"
_space_group_IT_number       1

loop_
  _space_group_symop_operation_xyz
  'x, y, z'

loop_
  _atom_site_type_symbol
  _atom_site_label
  _atom_site_symmetry_multiplicity
  _atom_site_fract_x
  _atom_site_fract_y
  _atom_site_fract_z
  _atom_site_occupancy
  Co  Co1       1.0  0.24999981051236853  0.24999989750135332  0.25000012527734056  1.0000
  Co  Co2       1.0  0.750000127060483  0.7500000352874371  0.7499998169227674  1.0000
  Mn  Mn1       1.0  1.3817983042234293e-08  1.3633430290834377e-08  0.9999999687817015  1.0000
  S   S1        1.0  0.25063964310137843  0.25063966002581645  0.7493603478032957  1.0000
  S   S2        1.0  0.7493602762553517  0.7493603935162065  0.2506396862494624  1.0000
  S   S3        1.0  0.7493604673346775  0.2506396108669404  0.2506397031895612  1.0000
  S   S4        1.0  0.2506396252975053  0.7493604076176884  0.7493603269538337  1.0000
  S   S5        1.0  0.2506395288377238  0.7493604054390368  0.2506397214460351  1.0000
  S   S6        1.0  0.749360476211581  0.2506395838311013  0.7493603241596801  1.0000
