data_image0
_chemical_formula_structural       Co2MnTe6
_chemical_formula_sum              "Co2 Mn1 Te6"
_cell_length_a       6.98447201190974
_cell_length_b       6.984471515403586
_cell_length_c       6.984472070846173
_cell_angle_alpha    59.99999753251554
_cell_angle_beta     59.99999922004677
_cell_angle_gamma    59.99999955464379

_space_group_name_H-M_alt    "P 1"
_space_group_IT_number       1

loop_
  _space_group_symop_operation_xyz
  'x, y, z'

loop_
  _atom_site_type_symbol
  _atom_site_label
  _atom_site_symmetry_multiplicity
  _atom_site_fract_x
  _atom_site_fract_y
  _atom_site_fract_z
  _atom_site_occupancy
  Co  Co1       1.0  0.24999990444796572  0.2499998573339147  0.2500001477614025  1.0000
  Co  Co2       1.0  0.7499998200936069  0.7500001296228618  0.7499999450160909  1.0000
  Mn  Mn1       1.0  0.9999999760867727  0.9999999824647442  1.9292494163888673e-08  1.0000
  Te  Te1       1.0  0.2540623491905928  0.25406211159518843  0.7459377731329305  1.0000
  Te  Te2       1.0  0.745937708855559  0.7459378122346779  0.25406232906221854  1.0000
  Te  Te3       1.0  0.7459378221851125  0.2540622135351267  0.25406226044045915  1.0000
  Te  Te4       1.0  0.25406227845837753  0.7459378751261391  0.7459376650212016  1.0000
  Te  Te5       1.0  0.2540622955996891  0.7459378013907614  0.2540621907530437  1.0000
  Te  Te6       1.0  0.7459378510852712  0.2540622136224334  0.7459376783562927  1.0000
