data_image0
_chemical_formula_structural       Co2MgS6
_chemical_formula_sum              "Co2 Mg1 S6"
_cell_length_a       6.3405874846346135
_cell_length_b       6.340587523595482
_cell_length_c       6.340587362125597
_cell_angle_alpha    60.00000011325166
_cell_angle_beta     59.99999991626342
_cell_angle_gamma    59.99999990432614

_space_group_name_H-M_alt    "P 1"
_space_group_IT_number       1

loop_
  _space_group_symop_operation_xyz
  'x, y, z'

loop_
  _atom_site_type_symbol
  _atom_site_label
  _atom_site_symmetry_multiplicity
  _atom_site_fract_x
  _atom_site_fract_y
  _atom_site_fract_z
  _atom_site_occupancy
  Co  Co1       1.0  0.2500000471758929  0.2499999965255315  0.24999994842682205  1.0000
  Co  Co2       1.0  0.7499999725669805  0.7500000320716893  0.7500000867301965  1.0000
  Mg  Mg1       1.0  2.3472645039764826e-08  0.9999999787524521  3.516169337550822e-08  1.0000
  S   S1        1.0  0.2695368601691439  0.26953687427304246  0.7304631452572349  1.0000
  S   S2        1.0  0.7304631437359497  0.7304631253502505  0.26953679244292494  1.0000
  S   S3        1.0  0.7304631372886148  0.26953687815777805  0.2695368390403824  1.0000
  S   S4        1.0  0.2695368535561445  0.7304631060127527  0.7304631665391182  1.0000
  S   S5        1.0  0.2695368735928248  0.7304631761695072  0.26953682343769053  1.0000
  S   S6        1.0  0.7304630922706197  0.26953684470133327  0.730463166819467  1.0000
