data_image0
_chemical_formula_structural       Co2MgSe6
_chemical_formula_sum              "Co2 Mg1 Se6"
_cell_length_a       6.509222121540287
_cell_length_b       6.509221118754312
_cell_length_c       6.509223855002102
_cell_angle_alpha    60.00002703030163
_cell_angle_beta     60.00004207459079
_cell_angle_gamma    60.00001911091483

_space_group_name_H-M_alt    "P 1"
_space_group_IT_number       1

loop_
  _space_group_symop_operation_xyz
  'x, y, z'

loop_
  _atom_site_type_symbol
  _atom_site_label
  _atom_site_symmetry_multiplicity
  _atom_site_fract_x
  _atom_site_fract_y
  _atom_site_fract_z
  _atom_site_occupancy
  Co  Co1       1.0  0.2499994919928825  0.2500009719073359  0.24999630707406778  1.0000
  Co  Co2       1.0  0.7500014576644831  0.7499966049970014  0.7500066721442673  1.0000
  Mg  Mg1       1.0  0.999999819681529  1.8439214400163707e-07  0.9999997521581158  1.0000
  Se  Se1       1.0  0.29076881761449186  0.2907730113416988  0.7092311193113526  1.0000
  Se  Se2       1.0  0.7092290736310606  0.7092289458169144  0.2907655946311232  1.0000
  Se  Se3       1.0  0.7092317196173691  0.29077363343988966  0.290768509949722  1.0000
  Se  Se4       1.0  0.29076978028702405  0.7092259115687428  0.7092319073270846  1.0000
  Se  Se5       1.0  0.2907724586698764  0.7092297284041873  0.29076967740889026  1.0000
  Se  Se6       1.0  0.7092273709462199  0.2907710170352194  0.7092304493881435  1.0000
