data_image0
_chemical_formula_structural       Co2MgTe6
_chemical_formula_sum              "Co2 Mg1 Te6"
_cell_length_a       7.265315831921321
_cell_length_b       7.265315906931149
_cell_length_c       7.265316066745769
_cell_angle_alpha    60.00000122299463
_cell_angle_beta     60.00000032153345
_cell_angle_gamma    60.00000142023747

_space_group_name_H-M_alt    "P 1"
_space_group_IT_number       1

loop_
  _space_group_symop_operation_xyz
  'x, y, z'

loop_
  _atom_site_type_symbol
  _atom_site_label
  _atom_site_symmetry_multiplicity
  _atom_site_fract_x
  _atom_site_fract_y
  _atom_site_fract_z
  _atom_site_occupancy
  Co  Co1       1.0  0.25000005036603445  0.24999993515533497  0.24999994977363094  1.0000
  Co  Co2       1.0  0.7499998580630234  0.7500000313554396  0.7500000287923922  1.0000
  Mg  Mg1       1.0  1.6182556289460633e-08  0.9999999848283219  1.1882184347457396e-08  1.0000
  Te  Te1       1.0  0.2799599598861102  0.2799598212780038  0.7200400329749345  1.0000
  Te  Te2       1.0  0.720040050998443  0.7200401620901912  0.27995984326615136  1.0000
  Te  Te3       1.0  0.7200401048424222  0.27995991657132235  0.2799599253659677  1.0000
  Te  Te4       1.0  0.2799599824430609  0.7200400330820359  0.7200401456272816  1.0000
  Te  Te5       1.0  0.27995994959262227  0.7200401655798156  0.27995989136012955  1.0000
  Te  Te6       1.0  0.7200400284915618  0.2799599543334886  0.7200401656206289  1.0000
