data_image0
_chemical_formula_structural       Co2NiS6
_chemical_formula_sum              "Co2 Ni1 S6"
_cell_length_a       6.185302826758438
_cell_length_b       6.185302830808796
_cell_length_c       6.185302784679342
_cell_angle_alpha    59.99999997114159
_cell_angle_beta     60.000001379623804
_cell_angle_gamma    59.999999110160196

_space_group_name_H-M_alt    "P 1"
_space_group_IT_number       1

loop_
  _space_group_symop_operation_xyz
  'x, y, z'

loop_
  _atom_site_type_symbol
  _atom_site_label
  _atom_site_symmetry_multiplicity
  _atom_site_fract_x
  _atom_site_fract_y
  _atom_site_fract_z
  _atom_site_occupancy
  Co  Co1       1.0  0.25000038163231314  0.250000174170344  0.24999956817457036  1.0000
  Co  Co2       1.0  0.7499999515296432  0.7500005462721097  0.7499996724931774  1.0000
  Ni  Ni1       1.0  0.9999999960786812  0.9999999445575146  0.9999999407614372  1.0000
  S   S1        1.0  0.24698419626279464  0.24698394279521518  0.7530159895577103  1.0000
  S   S2        1.0  0.7530159639592415  0.7530157955231991  0.24698415198916335  1.0000
  S   S3        1.0  0.7530157108435511  0.24698384720243563  0.24698424557545193  1.0000
  S   S4        1.0  0.24698401821153756  0.7530159524987368  0.7530160582292121  1.0000
  S   S5        1.0  0.24698406178649335  0.7530159721279699  0.24698409270906588  1.0000
  S   S6        1.0  0.7530157115261044  0.24698382361302376  0.7530162734004556  1.0000
