data_image0
_chemical_formula_structural       Co2NbSe6
_chemical_formula_sum              "Co2 Nb1 Se6"
_cell_length_a       6.795752436764677
_cell_length_b       6.795752467516767
_cell_length_c       6.79575221690761
_cell_angle_alpha    59.999998699562255
_cell_angle_beta     60.00000019980037
_cell_angle_gamma    59.9999983610174

_space_group_name_H-M_alt    "P 1"
_space_group_IT_number       1

loop_
  _space_group_symop_operation_xyz
  'x, y, z'

loop_
  _atom_site_type_symbol
  _atom_site_label
  _atom_site_symmetry_multiplicity
  _atom_site_fract_x
  _atom_site_fract_y
  _atom_site_fract_z
  _atom_site_occupancy
  Co  Co1       1.0  0.24999985948618889  0.25000014863526066  0.2500000883514393  1.0000
  Co  Co2       1.0  0.7500001018236827  0.7499998800083308  0.7500002171596427  1.0000
  Nb  Nb1       1.0  3.07908487201785e-08  0.9999999891866727  0.9999999900112393  1.0000
  Se  Se1       1.0  0.2592802611223523  0.2592803944330611  0.7407196778052305  1.0000
  Se  Se2       1.0  0.7407197366088583  0.7407195657261348  0.2592802788035339  1.0000
  Se  Se3       1.0  0.740719705981935  0.2592803134323793  0.2592802640039113  1.0000
  Se  Se4       1.0  0.25928021015468755  0.7407197080023382  0.7407196733342367  1.0000
  Se  Se5       1.0  0.25928031299051707  0.7407196823274728  0.2592802185460812  1.0000
  Se  Se6       1.0  0.7407197728726876  0.25928031928281103  0.7407195923382313  1.0000
