data_image0
_chemical_formula_structural       Co2NiO6
_chemical_formula_sum              "Co2 Ni1 O6"
_cell_length_a       4.864753890523479
_cell_length_b       4.864754177269463
_cell_length_c       4.864753889629355
_cell_angle_alpha    59.99999979824776
_cell_angle_beta     60.00000046183996
_cell_angle_gamma    59.999998880888995

_space_group_name_H-M_alt    "P 1"
_space_group_IT_number       1

loop_
  _space_group_symop_operation_xyz
  'x, y, z'

loop_
  _atom_site_type_symbol
  _atom_site_label
  _atom_site_symmetry_multiplicity
  _atom_site_fract_x
  _atom_site_fract_y
  _atom_site_fract_z
  _atom_site_occupancy
  Co  Co1       1.0  0.2500001842849856  0.2500002995425884  0.2500000108312606  1.0000
  Co  Co2       1.0  0.7500004012117117  0.7500006770800096  0.7499994071263186  1.0000
  Ni  Ni1       1.0  0.9999999893784165  1.76231184489942e-08  2.3222064035155585e-08  1.0000
  O   O1        1.0  0.2559515293764535  0.25595132152396616  0.7440484891097882  1.0000
  O   O2        1.0  0.7440484924655897  0.744048675756757  0.255951509175042  1.0000
  O   O3        1.0  0.7440483195710611  0.2559511704391333  0.2559517533848036  1.0000
  O   O4        1.0  0.25595120782494624  0.7440484089219257  0.7440486558596279  1.0000
  O   O5        1.0  0.2559513139402766  0.7440482832339533  0.25595161204949274  1.0000
  O   O6        1.0  0.7440485988930884  0.2559511652125033  0.744048515763381  1.0000
