data_image0
_chemical_formula_structural       Co2NiSe6
_chemical_formula_sum              "Co2 Ni1 Se6"
_cell_length_a       6.357017761802161
_cell_length_b       6.180106826902542
_cell_length_c       6.29615827016128
_cell_angle_alpha    56.1011863362704
_cell_angle_beta     65.2354276816489
_cell_angle_gamma    71.27993854531971

_space_group_name_H-M_alt    "P 1"
_space_group_IT_number       1

loop_
  _space_group_symop_operation_xyz
  'x, y, z'

loop_
  _atom_site_type_symbol
  _atom_site_label
  _atom_site_symmetry_multiplicity
  _atom_site_fract_x
  _atom_site_fract_y
  _atom_site_fract_z
  _atom_site_occupancy
  Co  Co1       1.0  0.961573453292937  0.2587380093629465  0.40502988841345966  1.0000
  Co  Co2       1.0  0.7843117474854083  0.761774532635674  0.694876968011394  1.0000
  Ni  Ni1       1.0  0.03802571989588606  0.0035081657616010567  0.980428588250516  1.0000
  Se  Se1       1.0  0.27875441408638885  0.22346406309207173  0.5269956848563635  1.0000
  Se  Se2       1.0  0.8100126607571303  0.6697368259955516  0.3650161852332322  1.0000
  Se  Se3       1.0  0.8817283583908254  0.38157840728154824  0.025257054711470665  1.0000
  Se  Se4       1.0  0.37876131721122946  0.7592218512266936  0.8073842792871843  1.0000
  Se  Se5       1.0  0.15093031446908411  0.8787914376619497  0.3661781809284098  1.0000
  Se  Se6       1.0  0.7158748102420344  0.06319097664982945  0.8291719369018827  1.0000
