data_image0
_chemical_formula_structural       Co2NiTe6
_chemical_formula_sum              "Co2 Ni1 Te6"
_cell_length_a       6.947233491046789
_cell_length_b       6.947233714995759
_cell_length_c       6.947233542478657
_cell_angle_alpha    59.99999959873819
_cell_angle_beta     59.9999994506296
_cell_angle_gamma    60.00000062745774

_space_group_name_H-M_alt    "P 1"
_space_group_IT_number       1

loop_
  _space_group_symop_operation_xyz
  'x, y, z'

loop_
  _atom_site_type_symbol
  _atom_site_label
  _atom_site_symmetry_multiplicity
  _atom_site_fract_x
  _atom_site_fract_y
  _atom_site_fract_z
  _atom_site_occupancy
  Co  Co1       1.0  0.24999994308000692  0.2500001082519969  0.24999990649619147  1.0000
  Co  Co2       1.0  0.7499999657226016  0.7499999950891025  0.7500000391911228  1.0000
  Ni  Ni1       1.0  0.9999999278411817  7.051697233169343e-09  7.573621713772073e-08  1.0000
  Te  Te1       1.0  0.25737983826515437  0.257379959612902  0.7426201020518477  1.0000
  Te  Te2       1.0  0.7426201939708352  0.74262006263367  0.25737981095066514  1.0000
  Te  Te3       1.0  0.7426201354173514  0.25737990135736  0.25737991125412857  1.0000
  Te  Te4       1.0  0.2573799685425325  0.7426200204025132  0.7426201226470069  1.0000
  Te  Te5       1.0  0.2573799205118705  0.7426201041388187  0.25737987652380223  1.0000
  Te  Te6       1.0  0.7426201104999071  0.2573798370132241  0.7426201568062857  1.0000
