data_image0
_chemical_formula_structural       Co2NbTe6
_chemical_formula_sum              "Co2 Nb1 Te6"
_cell_length_a       7.285504577691223
_cell_length_b       7.285504448002228
_cell_length_c       7.285504519968827
_cell_angle_alpha    59.9999991627499
_cell_angle_beta     59.999999722382135
_cell_angle_gamma    59.99999997939316

_space_group_name_H-M_alt    "P 1"
_space_group_IT_number       1

loop_
  _space_group_symop_operation_xyz
  'x, y, z'

loop_
  _atom_site_type_symbol
  _atom_site_label
  _atom_site_symmetry_multiplicity
  _atom_site_fract_x
  _atom_site_fract_y
  _atom_site_fract_z
  _atom_site_occupancy
  Co  Co1       1.0  0.25000004332916015  0.24999994890017666  0.2500000073936183  1.0000
  Co  Co2       1.0  0.7500000092416419  0.7500000282561755  0.7500000233454875  1.0000
  Nb  Nb1       1.0  3.0105639786948384e-09  0.9999999529300174  4.6736303157513323e-08  1.0000
  Te  Te1       1.0  0.26460560264704225  0.26460559629495456  0.7353943984331514  1.0000
  Te  Te2       1.0  0.735394406537337  0.7353944396988756  0.26460555595099966  1.0000
  Te  Te3       1.0  0.7353943834137057  0.2646056044817551  0.2646056150998139  1.0000
  Te  Te4       1.0  0.2646055943770209  0.7353943878042339  0.7353943850706157  1.0000
  Te  Te5       1.0  0.26460559409134216  0.7353944248710446  0.2646055722185404  1.0000
  Te  Te6       1.0  0.7353943626942477  0.26460561616599765  0.7353943989804568  1.0000
