data_image0
_chemical_formula_structural       Co2NiN6
_chemical_formula_sum              "Co2 Ni1 N6"
_cell_length_a       4.781626955083653
_cell_length_b       4.781627204184861
_cell_length_c       4.781627079541813
_cell_angle_alpha    60.00000081266062
_cell_angle_beta     59.9999995839225
_cell_angle_gamma    60.00000045555478

_space_group_name_H-M_alt    "P 1"
_space_group_IT_number       1

loop_
  _space_group_symop_operation_xyz
  'x, y, z'

loop_
  _atom_site_type_symbol
  _atom_site_label
  _atom_site_symmetry_multiplicity
  _atom_site_fract_x
  _atom_site_fract_y
  _atom_site_fract_z
  _atom_site_occupancy
  Co  Co1       1.0  0.2500006025179522  0.2500003966021261  0.24999922726942975  1.0000
  Co  Co2       1.0  0.749999508971421  0.7499993123325965  0.7500012295905466  1.0000
  Ni  Ni1       1.0  8.537852537773772e-10  0.9999999974386442  0.9999999945797703  1.0000
  N   N1        1.0  0.27059159335133404  0.2705916186395171  0.7294086730567898  1.0000
  N   N2        1.0  0.7294083413836581  0.7294084104646825  0.2705912101744383  1.0000
  N   N3        1.0  0.729408064714002  0.2705922325760836  0.27059100996025875  1.0000
  N   N4        1.0  0.2705917823238128  0.729408132065726  0.7294086887019408  1.0000
  N   N5        1.0  0.2705922092095079  0.7294081202884987  0.27059104651618465  1.0000
  N   N6        1.0  0.7294079011790621  0.27059177306384213  0.7294089192397629  1.0000
