data_image0
_chemical_formula_structural       Co2NbS6
_chemical_formula_sum              "Co2 Nb1 S6"
_cell_length_a       6.284692709699157
_cell_length_b       6.2846926750163545
_cell_length_c       6.284692815627076
_cell_angle_alpha    60.00000057803874
_cell_angle_beta     60.0000002389967
_cell_angle_gamma    59.99999927067092

_space_group_name_H-M_alt    "P 1"
_space_group_IT_number       1

loop_
  _space_group_symop_operation_xyz
  'x, y, z'

loop_
  _atom_site_type_symbol
  _atom_site_label
  _atom_site_symmetry_multiplicity
  _atom_site_fract_x
  _atom_site_fract_y
  _atom_site_fract_z
  _atom_site_occupancy
  Co  Co1       1.0  0.2499999958846998  0.2500000786864113  0.24999998456065478  1.0000
  Co  Co2       1.0  0.7500000169081226  0.7499999223065411  0.7499999893230626  1.0000
  Nb  Nb1       1.0  4.656352367156463e-08  3.1180390804498656e-08  0.9999999324870253  1.0000
  S   S1        1.0  0.2658323923640612  0.2658324642559635  0.7341675798166227  1.0000
  S   S2        1.0  0.7341675927574762  0.7341675425833134  0.26583247817328737  1.0000
  S   S3        1.0  0.7341675655785016  0.26583238032601075  0.2658323748836652  1.0000
  S   S4        1.0  0.2658323525269406  0.7341676401546877  0.7341676636497191  1.0000
  S   S5        1.0  0.2658324307691685  0.7341675429736932  0.2658323723576567  1.0000
  S   S6        1.0  0.7341675998969819  0.26583238786337776  0.7341676372143426  1.0000
