data_image0
_chemical_formula_structural       Co2NiTe6
_chemical_formula_sum              "Co2 Ni1 Te6"
_cell_length_a       6.946915800188887
_cell_length_b       6.94691583764514
_cell_length_c       6.946915977895362
_cell_angle_alpha    59.9999993893947
_cell_angle_beta     59.99999894773282
_cell_angle_gamma    59.99999952252006

_space_group_name_H-M_alt    "P 1"
_space_group_IT_number       1

loop_
  _space_group_symop_operation_xyz
  'x, y, z'

loop_
  _atom_site_type_symbol
  _atom_site_label
  _atom_site_symmetry_multiplicity
  _atom_site_fract_x
  _atom_site_fract_y
  _atom_site_fract_z
  _atom_site_occupancy
  Co  Co1       1.0  0.24999991437126878  0.2500002120454553  0.24999989203780407  1.0000
  Co  Co2       1.0  0.7499998729395937  0.7500001618879655  0.7499997144523636  1.0000
  Ni  Ni1       1.0  8.529841614100943e-09  0.9999999594508802  0.9999999627485947  1.0000
  Te  Te1       1.0  0.2573304169329784  0.25733020131236123  0.7426696937698245  1.0000
  Te  Te2       1.0  0.7426697778218719  0.7426696384304828  0.25733039066609  1.0000
  Te  Te3       1.0  0.7426697097040756  0.2573302022559021  0.25733039600339686  1.0000
  Te  Te4       1.0  0.2573303610586764  0.7426696604060098  0.7426698253382942  1.0000
  Te  Te5       1.0  0.25733020566673565  0.7426696508981527  0.25733037284516874  1.0000
  Te  Te6       1.0  0.74266972892994  0.2573303210700818  0.7426697539648229  1.0000
