data_image0
_chemical_formula_structural       Co2NbO6
_chemical_formula_sum              "Co2 Nb1 O6"
_cell_length_a       5.310117747284017
_cell_length_b       5.310117767997239
_cell_length_c       5.3101177857536355
_cell_angle_alpha    60.000000642050466
_cell_angle_beta     60.000000830358346
_cell_angle_gamma    60.000000893850945

_space_group_name_H-M_alt    "P 1"
_space_group_IT_number       1

loop_
  _space_group_symop_operation_xyz
  'x, y, z'

loop_
  _atom_site_type_symbol
  _atom_site_label
  _atom_site_symmetry_multiplicity
  _atom_site_fract_x
  _atom_site_fract_y
  _atom_site_fract_z
  _atom_site_occupancy
  Co  Co1       1.0  0.2500001881981649  0.2499995859957204  0.25000019678249363  1.0000
  Co  Co2       1.0  0.7500000566547543  0.7500000795751828  0.7499997899350875  1.0000
  Nb  Nb1       1.0  0.9999999871940085  2.537079964447932e-08  0.9999999730024246  1.0000
  O   O1        1.0  0.2614638020175501  0.2614640138311097  0.7385361360241136  1.0000
  O   O2        1.0  0.738536064327646  0.7385361153334977  0.2614639663390579  1.0000
  O   O3        1.0  0.7385359817052404  0.261463832552404  0.2614639497481262  1.0000
  O   O4        1.0  0.2614639289219786  0.7385362550963486  0.7385359760946033  1.0000
  O   O5        1.0  0.26146387551047146  0.7385362368096662  0.2614639012653728  1.0000
  O   O6        1.0  0.7385360947297521  0.26146384161334196  0.7385361255579528  1.0000
