data_image0
_chemical_formula_structural       Co2PN6
_chemical_formula_sum              "Co2 P1 N6"
_cell_length_a       4.749519343661201
_cell_length_b       4.749519418058985
_cell_length_c       4.749519524416104
_cell_angle_alpha    59.99999996089687
_cell_angle_beta     59.99999882209279
_cell_angle_gamma    59.99999935408645

_space_group_name_H-M_alt    "P 1"
_space_group_IT_number       1

loop_
  _space_group_symop_operation_xyz
  'x, y, z'

loop_
  _atom_site_type_symbol
  _atom_site_label
  _atom_site_symmetry_multiplicity
  _atom_site_fract_x
  _atom_site_fract_y
  _atom_site_fract_z
  _atom_site_occupancy
  Co  Co1       1.0  0.2499999993069179  0.25000003491506806  0.2500000386452707  1.0000
  Co  Co2       1.0  0.7500000601753846  0.7500000273850678  0.7499999424176172  1.0000
  P   P1        1.0  0.9999999549365111  2.5786711839569937e-08  5.427436411341868e-09  1.0000
  N   N1        1.0  0.2576731888910688  0.25767328212186613  0.7423267903536186  1.0000
  N   N2        1.0  0.7423268061540966  0.7423266744527531  0.25767330526726134  1.0000
  N   N3        1.0  0.7423268175363031  0.25767318107153503  0.25767324746329695  1.0000
  N   N4        1.0  0.2576731503232927  0.7423267987111238  0.7423267364506371  1.0000
  N   N5        1.0  0.25767321498940315  0.7423267202230263  0.25767323090281197  1.0000
  N   N6        1.0  0.7423268355308074  0.2576732595596321  0.7423267243136716  1.0000
