data_image0
_chemical_formula_structural       Co2PO6
_chemical_formula_sum              "Co2 P1 O6"
_cell_length_a       4.547938355801319
_cell_length_b       4.5479382401439326
_cell_length_c       4.547938220638757
_cell_angle_alpha    59.99999924507454
_cell_angle_beta     59.99999869774669
_cell_angle_gamma    59.999999995759374

_space_group_name_H-M_alt    "P 1"
_space_group_IT_number       1

loop_
  _space_group_symop_operation_xyz
  'x, y, z'

loop_
  _atom_site_type_symbol
  _atom_site_label
  _atom_site_symmetry_multiplicity
  _atom_site_fract_x
  _atom_site_fract_y
  _atom_site_fract_z
  _atom_site_occupancy
  Co  Co1       1.0  0.2500000767709256  0.249999910536068  0.2499997430045455  1.0000
  Co  Co2       1.0  0.7500000739711894  0.7499999416596478  0.7499996858943923  1.0000
  P   P1        1.0  0.9999990237166768  1.0017838051500685e-06  3.362405555116821e-06  1.0000
  O   O1        1.0  0.26515605171724443  0.26515617475566  0.7348440451561971  1.0000
  O   O2        1.0  0.734843768855155  0.7348438605618244  0.2651563873585084  1.0000
  O   O3        1.0  0.7348451117116438  0.2651549121099769  0.26515507271911115  1.0000
  O   O4        1.0  0.2651574186342411  0.734842599897218  0.7348427467408196  1.0000
  O   O5        1.0  0.2651553666729903  0.7348446903586413  0.26515562613431104  1.0000
  O   O6        1.0  0.7348431068934442  0.2651569257306128  0.7348433306399961  1.0000
