data_image0
_chemical_formula_structural       Co2PdS6
_chemical_formula_sum              "Co2 Pd1 S6"
_cell_length_a       6.277602195864232
_cell_length_b       6.277602167611714
_cell_length_c       6.277602062835243
_cell_angle_alpha    60.000000813833395
_cell_angle_beta     60.00000046674285
_cell_angle_gamma    59.999999839985186

_space_group_name_H-M_alt    "P 1"
_space_group_IT_number       1

loop_
  _space_group_symop_operation_xyz
  'x, y, z'

loop_
  _atom_site_type_symbol
  _atom_site_label
  _atom_site_symmetry_multiplicity
  _atom_site_fract_x
  _atom_site_fract_y
  _atom_site_fract_z
  _atom_site_occupancy
  Co  Co1       1.0  0.24999995918766033  0.2500000112047702  0.24999999710723803  1.0000
  Co  Co2       1.0  0.7500000663705908  0.7500000355652857  0.7500000536459507  1.0000
  Pd  Pd1       1.0  0.9999999962096271  5.85292668890105e-09  0.9999999655164594  1.0000
  S   S1        1.0  0.2636553019859884  0.2636552755933721  0.7363447299289787  1.0000
  S   S2        1.0  0.7363447175536119  0.7363447009415619  0.26365523151390086  1.0000
  S   S3        1.0  0.7363447493001368  0.2636552989407396  0.2636552469696684  1.0000
  S   S4        1.0  0.26365521838245654  0.7363447283195603  0.736344737340541  1.0000
  S   S5        1.0  0.2636552541993807  0.7363447069889838  0.26365532571995565  1.0000
  S   S6        1.0  0.7363447495666898  0.263655228575463  0.7363447182557401  1.0000
