data_image0
_chemical_formula_structural       Co2PS6
_chemical_formula_sum              "Co2 P1 S6"
_cell_length_a       6.354907388710577
_cell_length_b       6.354907521538904
_cell_length_c       6.354907187913916
_cell_angle_alpha    59.999998807358615
_cell_angle_beta     59.999999025181864
_cell_angle_gamma    59.99999852915619

_space_group_name_H-M_alt    "P 1"
_space_group_IT_number       1

loop_
  _space_group_symop_operation_xyz
  'x, y, z'

loop_
  _atom_site_type_symbol
  _atom_site_label
  _atom_site_symmetry_multiplicity
  _atom_site_fract_x
  _atom_site_fract_y
  _atom_site_fract_z
  _atom_site_occupancy
  Co  Co1       1.0  0.24999935190587425  0.2499998573793953  0.25000037908923234  1.0000
  Co  Co2       1.0  0.7499999946182507  0.7500000732212841  0.7499987622628587  1.0000
  P   P1        1.0  0.9999999919792776  7.708970940886638e-09  0.9999999922879401  1.0000
  S   S1        1.0  0.2427857232394496  0.24278576489660808  0.7572142928129709  1.0000
  S   S2        1.0  0.7572143384008039  0.7572142389392387  0.24278621835460348  1.0000
  S   S3        1.0  0.7572143753446795  0.24278501753586165  0.24278643918708104  1.0000
  S   S4        1.0  0.24278587716824918  0.757214282856413  0.7572142747639931  1.0000
  S   S5        1.0  0.24278553619985413  0.7572144868093782  0.242785942772418  1.0000
  S   S6        1.0  0.7572148186103524  0.242786278287325  0.7572136997113289  1.0000
