data_image0
_chemical_formula_structural       Co2SeO6
_chemical_formula_sum              "Co2 Se1 O6"
_cell_length_a       5.142984593835062
_cell_length_b       5.142984655822292
_cell_length_c       5.142984219042104
_cell_angle_alpha    59.9999991761036
_cell_angle_beta     59.99999846971774
_cell_angle_gamma    59.99999667553148

_space_group_name_H-M_alt    "P 1"
_space_group_IT_number       1

loop_
  _space_group_symop_operation_xyz
  'x, y, z'

loop_
  _atom_site_type_symbol
  _atom_site_label
  _atom_site_symmetry_multiplicity
  _atom_site_fract_x
  _atom_site_fract_y
  _atom_site_fract_z
  _atom_site_occupancy
  Co  Co1       1.0  0.24999855995821552  0.24999794998405572  0.24999902226735704  1.0000
  Co  Co2       1.0  0.7499990128813565  0.7500003463821786  0.7499938398195077  1.0000
  Se  Se1       1.0  0.9999997625774606  0.9999999309397463  0.9999990177139081  1.0000
  O   O1        1.0  0.2501087853489772  0.2501085904703096  0.7498928204222214  1.0000
  O   O2        1.0  0.7498916121629736  0.7498916181511333  0.25011109731345776  1.0000
  O   O3        1.0  0.7498927544552311  0.25010697103634516  0.2501106830983982  1.0000
  O   O4        1.0  0.2501101238389003  0.749891911151173  0.7498916288774199  1.0000
  O   O5        1.0  0.2501078409836036  0.7498926696682872  0.25010986002437646  1.0000
  O   O6        1.0  0.7498915659017159  0.25010999892842584  0.7498920669568708  1.0000
