data_image0
_chemical_formula_structural       Co2ScO6
_chemical_formula_sum              "Co2 Sc1 O6"
_cell_length_a       5.214669845871743
_cell_length_b       5.2146697909041135
_cell_length_c       5.21466969166493
_cell_angle_alpha    59.99999986036271
_cell_angle_beta     60.00000009390055
_cell_angle_gamma    60.000000007828625

_space_group_name_H-M_alt    "P 1"
_space_group_IT_number       1

loop_
  _space_group_symop_operation_xyz
  'x, y, z'

loop_
  _atom_site_type_symbol
  _atom_site_label
  _atom_site_symmetry_multiplicity
  _atom_site_fract_x
  _atom_site_fract_y
  _atom_site_fract_z
  _atom_site_occupancy
  Co  Co1       1.0  0.24999984596007738  0.2500002771247677  0.24999976546033828  1.0000
  Co  Co2       1.0  0.749999815539446  0.7499997791778488  0.7500008591795122  1.0000
  Sc  Sc1       1.0  3.334928757017068e-08  0.9999999929540417  0.9999999753423331  1.0000
  O   O1        1.0  0.2685344877678413  0.26853448711125993  0.7314655779215014  1.0000
  O   O2        1.0  0.7314656199559404  0.7314653930424027  0.26853418104956667  1.0000
  O   O3        1.0  0.7314655433288425  0.26853475029681656  0.2685342634822953  1.0000
  O   O4        1.0  0.2685344232762664  0.7314654469249708  0.731465589692411  1.0000
  O   O5        1.0  0.2685347567755755  0.731465435322635  0.26853422835388335  1.0000
  O   O6        1.0  0.7314654677935105  0.2685344330877635  0.731465556690511  1.0000
