data_image0
_chemical_formula_structural       Co2ScS6
_chemical_formula_sum              "Co2 Sc1 S6"
_cell_length_a       6.336987879449828
_cell_length_b       6.336987696787845
_cell_length_c       6.336987973731001
_cell_angle_alpha    59.99999931669538
_cell_angle_beta     59.99999984365574
_cell_angle_gamma    59.999999253331886

_space_group_name_H-M_alt    "P 1"
_space_group_IT_number       1

loop_
  _space_group_symop_operation_xyz
  'x, y, z'

loop_
  _atom_site_type_symbol
  _atom_site_label
  _atom_site_symmetry_multiplicity
  _atom_site_fract_x
  _atom_site_fract_y
  _atom_site_fract_z
  _atom_site_occupancy
  Co  Co1       1.0  0.24999997762302537  0.24999998212362814  0.25000005741299164  1.0000
  Co  Co2       1.0  0.7500000069870405  0.7500000410728174  0.7499998747940637  1.0000
  Sc  Sc1       1.0  0.9999999859564188  3.8653849242744485e-09  0.999999986152657  1.0000
  S   S1        1.0  0.271147906624558  0.27114760810358596  0.7288522080027061  1.0000
  S   S2        1.0  0.7288522657628046  0.7288522508139947  0.2711478339639637  1.0000
  S   S3        1.0  0.7288521505474042  0.27114776540439167  0.2711477689693151  1.0000
  S   S4        1.0  0.2711478135957367  0.7288522481285914  0.7288522209099265  1.0000
  S   S5        1.0  0.271147686005913  0.7288523201287473  0.2711477285094501  1.0000
  S   S6        1.0  0.7288522176364229  0.2711477765100154  0.7288523226569956  1.0000
