data_image0
_chemical_formula_structural       Co2SiN6
_chemical_formula_sum              "Co2 Si1 N6"
_cell_length_a       4.762047434909993
_cell_length_b       4.76204743024539
_cell_length_c       4.762047320470896
_cell_angle_alpha    60.00000115332519
_cell_angle_beta     60.00000081179398
_cell_angle_gamma    60.000001175146565

_space_group_name_H-M_alt    "P 1"
_space_group_IT_number       1

loop_
  _space_group_symop_operation_xyz
  'x, y, z'

loop_
  _atom_site_type_symbol
  _atom_site_label
  _atom_site_symmetry_multiplicity
  _atom_site_fract_x
  _atom_site_fract_y
  _atom_site_fract_z
  _atom_site_occupancy
  Co  Co1       1.0  0.2500000075826437  0.2500000280750844  0.24999993879314417  1.0000
  Co  Co2       1.0  0.7500000084219374  0.7499999453433478  0.7499999412819358  1.0000
  Si  Si1       1.0  0.9999999808957896  0.9999999845686772  6.136644634332504e-08  1.0000
  N   N1        1.0  0.266830736137867  0.2668307427010268  0.733169307502263  1.0000
  N   N2        1.0  0.7331692568920548  0.7331692487206161  0.26683072625401527  1.0000
  N   N3        1.0  0.7331692465151088  0.2668308085144155  0.2668307300250033  1.0000
  N   N4        1.0  0.2668307246411548  0.7331692703513897  0.7331692247474061  1.0000
  N   N5        1.0  0.2668308480734091  0.733169227165038  0.26683079053634146  1.0000
  N   N6        1.0  0.733169152672174  0.2668307411096206  0.7331692509355979  1.0000
