data_image0
_chemical_formula_structural       Co2SN6
_chemical_formula_sum              "Co2 S1 N6"
_cell_length_a       5.022313924561251
_cell_length_b       5.022314045290719
_cell_length_c       5.022313856883489
_cell_angle_alpha    59.99999879033953
_cell_angle_beta     59.99999691556986
_cell_angle_gamma    59.99999842188751

_space_group_name_H-M_alt    "P 1"
_space_group_IT_number       1

loop_
  _space_group_symop_operation_xyz
  'x, y, z'

loop_
  _atom_site_type_symbol
  _atom_site_label
  _atom_site_symmetry_multiplicity
  _atom_site_fract_x
  _atom_site_fract_y
  _atom_site_fract_z
  _atom_site_occupancy
  Co  Co1       1.0  0.2500002968221874  0.24999930967091222  0.25000022359490476  1.0000
  Co  Co2       1.0  0.7500003156007341  0.7499999433019054  0.7499997340415837  1.0000
  S   S1        1.0  4.172006768250609e-07  0.9999993415761664  9.588706209874528e-07  1.0000
  N   N1        1.0  0.2420330028668531  0.24203344976245125  0.7579667414637404  1.0000
  N   N2        1.0  0.757966600838377  0.7579670981105504  0.24203307507261887  1.0000
  N   N3        1.0  0.7579666661245127  0.2420331826683857  0.24203320856227462  1.0000
  N   N4        1.0  0.2420330817812109  0.7579670774490235  0.7579664567468549  1.0000
  N   N5        1.0  0.24203295264149094  0.7579671336717817  0.242033193567248  1.0000
  N   N6        1.0  0.7579666207565169  0.24203343614868264  0.7579665036999164  1.0000
