data_image0
_chemical_formula_structural       Co2SeS6
_chemical_formula_sum              "Co2 Se1 S6"
_cell_length_a       6.289140455622384
_cell_length_b       6.2891402707521955
_cell_length_c       6.289140199786865
_cell_angle_alpha    60.00000070056744
_cell_angle_beta     59.99999999571978
_cell_angle_gamma    59.99999933930207

_space_group_name_H-M_alt    "P 1"
_space_group_IT_number       1

loop_
  _space_group_symop_operation_xyz
  'x, y, z'

loop_
  _atom_site_type_symbol
  _atom_site_label
  _atom_site_symmetry_multiplicity
  _atom_site_fract_x
  _atom_site_fract_y
  _atom_site_fract_z
  _atom_site_occupancy
  Co  Co1       1.0  0.2500005369614065  0.249999875374947  0.24999978396642697  1.0000
  Co  Co2       1.0  0.7499996548734783  0.7500005589276986  0.750000251473607  1.0000
  Se  Se1       1.0  0.9999999958442413  8.958023159618124e-08  0.999999998628868  1.0000
  S   S1        1.0  0.24748554474114226  0.24748496154197117  0.7525148197116373  1.0000
  S   S2        1.0  0.7525145880898981  0.7525149722798137  0.2474850407186029  1.0000
  S   S3        1.0  0.7525144443189603  0.24748508679210277  0.2474854321391086  1.0000
  S   S4        1.0  0.2474851776364127  0.7525147107119424  0.7525148027691989  1.0000
  S   S5        1.0  0.24748550324917015  0.7525147899999519  0.24748495093881595  1.0000
  S   S6        1.0  0.7525145509511838  0.2474849666087663  0.7525149149800311  1.0000
