data_image0
_chemical_formula_structural       Co2SO6
_chemical_formula_sum              "Co2 S1 O6"
_cell_length_a       4.930996836169537
_cell_length_b       4.930996955047619
_cell_length_c       4.930996965973252
_cell_angle_alpha    59.999999689279385
_cell_angle_beta     59.99999845694515
_cell_angle_gamma    60.000000306365564

_space_group_name_H-M_alt    "P 1"
_space_group_IT_number       1

loop_
  _space_group_symop_operation_xyz
  'x, y, z'

loop_
  _atom_site_type_symbol
  _atom_site_label
  _atom_site_symmetry_multiplicity
  _atom_site_fract_x
  _atom_site_fract_y
  _atom_site_fract_z
  _atom_site_occupancy
  Co  Co1       1.0  0.250001030164465  0.24999949879974687  0.2500009499859384  1.0000
  Co  Co2       1.0  0.7499998396230133  0.750001146578871  0.7499989787330028  1.0000
  S   S1        1.0  0.9999999569034704  0.9999999677110257  1.5384890162401987e-08  1.0000
  O   O1        1.0  0.2332503440663838  0.23325003795476298  0.7667497149150351  1.0000
  O   O2        1.0  0.7667493783362248  0.7667500311898517  0.23325067407183264  1.0000
  O   O3        1.0  0.7667492925952917  0.23325006228524828  0.23325040437428468  1.0000
  O   O4        1.0  0.2332501731882793  0.7667499969242966  0.7667494486537771  1.0000
  O   O5        1.0  0.2332501505785182  0.7667493239040432  0.2332502773749283  1.0000
  O   O6        1.0  0.766749865854227  0.23324989827594494  0.7667495667442642  1.0000
