data_image0
_chemical_formula_structural       Co2ScTe6
_chemical_formula_sum              "Co2 Sc1 Te6"
_cell_length_a       7.3051116091615205
_cell_length_b       7.305111698386913
_cell_length_c       7.305111813040124
_cell_angle_alpha    59.9999995347883
_cell_angle_beta     59.99999951369831
_cell_angle_gamma    60.000003353453394

_space_group_name_H-M_alt    "P 1"
_space_group_IT_number       1

loop_
  _space_group_symop_operation_xyz
  'x, y, z'

loop_
  _atom_site_type_symbol
  _atom_site_label
  _atom_site_symmetry_multiplicity
  _atom_site_fract_x
  _atom_site_fract_y
  _atom_site_fract_z
  _atom_site_occupancy
  Co  Co1       1.0  0.2500000345173585  0.24999989762382038  0.25000006134244634  1.0000
  Co  Co2       1.0  0.7500000038516039  0.7500000583612544  0.750000109995569  1.0000
  Sc  Sc1       1.0  0.9999999775034688  0.9999999916172055  6.608912704752012e-08  1.0000
  Te  Te1       1.0  0.2718633287223189  0.27186321261556096  0.7281367449814373  1.0000
  Te  Te2       1.0  0.7281366941110968  0.7281367567819828  0.2718632426160172  1.0000
  Te  Te3       1.0  0.7281367005618354  0.2718633347221978  0.271863284752449  1.0000
  Te  Te4       1.0  0.2718632682080883  0.7281367067673682  0.728136630861136  1.0000
  Te  Te5       1.0  0.2718633007037074  0.7281367407726891  0.27186323379299826  1.0000
  Te  Te6       1.0  0.7281366975401831  0.27186330239343676  0.7281366169647637  1.0000
