data_image0
_chemical_formula_structural       Co2SO6
_chemical_formula_sum              "Co2 S1 O6"
_cell_length_a       4.9302391101974585
_cell_length_b       4.930239226367934
_cell_length_c       4.9302401708597925
_cell_angle_alpha    59.99999326442864
_cell_angle_beta     59.999995462880044
_cell_angle_gamma    60.0000015662214

_space_group_name_H-M_alt    "P 1"
_space_group_IT_number       1

loop_
  _space_group_symop_operation_xyz
  'x, y, z'

loop_
  _atom_site_type_symbol
  _atom_site_label
  _atom_site_symmetry_multiplicity
  _atom_site_fract_x
  _atom_site_fract_y
  _atom_site_fract_z
  _atom_site_occupancy
  Co  Co1       1.0  0.24999966124984724  0.2500001793208573  0.24999992047013997  1.0000
  Co  Co2       1.0  0.7500006494219424  0.7500002274440222  0.7500000209075526  1.0000
  S   S1        1.0  4.16135013892638e-08  0.9999999875792561  5.030918225413716e-08  1.0000
  O   O1        1.0  0.23323758636396583  0.23323778643979953  0.7667622564192129  1.0000
  O   O2        1.0  0.7667623051774631  0.766762205472164  0.23323755430944726  1.0000
  O   O3        1.0  0.7667623797706397  0.23323772542120638  0.23323780092661314  1.0000
  O   O4        1.0  0.23323764477409445  0.7667621696089466  0.766762277731427  1.0000
  O   O5        1.0  0.23323756922521216  0.766762249259463  0.23323792618806  1.0000
  O   O6        1.0  0.7667620158166567  0.2332374395862897  0.7667624104080447  1.0000
