data_image0
_chemical_formula_structural       Co2ScSe6
_chemical_formula_sum              "Co2 Sc1 Se6"
_cell_length_a       6.6137298114603755
_cell_length_b       6.613729403891649
_cell_length_c       6.613729861479818
_cell_angle_alpha    59.999999540557944
_cell_angle_beta     60.000000011265854
_cell_angle_gamma    60.000000832470505

_space_group_name_H-M_alt    "P 1"
_space_group_IT_number       1

loop_
  _space_group_symop_operation_xyz
  'x, y, z'

loop_
  _atom_site_type_symbol
  _atom_site_label
  _atom_site_symmetry_multiplicity
  _atom_site_fract_x
  _atom_site_fract_y
  _atom_site_fract_z
  _atom_site_occupancy
  Co  Co1       1.0  0.24999990744108566  0.25000024826005735  0.25000001066003846  1.0000
  Co  Co2       1.0  0.7500002747195437  0.7499997318336219  0.7500003605356318  1.0000
  Sc  Sc1       1.0  0.9999999156665771  2.7777327936879e-08  1.205104207843313e-07  1.0000
  Se  Se1       1.0  0.2793440542932573  0.27934430601142296  0.7206558134536625  1.0000
  Se  Se2       1.0  0.7206559100153778  0.7206557148223205  0.27934404149552655  1.0000
  Se  Se3       1.0  0.7206556998964633  0.27934443983313056  0.2793439966322601  1.0000
  Se  Se4       1.0  0.279343827824578  0.7206557698864324  0.7206559186635609  1.0000
  Se  Se5       1.0  0.27934437805050977  0.7206556556171076  0.2793441032764477  1.0000
  Se  Se6       1.0  0.7206560463021284  0.2793441059615839  0.7206556301101775  1.0000
