data_image0
_chemical_formula_structural       Co2SiTe6
_chemical_formula_sum              "Co2 Si1 Te6"
_cell_length_a       7.169364087610118
_cell_length_b       7.169363955312493
_cell_length_c       7.169364004650552
_cell_angle_alpha    60.00000059660838
_cell_angle_beta     60.00000084405766
_cell_angle_gamma    60.000000251156735

_space_group_name_H-M_alt    "P 1"
_space_group_IT_number       1

loop_
  _space_group_symop_operation_xyz
  'x, y, z'

loop_
  _atom_site_type_symbol
  _atom_site_label
  _atom_site_symmetry_multiplicity
  _atom_site_fract_x
  _atom_site_fract_y
  _atom_site_fract_z
  _atom_site_occupancy
  Co  Co1       1.0  0.24999971076384767  0.2500004935876667  0.24999980787039267  1.0000
  Co  Co2       1.0  0.7500001049689106  0.7499994034660945  0.7500001949082841  1.0000
  Si  Si1       1.0  2.272708996923391e-08  1.8791337204906224e-08  0.9999999806356105  1.0000
  Te  Te1       1.0  0.2590259643491496  0.2590261901779552  0.7409739162353848  1.0000
  Te  Te2       1.0  0.7409740975128971  0.7409737222505374  0.2590260576134252  1.0000
  Te  Te3       1.0  0.7409740017833881  0.25902629490249823  0.2590259279669803  1.0000
  Te  Te4       1.0  0.2590261388502586  0.7409737097743782  0.7409741012490485  1.0000
  Te  Te5       1.0  0.25902604501623394  0.7409738154425503  0.2590261236906028  1.0000
  Te  Te6       1.0  0.7409739164634747  0.2590263498148432  0.7409738841260121  1.0000
