data_image0
_chemical_formula_structural       Co2SiS6
_chemical_formula_sum              "Co2 Si1 S6"
_cell_length_a       6.3006912762952725
_cell_length_b       6.300691096723797
_cell_length_c       6.300691218814674
_cell_angle_alpha    60.000000201612956
_cell_angle_beta     60.00000011353076
_cell_angle_gamma    60.00000166731422

_space_group_name_H-M_alt    "P 1"
_space_group_IT_number       1

loop_
  _space_group_symop_operation_xyz
  'x, y, z'

loop_
  _atom_site_type_symbol
  _atom_site_label
  _atom_site_symmetry_multiplicity
  _atom_site_fract_x
  _atom_site_fract_y
  _atom_site_fract_z
  _atom_site_occupancy
  Co  Co1       1.0  0.25000012953669465  0.2499995224721341  0.25000022293979857  1.0000
  Co  Co2       1.0  0.7500000612816513  0.7499999397577084  0.7499995051134773  1.0000
  Si  Si1       1.0  2.18997868654091e-08  0.9999999727864329  0.9999999709143409  1.0000
  S   S1        1.0  0.25237133631169645  0.25237152632654886  0.7476285526586592  1.0000
  S   S2        1.0  0.7476285041798112  0.7476286240177793  0.25237170801113173  1.0000
  S   S3        1.0  0.7476285349264447  0.25237141654689305  0.2523713909585382  1.0000
  S   S4        1.0  0.25237162794428836  0.7476288387640563  0.7476283894009177  1.0000
  S   S5        1.0  0.2523712090130773  0.7476287403773614  0.2523715577454146  1.0000
  S   S6        1.0  0.7476285845884626  0.25237140219166027  0.7476286937530822  1.0000
