data_image0
_chemical_formula_structural       Co2SeN6
_chemical_formula_sum              "Co2 Se1 N6"
_cell_length_a       4.7410360619447
_cell_length_b       4.741035917158493
_cell_length_c       4.7410358950806835
_cell_angle_alpha    59.99999958199818
_cell_angle_beta     59.999997974981234
_cell_angle_gamma    59.999999743137344

_space_group_name_H-M_alt    "P 1"
_space_group_IT_number       1

loop_
  _space_group_symop_operation_xyz
  'x, y, z'

loop_
  _atom_site_type_symbol
  _atom_site_label
  _atom_site_symmetry_multiplicity
  _atom_site_fract_x
  _atom_site_fract_y
  _atom_site_fract_z
  _atom_site_occupancy
  Co  Co1       1.0  0.2500000708050155  0.24999987297852144  0.24999985910871067  1.0000
  Co  Co2       1.0  0.7500000788482513  0.7499999392629515  0.7499997750214659  1.0000
  Se  Se1       1.0  0.9999996771950749  5.373233556578879e-07  0.999999966564319  1.0000
  N   N1        1.0  0.28111168062761904  0.28111178196293374  0.718888327137935  1.0000
  N   N2        1.0  0.7188880713394804  0.718888236941368  0.28111185599131067  1.0000
  N   N3        1.0  0.7188883539921531  0.2811116968569035  0.2811116628314167  1.0000
  N   N4        1.0  0.281111872294221  0.7188881412174252  0.7188881773935054  1.0000
  N   N5        1.0  0.2811118825998815  0.7188881232807675  0.28111205465540395  1.0000
  N   N6        1.0  0.7188883242274596  0.28111167087771327  0.718888492214937  1.0000
