data_image0
_chemical_formula_structural       Co2TiTe6
_chemical_formula_sum              "Co2 Ti1 Te6"
_cell_length_a       7.186843510460226
_cell_length_b       7.186843599627917
_cell_length_c       7.186843282766679
_cell_angle_alpha    60.00000060307422
_cell_angle_beta     60.00000098357747
_cell_angle_gamma    59.99999828217179

_space_group_name_H-M_alt    "P 1"
_space_group_IT_number       1

loop_
  _space_group_symop_operation_xyz
  'x, y, z'

loop_
  _atom_site_type_symbol
  _atom_site_label
  _atom_site_symmetry_multiplicity
  _atom_site_fract_x
  _atom_site_fract_y
  _atom_site_fract_z
  _atom_site_occupancy
  Co  Co1       1.0  0.24999996248530423  0.24999994011728432  0.2500000578997616  1.0000
  Co  Co2       1.0  0.7499999100746866  0.7500000947197608  0.7500000224230792  1.0000
  Ti  Ti1       1.0  1.0571548625504749e-07  7.327838346063489e-08  0.9999998214514497  1.0000
  Te  Te1       1.0  0.26395696989535666  0.2639568686204689  0.7360430924365  1.0000
  Te  Te2       1.0  0.7360429926586809  0.7360429685353477  0.26395704172993295  1.0000
  Te  Te3       1.0  0.7360431138039589  0.2639569023771705  0.2639568766136576  1.0000
  Te  Te4       1.0  0.26395683602174647  0.736043209146555  0.7360431225586909  1.0000
  Te  Te5       1.0  0.26395690396174787  0.7360431556682481  0.26395684789306983  1.0000
  Te  Te6       1.0  0.7360432033221201  0.263956787144772  0.7360431193369009  1.0000
