data_image0
_chemical_formula_structural       Co2VSe6
_chemical_formula_sum              "Co2 V1 Se6"
_cell_length_a       6.721326785735391
_cell_length_b       6.721326651955623
_cell_length_c       6.721326783705969
_cell_angle_alpha    60.0000003794498
_cell_angle_beta     60.00000034688111
_cell_angle_gamma    59.99999799188867

_space_group_name_H-M_alt    "P 1"
_space_group_IT_number       1

loop_
  _space_group_symop_operation_xyz
  'x, y, z'

loop_
  _atom_site_type_symbol
  _atom_site_label
  _atom_site_symmetry_multiplicity
  _atom_site_fract_x
  _atom_site_fract_y
  _atom_site_fract_z
  _atom_site_occupancy
  Co  Co1       1.0  0.24999980761372892  0.2500003350914039  0.2500000053403778  1.0000
  Co  Co2       1.0  0.7500000608321015  0.7499999210787082  0.7500000561238378  1.0000
  V   V1        1.0  0.9999999850414936  3.644354598528118e-09  0.9999999759010462  1.0000
  Se  Se1       1.0  0.25310411174417374  0.25310421332128097  0.7468959094531402  1.0000
  Se  Se2       1.0  0.746895952936921  0.7468957221456237  0.253104224659655  1.0000
  Se  Se3       1.0  0.7468958305846619  0.25310422001891014  0.25310407733875956  1.0000
  Se  Se4       1.0  0.25310411963284674  0.7468958320673417  0.7468958652575654  1.0000
  Se  Se5       1.0  0.2531042015050585  0.7468956793458204  0.25310409635485637  1.0000
  Se  Se6       1.0  0.746895926136429  0.25310407754770525  0.7468957801505155  1.0000
