data_image0
_chemical_formula_structural       Co2VO6
_chemical_formula_sum              "Co2 V1 O6"
_cell_length_a       5.06480230262154
_cell_length_b       5.064802012019912
_cell_length_c       5.064802169416464
_cell_angle_alpha    60.0000013519483
_cell_angle_beta     59.99999976716015
_cell_angle_gamma    60.00000228903614

_space_group_name_H-M_alt    "P 1"
_space_group_IT_number       1

loop_
  _space_group_symop_operation_xyz
  'x, y, z'

loop_
  _atom_site_type_symbol
  _atom_site_label
  _atom_site_symmetry_multiplicity
  _atom_site_fract_x
  _atom_site_fract_y
  _atom_site_fract_z
  _atom_site_occupancy
  Co  Co1       1.0  0.2500002063452101  0.2499995392260814  0.2500000102330374  1.0000
  Co  Co2       1.0  0.7500001192454465  0.7499997203544205  0.7500002287820672  1.0000
  V   V1        1.0  0.9999999802873716  0.9999999975818501  1.6988621602569977e-08  1.0000
  O   O1        1.0  0.2553294529603702  0.255329657027862  0.7446704732528189  1.0000
  O   O2        1.0  0.7446703790593753  0.7446706181754159  0.2553294257599446  1.0000
  O   O3        1.0  0.744670435592039  0.2553296469078324  0.2553295360680759  1.0000
  O   O4        1.0  0.2553295259210588  0.7446704928790762  0.7446703422132631  1.0000
  O   O5        1.0  0.25532955580445066  0.7446706178902097  0.2553295448133514  1.0000
  O   O6        1.0  0.7446703635174642  0.25532966214937325  0.7446704226459994  1.0000
