data_image0
_chemical_formula_structural       Co2VS6
_chemical_formula_sum              "Co2 V1 S6"
_cell_length_a       6.212921157444349
_cell_length_b       6.2129211785255505
_cell_length_c       6.212921227127943
_cell_angle_alpha    59.99999966261969
_cell_angle_beta     60.00000009484663
_cell_angle_gamma    60.00000065336325

_space_group_name_H-M_alt    "P 1"
_space_group_IT_number       1

loop_
  _space_group_symop_operation_xyz
  'x, y, z'

loop_
  _atom_site_type_symbol
  _atom_site_label
  _atom_site_symmetry_multiplicity
  _atom_site_fract_x
  _atom_site_fract_y
  _atom_site_fract_z
  _atom_site_occupancy
  Co  Co1       1.0  0.2499998774586352  0.24999989354429783  0.2500001919149198  1.0000
  Co  Co2       1.0  0.7500000630431615  0.7500001951387202  0.749999602588538  1.0000
  V   V1        1.0  4.655706927100216e-08  2.7598013858090844e-08  0.999999950046068  1.0000
  S   S1        1.0  0.2572213449750018  0.25722122001414005  0.7427786800913463  1.0000
  S   S2        1.0  0.7427786529389311  0.7427786518273434  0.25722154661800134  1.0000
  S   S3        1.0  0.7427787552948614  0.25722118930368015  0.25722140445931085  1.0000
  S   S4        1.0  0.25722128915679715  0.7427787436476909  0.742778623566837  1.0000
  S   S5        1.0  0.2572212296965391  0.7427787646479987  0.2572213663214833  1.0000
  S   S6        1.0  0.7427787331078215  0.25722132403501885  0.7427786278815875  1.0000
