data_image0
_chemical_formula_structural       Co2ZnO6
_chemical_formula_sum              "Co2 Zn1 O6"
_cell_length_a       4.959929344441521
_cell_length_b       4.959929802130625
_cell_length_c       4.959929214512155
_cell_angle_alpha    59.999999184579885
_cell_angle_beta     60.000002083769644
_cell_angle_gamma    60.00000272512264

_space_group_name_H-M_alt    "P 1"
_space_group_IT_number       1

loop_
  _space_group_symop_operation_xyz
  'x, y, z'

loop_
  _atom_site_type_symbol
  _atom_site_label
  _atom_site_symmetry_multiplicity
  _atom_site_fract_x
  _atom_site_fract_y
  _atom_site_fract_z
  _atom_site_occupancy
  Co  Co1       1.0  0.250001807651673  0.24999992609737137  0.24999914719487026  1.0000
  Co  Co2       1.0  0.7500003665818439  0.74999948444782  0.7500012336447337  1.0000
  Zn  Zn1       1.0  4.451555235748257e-08  0.9999999851843236  7.386100635052477e-08  1.0000
  O   O1        1.0  0.2661409517238041  0.26614169998996906  0.733858766966779  1.0000
  O   O2        1.0  0.7338581514732522  0.7338589896415936  0.26614104208491335  1.0000
  O   O3        1.0  0.7338579092154598  0.2661419030206688  0.26614079910271027  1.0000
  O   O4        1.0  0.26614085002219523  0.733858470543256  0.7338587996322179  1.0000
  O   O5        1.0  0.26614188689392954  0.7338585694066143  0.2661408370864602  1.0000
  O   O6        1.0  0.7338579068372058  0.2661410683122539  0.7338592998341037  1.0000
