data_image0
_chemical_formula_structural       Co2ZnSe6
_chemical_formula_sum              "Co2 Zn1 Se6"
_cell_length_a       6.470907926068294
_cell_length_b       6.470909419279469
_cell_length_c       6.470908293275777
_cell_angle_alpha    60.00000651979592
_cell_angle_beta     59.99999379478595
_cell_angle_gamma    60.00000104360916

_space_group_name_H-M_alt    "P 1"
_space_group_IT_number       1

loop_
  _space_group_symop_operation_xyz
  'x, y, z'

loop_
  _atom_site_type_symbol
  _atom_site_label
  _atom_site_symmetry_multiplicity
  _atom_site_fract_x
  _atom_site_fract_y
  _atom_site_fract_z
  _atom_site_occupancy
  Co  Co1       1.0  0.25000082338012675  0.24999764095421403  0.2500018418371063  1.0000
  Co  Co2       1.0  0.7499985302981248  0.750003270217651  0.7499996467056297  1.0000
  Zn  Zn1       1.0  3.4792222365185965e-09  0.9999999735022925  3.005377959386848e-08  1.0000
  Se  Se1       1.0  0.2837873402199987  0.2837845284710369  0.7162138256967968  1.0000
  Se  Se2       1.0  0.716212803264619  0.7162154212124875  0.28378593132224283  1.0000
  Se  Se3       1.0  0.7162136112652977  0.28378480328252653  0.28378707730005803  1.0000
  Se  Se4       1.0  0.2837859533154818  0.7162153413484468  0.7162126831610672  1.0000
  Se  Se5       1.0  0.2837863818518814  0.7162146851246506  0.28378537056327885  1.0000
  Se  Se6       1.0  0.7162145521596252  0.28378432767557155  0.7162136065852219  1.0000
