data_image0
_chemical_formula_structural       Co2ZnTe6
_chemical_formula_sum              "Co2 Zn1 Te6"
_cell_length_a       7.116227889016915
_cell_length_b       7.1162284169037635
_cell_length_c       7.116228091869328
_cell_angle_alpha    60.00000249527284
_cell_angle_beta     59.999999989165666
_cell_angle_gamma    60.00000020600437

_space_group_name_H-M_alt    "P 1"
_space_group_IT_number       1

loop_
  _space_group_symop_operation_xyz
  'x, y, z'

loop_
  _atom_site_type_symbol
  _atom_site_label
  _atom_site_symmetry_multiplicity
  _atom_site_fract_x
  _atom_site_fract_y
  _atom_site_fract_z
  _atom_site_occupancy
  Co  Co1       1.0  0.250000068504151  0.24999998448411928  0.24999994537759082  1.0000
  Co  Co2       1.0  0.7499999519180011  0.750000261521913  0.750000198146376  1.0000
  Zn  Zn1       1.0  0.9999999226198956  1.153109526789889e-07  4.2368480598600867e-07  1.0000
  Te  Te1       1.0  0.26818446024004  0.26818428844089387  0.7318155688558985  1.0000
  Te  Te2       1.0  0.731815750659968  0.7318155273004004  0.2681841226293057  1.0000
  Te  Te3       1.0  0.7318157366761643  0.26818405101920034  0.2681841118237452  1.0000
  Te  Te4       1.0  0.2681842529246988  0.7318156838323308  0.7318157504292544  1.0000
  Te  Te5       1.0  0.26818431779927476  0.7318158558397705  0.26818397664970783  1.0000
  Te  Te6       1.0  0.7318155456074799  0.2681842283867245  0.7318159103210318  1.0000
