data_image0
_chemical_formula_structural       Co2ZnS6
_chemical_formula_sum              "Co2 Zn1 S6"
_cell_length_a       6.272507683659715
_cell_length_b       6.272507816373143
_cell_length_c       6.272507900738682
_cell_angle_alpha    60.00000099647687
_cell_angle_beta     59.99999927138236
_cell_angle_gamma    59.99999954771395

_space_group_name_H-M_alt    "P 1"
_space_group_IT_number       1

loop_
  _space_group_symop_operation_xyz
  'x, y, z'

loop_
  _atom_site_type_symbol
  _atom_site_label
  _atom_site_symmetry_multiplicity
  _atom_site_fract_x
  _atom_site_fract_y
  _atom_site_fract_z
  _atom_site_occupancy
  Co  Co1       1.0  0.24999994414113708  0.25000021105299436  0.2499999402020956  1.0000
  Co  Co2       1.0  0.749999999418493  0.7499998560400534  0.750000018852873  1.0000
  Zn  Zn1       1.0  0.9999999789301943  1.0739080774139956e-07  3.176965677481648e-08  1.0000
  S   S1        1.0  0.2634640278031991  0.2634640906755521  0.7365359810095425  1.0000
  S   S2        1.0  0.7365359538217752  0.7365358787894917  0.2634641672526205  1.0000
  S   S3        1.0  0.7365359702863162  0.2634641394363321  0.2634639308867208  1.0000
  S   S4        1.0  0.26346407880078676  0.7365358319812675  0.7365359483120779  1.0000
  S   S5        1.0  0.2634641022602855  0.7365357390826075  0.263464070336171  1.0000
  S   S6        1.0  0.7365359545637081  0.2634641483749078  0.7365359011790182  1.0000
