data_image0
_chemical_formula_structural       Cr2AgTe6
_chemical_formula_sum              "Cr2 Ag1 Te6"
_cell_length_a       7.118826122995072
_cell_length_b       7.118826085872414
_cell_length_c       7.118826272039775
_cell_angle_alpha    59.99999923497025
_cell_angle_beta     59.999998520940785
_cell_angle_gamma    59.99999977281202

_space_group_name_H-M_alt    "P 1"
_space_group_IT_number       1

loop_
  _space_group_symop_operation_xyz
  'x, y, z'

loop_
  _atom_site_type_symbol
  _atom_site_label
  _atom_site_symmetry_multiplicity
  _atom_site_fract_x
  _atom_site_fract_y
  _atom_site_fract_z
  _atom_site_occupancy
  Cr  Cr1       1.0  0.25000002597263987  0.24999992917028072  0.2500000554041406  1.0000
  Cr  Cr2       1.0  0.7499999933891519  0.7499999389087653  0.7499999838768941  1.0000
  Ag  Ag1       1.0  2.7805192866717263e-08  0.9999999311827618  0.9999999980304073  1.0000
  Te  Te1       1.0  0.26972050130949643  0.2697205191455268  0.7302794670158447  1.0000
  Te  Te2       1.0  0.7302794681429166  0.7302795278583388  0.26972054708979665  1.0000
  Te  Te3       1.0  0.7302794533363905  0.26972058440422597  0.26972050824426996  1.0000
  Te  Te4       1.0  0.2697205144602217  0.7302795210942922  0.7302794746324934  1.0000
  Te  Te5       1.0  0.2697205521652475  0.7302794675902512  0.2697205245367297  1.0000
  Te  Te6       1.0  0.7302794642278708  0.26972058457490755  0.7302794396375708  1.0000
