data_image0
_chemical_formula_structural       Cr2AuS6
_chemical_formula_sum              "Cr2 Au1 S6"
_cell_length_a       6.4220695077011545
_cell_length_b       6.422069605094895
_cell_length_c       6.422069571757812
_cell_angle_alpha    60.00000003015254
_cell_angle_beta     60.00000009210428
_cell_angle_gamma    60.00000057218854

_space_group_name_H-M_alt    "P 1"
_space_group_IT_number       1

loop_
  _space_group_symop_operation_xyz
  'x, y, z'

loop_
  _atom_site_type_symbol
  _atom_site_label
  _atom_site_symmetry_multiplicity
  _atom_site_fract_x
  _atom_site_fract_y
  _atom_site_fract_z
  _atom_site_occupancy
  Cr  Cr1       1.0  0.25000007863982737  0.24999993381497645  0.2500000323153913  1.0000
  Cr  Cr2       1.0  0.7499999522280587  0.7500000322025165  0.7500000050711775  1.0000
  Au  Au1       1.0  0.9999999587359096  2.6699224957715383e-08  0.9999999823683455  1.0000
  S   S1        1.0  0.26300320017966033  0.2630031909756659  0.7369967938062283  1.0000
  S   S2        1.0  0.7369967665577988  0.7369968379757145  0.2630032114788709  1.0000
  S   S3        1.0  0.7369967312333818  0.26300321236808877  0.2630032296654696  1.0000
  S   S4        1.0  0.2630032280938633  0.7369968280258168  0.7369967518036479  1.0000
  S   S5        1.0  0.2630032715232756  0.7369967456305867  0.2630032188986141  1.0000
  S   S6        1.0  0.7369968085455421  0.2630031860593317  0.7369967845800589  1.0000
