data_image0
_chemical_formula_structural       Cr2AuSe6
_chemical_formula_sum              "Cr2 Au1 Se6"
_cell_length_a       6.725620735603672
_cell_length_b       6.725620589302344
_cell_length_c       6.725620606974734
_cell_angle_alpha    59.99999905655773
_cell_angle_beta     60.00000067710065
_cell_angle_gamma    59.999999317960985

_space_group_name_H-M_alt    "P 1"
_space_group_IT_number       1

loop_
  _space_group_symop_operation_xyz
  'x, y, z'

loop_
  _atom_site_type_symbol
  _atom_site_label
  _atom_site_symmetry_multiplicity
  _atom_site_fract_x
  _atom_site_fract_y
  _atom_site_fract_z
  _atom_site_occupancy
  Cr  Cr1       1.0  0.2500002298871224  0.2500002001111659  0.24999961196007797  1.0000
  Cr  Cr2       1.0  0.7499996735076092  0.7500001978894095  0.7500001488409233  1.0000
  Au  Au1       1.0  0.9999999884847807  3.6420277692303948e-09  1.5831408816475955e-08  1.0000
  Se  Se1       1.0  0.2698736305947492  0.26987331370957984  0.7301266604580081  1.0000
  Se  Se2       1.0  0.7301265106564602  0.7301265252397119  0.2698735018103646  1.0000
  Se  Se3       1.0  0.7301264192122409  0.26987350373820373  0.26987347808967005  1.0000
  Se  Se4       1.0  0.2698735536638563  0.7301263716313683  0.7301266193131747  1.0000
  Se  Se5       1.0  0.26987362975479795  0.7301264672282964  0.26987334630761767  1.0000
  Se  Se6       1.0  0.7301263635154278  0.26987341906736034  0.7301266135132861  1.0000
