data_image0
_chemical_formula_structural       Cr2AuO6
_chemical_formula_sum              "Cr2 Au1 O6"
_cell_length_a       5.297629517370541
_cell_length_b       5.297629407985801
_cell_length_c       5.297629647421168
_cell_angle_alpha    59.99999735272699
_cell_angle_beta     59.99999910324007
_cell_angle_gamma    60.00000011573273

_space_group_name_H-M_alt    "P 1"
_space_group_IT_number       1

loop_
  _space_group_symop_operation_xyz
  'x, y, z'

loop_
  _atom_site_type_symbol
  _atom_site_label
  _atom_site_symmetry_multiplicity
  _atom_site_fract_x
  _atom_site_fract_y
  _atom_site_fract_z
  _atom_site_occupancy
  Cr  Cr1       1.0  0.25000026236927564  0.2499996642189816  0.24999998270235171  1.0000
  Cr  Cr2       1.0  0.7499998522127029  0.7500002410686077  0.7500000669437294  1.0000
  Au  Au1       1.0  0.9999999575514914  1.6183113986797863e-08  0.9999999772676004  1.0000
  O   O1        1.0  0.2633112722049824  0.26331114135819583  0.7366888063449573  1.0000
  O   O2        1.0  0.7366886115072483  0.7366889072655466  0.26331115870862637  1.0000
  O   O3        1.0  0.7366887230473173  0.26331111311904776  0.2633113502543649  1.0000
  O   O4        1.0  0.26331131341836134  0.7366888499653772  0.7366887076638113  1.0000
  O   O5        1.0  0.2633112383419865  0.7366888606205907  0.2633111508576208  1.0000
  O   O6        1.0  0.7366887526795342  0.26331119956252075  0.7366888170536434  1.0000
