data_image0
_chemical_formula_structural       Cr2AgSe6
_chemical_formula_sum              "Cr2 Ag1 Se6"
_cell_length_a       6.573073667373971
_cell_length_b       6.573073625666183
_cell_length_c       6.573073645120607
_cell_angle_alpha    59.99999933334338
_cell_angle_beta     59.99999819392815
_cell_angle_gamma    60.000000933091144

_space_group_name_H-M_alt    "P 1"
_space_group_IT_number       1

loop_
  _space_group_symop_operation_xyz
  'x, y, z'

loop_
  _atom_site_type_symbol
  _atom_site_label
  _atom_site_symmetry_multiplicity
  _atom_site_fract_x
  _atom_site_fract_y
  _atom_site_fract_z
  _atom_site_occupancy
  Cr  Cr1       1.0  0.24999987234193774  0.2499995755219374  0.2500001158014854  1.0000
  Cr  Cr2       1.0  0.7499998564434236  0.7500003587953766  0.7499996428273165  1.0000
  Ag  Ag1       1.0  0.999999979275693  0.9999999198791423  7.780703202289711e-08  1.0000
  Se  Se1       1.0  0.27909037293514277  0.27909004929187775  0.7209097646059146  1.0000
  Se  Se2       1.0  0.7209097142531414  0.7209100061383675  0.279090238056887  1.0000
  Se  Se3       1.0  0.7209099690953817  0.27909007053424123  0.2790903798837755  1.0000
  Se  Se4       1.0  0.2790902681443128  0.7209097929786045  0.7209097578138902  1.0000
  Se  Se5       1.0  0.27909011227016955  0.7209100069016846  0.27909035374624047  1.0000
  Se  Se6       1.0  0.7209098638340797  0.2790902236764795  0.7209096640467267  1.0000
