data_image0
_chemical_formula_structural       Cr2AgO6
_chemical_formula_sum              "Cr2 Ag1 O6"
_cell_length_a       5.173664289916261
_cell_length_b       5.173664523596094
_cell_length_c       5.173664314616693
_cell_angle_alpha    60.000001894227225
_cell_angle_beta     60.000000710568465
_cell_angle_gamma    60.000004206605105

_space_group_name_H-M_alt    "P 1"
_space_group_IT_number       1

loop_
  _space_group_symop_operation_xyz
  'x, y, z'

loop_
  _atom_site_type_symbol
  _atom_site_label
  _atom_site_symmetry_multiplicity
  _atom_site_fract_x
  _atom_site_fract_y
  _atom_site_fract_z
  _atom_site_occupancy
  Cr  Cr1       1.0  0.24999973657355776  0.25000048274420034  0.2500000984404495  1.0000
  Cr  Cr2       1.0  0.750000090804075  0.749999601763912  0.7499998792312866  1.0000
  Ag  Ag1       1.0  5.5367650509346664e-08  6.154895835055857e-08  0.9999998893543134  1.0000
  O   O1        1.0  0.2681580199220134  0.2681583763504246  0.7318418019296032  1.0000
  O   O2        1.0  0.7318420342062768  0.731841677383216  0.26815824398052013  1.0000
  O   O3        1.0  0.7318417310976949  0.26815817043994505  0.2681582440864616  1.0000
  O   O4        1.0  0.26815836600111276  0.731841814642937  0.731841795335122  1.0000
  O   O5        1.0  0.26815814141493083  0.7318416593589732  0.26815828564892474  1.0000
  O   O6        1.0  0.7318418566495252  0.26815817421878085  0.7318417881976939  1.0000
