data_image0
_chemical_formula_structural       Cr2BeSe6
_chemical_formula_sum              "Cr2 Be1 Se6"
_cell_length_a       6.195167891135165
_cell_length_b       6.195167528948076
_cell_length_c       6.195167545560443
_cell_angle_alpha    60.00000582282173
_cell_angle_beta     60.00000619602075
_cell_angle_gamma    60.00000898025431

_space_group_name_H-M_alt    "P 1"
_space_group_IT_number       1

loop_
  _space_group_symop_operation_xyz
  'x, y, z'

loop_
  _atom_site_type_symbol
  _atom_site_label
  _atom_site_symmetry_multiplicity
  _atom_site_fract_x
  _atom_site_fract_y
  _atom_site_fract_z
  _atom_site_occupancy
  Cr  Cr1       1.0  0.2500017962279207  0.2500019264259588  0.24999824962098266  1.0000
  Cr  Cr2       1.0  0.7500000144568157  0.7499993621442265  0.7500001651368622  1.0000
  Be  Be1       1.0  4.469415123484134e-08  6.721581677037723e-08  0.9999999472733432  1.0000
  Se  Se1       1.0  0.23702506753690075  0.23702555251853413  0.762974533128385  1.0000
  Se  Se2       1.0  0.7629748050759977  0.7629747396759318  0.2370253875930024  1.0000
  Se  Se3       1.0  0.7629736753600629  0.23702548011834307  0.23702505919672215  1.0000
  Se  Se4       1.0  0.2370253820238088  0.7629737741848273  0.762975763872333  1.0000
  Se  Se5       1.0  0.23702536150697817  0.7629736882773462  0.2370251650581331  1.0000
  Se  Se6       1.0  0.7629738553818302  0.23702541182485382  0.7629757118545846  1.0000
