data_image0
_chemical_formula_structural       Cr2BeTe6
_chemical_formula_sum              "Cr2 Be1 Te6"
_cell_length_a       6.909765315563675
_cell_length_b       6.909765498924495
_cell_length_c       6.909765526338549
_cell_angle_alpha    59.99999897962106
_cell_angle_beta     59.99999940218778
_cell_angle_gamma    59.99999788417649

_space_group_name_H-M_alt    "P 1"
_space_group_IT_number       1

loop_
  _space_group_symop_operation_xyz
  'x, y, z'

loop_
  _atom_site_type_symbol
  _atom_site_label
  _atom_site_symmetry_multiplicity
  _atom_site_fract_x
  _atom_site_fract_y
  _atom_site_fract_z
  _atom_site_occupancy
  Cr  Cr1       1.0  0.24999999754427296  0.24999947725986552  0.25000019032223064  1.0000
  Cr  Cr2       1.0  0.7500002100013269  0.7500000908246233  0.7500002188868938  1.0000
  Be  Be1       1.0  6.176463375624609e-08  0.9999999450529935  5.3033044255054653e-08  1.0000
  Te  Te1       1.0  0.24510613607212775  0.24510615366039956  0.7548939372703424  1.0000
  Te  Te2       1.0  0.7548936878670733  0.7548939887089229  0.24510600176773806  1.0000
  Te  Te3       1.0  0.754893950659772  0.24510615602082877  0.24510609754227974  1.0000
  Te  Te4       1.0  0.24510591510646995  0.7548940714277267  0.7548936839729012  1.0000
  Te  Te5       1.0  0.245106098940583  0.7548941252153971  0.24510608878919518  1.0000
  Te  Te6       1.0  0.754893943830574  0.24510599233914485  0.7548937242957561  1.0000
