data_image0
_chemical_formula_structural       Cr2BeS6
_chemical_formula_sum              "Cr2 Be1 S6"
_cell_length_a       5.893296149589723
_cell_length_b       5.893296455725563
_cell_length_c       5.893296826175892
_cell_angle_alpha    59.99999995350954
_cell_angle_beta     59.99999793758423
_cell_angle_gamma    59.99999996380247

_space_group_name_H-M_alt    "P 1"
_space_group_IT_number       1

loop_
  _space_group_symop_operation_xyz
  'x, y, z'

loop_
  _atom_site_type_symbol
  _atom_site_label
  _atom_site_symmetry_multiplicity
  _atom_site_fract_x
  _atom_site_fract_y
  _atom_site_fract_z
  _atom_site_occupancy
  Cr  Cr1       1.0  0.24999975858803566  0.2500001211464242  0.25000007521259976  1.0000
  Cr  Cr2       1.0  0.7500001410037986  0.7500003364226672  0.7499997929515223  1.0000
  Be  Be1       1.0  0.9999999708271293  2.2860201404167368e-08  8.460480295578154e-08  1.0000
  S   S1        1.0  0.2512867987978631  0.2512866183042847  0.748713355249874  1.0000
  S   S2        1.0  0.7487131958446742  0.7487131015038112  0.2512869157178525  1.0000
  S   S3        1.0  0.7487134055844271  0.25128672552487913  0.25128674914540833  1.0000
  S   S4        1.0  0.251286546264783  0.748713251980012  0.7487131835999276  1.0000
  S   S5        1.0  0.2512866699941975  0.74871318974529  0.25128684861835027  1.0000
  S   S6        1.0  0.7487135005717306  0.2512866547547992  0.7487129683067751  1.0000
