data_image0
_chemical_formula_structural       Cr2CuSe6
_chemical_formula_sum              "Cr2 Cu1 Se6"
_cell_length_a       6.5168134927902255
_cell_length_b       6.51681348007963
_cell_length_c       6.516813769003171
_cell_angle_alpha    60.00000193641504
_cell_angle_beta     59.9999997002338
_cell_angle_gamma    59.999999857754304

_space_group_name_H-M_alt    "P 1"
_space_group_IT_number       1

loop_
  _space_group_symop_operation_xyz
  'x, y, z'

loop_
  _atom_site_type_symbol
  _atom_site_label
  _atom_site_symmetry_multiplicity
  _atom_site_fract_x
  _atom_site_fract_y
  _atom_site_fract_z
  _atom_site_occupancy
  Cr  Cr1       1.0  0.2499997530682768  0.25000021999414673  0.250000170135999  1.0000
  Cr  Cr2       1.0  0.7500000722613019  0.7499998048729241  0.7500001002421913  1.0000
  Cu  Cu1       1.0  1.9097622202609403e-08  0.9999999586540452  0.9999999788998288  1.0000
  Se  Se1       1.0  0.262725184717873  0.2627253243710215  0.737274706984766  1.0000
  Se  Se2       1.0  0.7372748177996132  0.7372747004960382  0.26272520779783193  1.0000
  Se  Se3       1.0  0.7372747447880744  0.2627253219506023  0.26272516950531544  1.0000
  Se  Se4       1.0  0.26272524770615013  0.7372747329862445  0.7372748150476159  1.0000
  Se  Se5       1.0  0.2627252799872414  0.737274705379875  0.262725190821482  1.0000
  Se  Se6       1.0  0.7372748790298985  0.262725227398467  0.7372746564623257  1.0000
