data_image0
_chemical_formula_structural       Cr2CS6
_chemical_formula_sum              "Cr2 C1 S6"
_cell_length_a       5.9564782651638275
_cell_length_b       5.956478157157763
_cell_length_c       5.956477855671909
_cell_angle_alpha    59.99999976357559
_cell_angle_beta     59.999998678984
_cell_angle_gamma    59.99999876002924

_space_group_name_H-M_alt    "P 1"
_space_group_IT_number       1

loop_
  _space_group_symop_operation_xyz
  'x, y, z'

loop_
  _atom_site_type_symbol
  _atom_site_label
  _atom_site_symmetry_multiplicity
  _atom_site_fract_x
  _atom_site_fract_y
  _atom_site_fract_z
  _atom_site_occupancy
  Cr  Cr1       1.0  0.24999991222176313  0.2499998717786772  0.25000016847184287  1.0000
  Cr  Cr2       1.0  0.7500003158988643  0.7499999073101853  0.7500007933936176  1.0000
  C   C1        1.0  1.2441614313209653e-05  1.3981870036789924e-07  0.9999724416812129  1.0000
  S   S1        1.0  0.23447090349801267  0.23447111915599284  0.7655289729276957  1.0000
  S   S2        1.0  0.765522676605934  0.7655229335382427  0.23447666854133395  1.0000
  S   S3        1.0  0.7655194861684855  0.2344810468557391  0.23448064854303835  1.0000
  S   S4        1.0  0.23446709124256254  0.7655324262326129  0.7655327604556327  1.0000
  S   S5        1.0  0.234477701742051  0.765522478725649  0.23447783316518483  1.0000
  S   S6        1.0  0.7655294379655476  0.2344701161537685  0.7655297235261634  1.0000
