data_image0
_chemical_formula_structural       Cr2CN6
_chemical_formula_sum              "Cr2 C1 N6"
_cell_length_a       4.7160344704557575
_cell_length_b       4.716034398283471
_cell_length_c       4.716034577422369
_cell_angle_alpha    59.999999838435194
_cell_angle_beta     59.99999916051297
_cell_angle_gamma    60.000000004222

_space_group_name_H-M_alt    "P 1"
_space_group_IT_number       1

loop_
  _space_group_symop_operation_xyz
  'x, y, z'

loop_
  _atom_site_type_symbol
  _atom_site_label
  _atom_site_symmetry_multiplicity
  _atom_site_fract_x
  _atom_site_fract_y
  _atom_site_fract_z
  _atom_site_occupancy
  Cr  Cr1       1.0  0.2500001321516811  0.2499999481066526  0.24999994720143517  1.0000
  Cr  Cr2       1.0  0.7499999328012419  0.7500001481666588  0.7500000042044532  1.0000
  C   C1        1.0  0.9999996804826051  3.635772486082861e-07  0.9999999376819917  1.0000
  N   N1        1.0  0.23871163145085877  0.23871156638423915  0.761288409804787  1.0000
  N   N2        1.0  0.7612883977173242  0.7612883948460926  0.238711586726876  1.0000
  N   N3        1.0  0.7612884711440552  0.23871145940857313  0.23871160473090425  1.0000
  N   N4        1.0  0.23871163068861204  0.7612883719727397  0.7612883313351536  1.0000
  N   N5        1.0  0.23871168123659117  0.7612882951914751  0.2387116564439206  1.0000
  N   N6        1.0  0.7612884116933911  0.23871148944419457  0.7612885703790633  1.0000
