data_image0
_chemical_formula_structural       Cr2CdS6
_chemical_formula_sum              "Cr2 Cd1 S6"
_cell_length_a       6.40498518781683
_cell_length_b       6.404984972838023
_cell_length_c       6.40498508906786
_cell_angle_alpha    59.99999893922201
_cell_angle_beta     59.99999969273125
_cell_angle_gamma    59.999999954745384

_space_group_name_H-M_alt    "P 1"
_space_group_IT_number       1

loop_
  _space_group_symop_operation_xyz
  'x, y, z'

loop_
  _atom_site_type_symbol
  _atom_site_label
  _atom_site_symmetry_multiplicity
  _atom_site_fract_x
  _atom_site_fract_y
  _atom_site_fract_z
  _atom_site_occupancy
  Cr  Cr1       1.0  0.2500001686852191  0.2499998763028718  0.25000000404829786  1.0000
  Cr  Cr2       1.0  0.7499998277500041  0.7500002197705236  0.7500000589893361  1.0000
  Cd  Cd1       1.0  0.9999999348611672  4.39800123479215e-08  3.7121236514057395e-08  1.0000
  S   S1        1.0  0.2690214093270922  0.26902137077454963  0.7309786527740868  1.0000
  S   S2        1.0  0.7309785713389936  0.7309786698457856  0.2690213350234906  1.0000
  S   S3        1.0  0.7309786386664202  0.2690213253542728  0.26902138596947955  1.0000
  S   S4        1.0  0.2690214427948949  0.730978629218212  0.7309785163902137  1.0000
  S   S5        1.0  0.2690214123456038  0.7309786129934961  0.2690213659236156  1.0000
  S   S6        1.0  0.7309786010836917  0.26902125361896145  0.7309786440964958  1.0000
