data_image0
_chemical_formula_structural       Cr2CuO6
_chemical_formula_sum              "Cr2 Cu1 O6"
_cell_length_a       5.072539413278851
_cell_length_b       5.072539568946707
_cell_length_c       5.072539429046109
_cell_angle_alpha    60.000003585758705
_cell_angle_beta     60.00000375088809
_cell_angle_gamma    60.000002079018685

_space_group_name_H-M_alt    "P 1"
_space_group_IT_number       1

loop_
  _space_group_symop_operation_xyz
  'x, y, z'

loop_
  _atom_site_type_symbol
  _atom_site_label
  _atom_site_symmetry_multiplicity
  _atom_site_fract_x
  _atom_site_fract_y
  _atom_site_fract_z
  _atom_site_occupancy
  Cr  Cr1       1.0  0.2500003571911476  0.2499994014899049  0.25000050272303587  1.0000
  Cr  Cr2       1.0  0.7499999610086988  0.750000457161688  0.7499995038983124  1.0000
  Cu  Cu1       1.0  0.999999973464621  3.863137387924208e-08  0.9999999821236075  1.0000
  O   O1        1.0  0.2569632962773655  0.25696323594818465  0.7430365003260642  1.0000
  O   O2        1.0  0.7430366240813304  0.7430368738073397  0.25696345349434013  1.0000
  O   O3        1.0  0.7430366329252874  0.2569630439577907  0.25696338477580577  1.0000
  O   O4        1.0  0.2569632418388843  0.743036949903612  0.7430365985325398  1.0000
  O   O5        1.0  0.2569631872302521  0.7430369205205609  0.2569632556905085  1.0000
  O   O6        1.0  0.7430367452481335  0.256963070926382  0.7430368024807181  1.0000
