data_image0
_chemical_formula_structural       Cr2CoN6
_chemical_formula_sum              "Cr2 Co1 N6"
_cell_length_a       4.7804019235750355
_cell_length_b       4.780402056887357
_cell_length_c       4.780402026776821
_cell_angle_alpha    59.999999584278754
_cell_angle_beta     59.99999953970467
_cell_angle_gamma    59.999999902658764

_space_group_name_H-M_alt    "P 1"
_space_group_IT_number       1

loop_
  _space_group_symop_operation_xyz
  'x, y, z'

loop_
  _atom_site_type_symbol
  _atom_site_label
  _atom_site_symmetry_multiplicity
  _atom_site_fract_x
  _atom_site_fract_y
  _atom_site_fract_z
  _atom_site_occupancy
  Cr  Cr1       1.0  0.24999972917593416  0.2499999357458838  0.2500001473038965  1.0000
  Cr  Cr2       1.0  0.7500000466839192  0.7499998892220404  0.7500001010376428  1.0000
  Co  Co1       1.0  0.9999999694275159  4.099219597533511e-08  5.336262339610082e-08  1.0000
  N   N1        1.0  0.2567946560769422  0.2567945701558295  0.7432053763799669  1.0000
  N   N2        1.0  0.7432054490930601  0.7432053393584999  0.2567945018671024  1.0000
  N   N3        1.0  0.743205467853362  0.25679469101336555  0.2567945794178072  1.0000
  N   N4        1.0  0.25679464219358467  0.7432053850317606  0.7432053281784758  1.0000
  N   N5        1.0  0.2567946314960278  0.7432054786100001  0.2567946026627218  1.0000
  N   N6        1.0  0.7432054184064779  0.25679466917146976  0.7432053179644776  1.0000
