data_image0
_chemical_formula_structural       Cr2CoS6
_chemical_formula_sum              "Cr2 Co1 S6"
_cell_length_a       6.174931053903936
_cell_length_b       6.1749308374862215
_cell_length_c       6.174931072517931
_cell_angle_alpha    59.99999990140924
_cell_angle_beta     59.9999991103742
_cell_angle_gamma    60.000000475966324

_space_group_name_H-M_alt    "P 1"
_space_group_IT_number       1

loop_
  _space_group_symop_operation_xyz
  'x, y, z'

loop_
  _atom_site_type_symbol
  _atom_site_label
  _atom_site_symmetry_multiplicity
  _atom_site_fract_x
  _atom_site_fract_y
  _atom_site_fract_z
  _atom_site_occupancy
  Cr  Cr1       1.0  0.25000013156021317  0.25000018229107873  0.24999980065519598  1.0000
  Cr  Cr2       1.0  0.7499998884378455  0.7499998328439342  0.7500002679749342  1.0000
  Co  Co1       1.0  0.999999966794071  0.9999999761990223  0.999999991256074  1.0000
  S   S1        1.0  0.24738859129817833  0.2473886043632685  0.7526113911182206  1.0000
  S   S2        1.0  0.7526114620387077  0.7526113949044242  0.24738848253925907  1.0000
  S   S3        1.0  0.7526113856554661  0.24738865704894403  0.24738851002660445  1.0000
  S   S4        1.0  0.24738855604970836  0.7526113124675284  0.7526115687367972  1.0000
  S   S5        1.0  0.24738867944432102  0.7526113975334443  0.24738848090359475  1.0000
  S   S6        1.0  0.7526113375688858  0.24738864338595895  0.7526115083098129  1.0000
