data_image0
_chemical_formula_structural       Cr2CdSe6
_chemical_formula_sum              "Cr2 Cd1 Se6"
_cell_length_a       6.608240663261986
_cell_length_b       6.608240563951143
_cell_length_c       6.608240876343598
_cell_angle_alpha    59.99999872538843
_cell_angle_beta     59.99999917734918
_cell_angle_gamma    59.99999789349034

_space_group_name_H-M_alt    "P 1"
_space_group_IT_number       1

loop_
  _space_group_symop_operation_xyz
  'x, y, z'

loop_
  _atom_site_type_symbol
  _atom_site_label
  _atom_site_symmetry_multiplicity
  _atom_site_fract_x
  _atom_site_fract_y
  _atom_site_fract_z
  _atom_site_occupancy
  Cr  Cr1       1.0  0.24999969485959314  0.25000043541616085  0.24999989831458955  1.0000
  Cr  Cr2       1.0  0.7500000141835287  0.7499998698944457  0.750000039114133  1.0000
  Cd  Cd1       1.0  0.9999999738773405  2.5947040718661594e-08  0.9999999713358309  1.0000
  Se  Se1       1.0  0.28497212127922383  0.28497226504330064  0.7150278357790447  1.0000
  Se  Se2       1.0  0.7150280054630213  0.7150275472735321  0.2849722194998903  1.0000
  Se  Se3       1.0  0.7150278706501936  0.28497228334791236  0.28497217656971446  1.0000
  Se  Se4       1.0  0.284972289255605  0.7150275919831613  0.7150279062834248  1.0000
  Se  Se5       1.0  0.28497222550667306  0.7150276280371045  0.2849722195020923  1.0000
  Se  Se6       1.0  0.7150277874599473  0.2849723473754125  0.7150277430200219  1.0000
