data_image0
_chemical_formula_structural       Cr2CoO6
_chemical_formula_sum              "Cr2 Co1 O6"
_cell_length_a       4.964678120801974
_cell_length_b       4.964678058034722
_cell_length_c       4.964678266501395
_cell_angle_alpha    60.00000163721528
_cell_angle_beta     59.999998985939406
_cell_angle_gamma    59.99999835568635

_space_group_name_H-M_alt    "P 1"
_space_group_IT_number       1

loop_
  _space_group_symop_operation_xyz
  'x, y, z'

loop_
  _atom_site_type_symbol
  _atom_site_label
  _atom_site_symmetry_multiplicity
  _atom_site_fract_x
  _atom_site_fract_y
  _atom_site_fract_z
  _atom_site_occupancy
  Cr  Cr1       1.0  0.25000057011222976  0.24999941051704758  0.24999976087364584  1.0000
  Cr  Cr2       1.0  0.7499998277096809  0.750000725604293  0.7500001955165985  1.0000
  Co  Co1       1.0  3.136033752105965e-08  1.8501877364615762e-07  0.9999999240381161  1.0000
  O   O1        1.0  0.2531515559203782  0.25315175040038485  0.7468483411659391  1.0000
  O   O2        1.0  0.7468482223879598  0.7468481859006767  0.25315149112048513  1.0000
  O   O3        1.0  0.746848329859698  0.2531514859988986  0.25315181244732926  1.0000
  O   O4        1.0  0.25315157963855156  0.74684823814731  0.7468483543990259  1.0000
  O   O5        1.0  0.2531516512055984  0.7468486799763419  0.2531515420675436  1.0000
  O   O6        1.0  0.746848150030468  0.25315135500140695  0.7468484832095559  1.0000
