data_image0
_chemical_formula_structural       Cr2CuS6
_chemical_formula_sum              "Cr2 Cu1 S6"
_cell_length_a       6.228881771280535
_cell_length_b       6.228881638083108
_cell_length_c       6.228881643631531
_cell_angle_alpha    60.00000006548778
_cell_angle_beta     60.00000063577747
_cell_angle_gamma    60.00000028869603

_space_group_name_H-M_alt    "P 1"
_space_group_IT_number       1

loop_
  _space_group_symop_operation_xyz
  'x, y, z'

loop_
  _atom_site_type_symbol
  _atom_site_label
  _atom_site_symmetry_multiplicity
  _atom_site_fract_x
  _atom_site_fract_y
  _atom_site_fract_z
  _atom_site_occupancy
  Cr  Cr1       1.0  0.250000045729646  0.24999993537578324  0.2499999562765722  1.0000
  Cr  Cr2       1.0  0.7499999726485983  0.7499999771898447  0.7500000132677052  1.0000
  Cu  Cu1       1.0  0.9999999462209519  3.342600482180105e-08  1.755352584233159e-07  1.0000
  S   S1        1.0  0.25728607056313935  0.25728605204051447  0.7427140120674071  1.0000
  S   S2        1.0  0.7427138974801373  0.7427139726005417  0.25728605504061053  1.0000
  S   S3        1.0  0.742713956105542  0.2572860092888847  0.25728599407196606  1.0000
  S   S4        1.0  0.25728611234418114  0.7427138698507386  0.7427139302248077  1.0000
  S   S5        1.0  0.2572860453745096  0.7427140324484908  0.2572859672582245  1.0000
  S   S6        1.0  0.7427139462602825  0.25728611606540713  0.7427138848402473  1.0000
