data_image0
_chemical_formula_structural       Cr2CoTe6
_chemical_formula_sum              "Cr2 Co1 Te6"
_cell_length_a       6.905043559457425
_cell_length_b       6.905043312622555
_cell_length_c       6.905043683825932
_cell_angle_alpha    59.99999902118967
_cell_angle_beta     59.999998920674415
_cell_angle_gamma    60.00000047127419

_space_group_name_H-M_alt    "P 1"
_space_group_IT_number       1

loop_
  _space_group_symop_operation_xyz
  'x, y, z'

loop_
  _atom_site_type_symbol
  _atom_site_label
  _atom_site_symmetry_multiplicity
  _atom_site_fract_x
  _atom_site_fract_y
  _atom_site_fract_z
  _atom_site_occupancy
  Cr  Cr1       1.0  0.2500000167448831  0.2499999920521631  0.25000004226438155  1.0000
  Cr  Cr2       1.0  0.7500000677339231  0.7499999938934507  0.7500000773142583  1.0000
  Co  Co1       1.0  4.1620942856522165e-08  0.9999999804893435  2.2253842099920117e-08  1.0000
  Te  Te1       1.0  0.2490539431080934  0.24905395051580026  0.7509460097822208  1.0000
  Te  Te2       1.0  0.7509460328595038  0.7509460549404663  0.24905387479086294  1.0000
  Te  Te3       1.0  0.750945991827933  0.24905398956272942  0.24905393253445327  1.0000
  Te  Te4       1.0  0.24905389598244634  0.7509460495937631  0.7509460429886642  1.0000
  Te  Te5       1.0  0.24905397048450784  0.7509460441279493  0.24905395265087354  1.0000
  Te  Te6       1.0  0.7509460348070023  0.24905394359135752  0.7509460477789414  1.0000
