data_image0
_chemical_formula_structural       Cr2CoSe6
_chemical_formula_sum              "Cr2 Co1 Se6"
_cell_length_a       6.475083022825875
_cell_length_b       6.4750831369973145
_cell_length_c       6.475083219536324
_cell_angle_alpha    59.999999683091346
_cell_angle_beta     59.99999768715165
_cell_angle_gamma    59.99999942416954

_space_group_name_H-M_alt    "P 1"
_space_group_IT_number       1

loop_
  _space_group_symop_operation_xyz
  'x, y, z'

loop_
  _atom_site_type_symbol
  _atom_site_label
  _atom_site_symmetry_multiplicity
  _atom_site_fract_x
  _atom_site_fract_y
  _atom_site_fract_z
  _atom_site_occupancy
  Cr  Cr1       1.0  0.2499999490970802  0.25000003977988017  0.25000002185673414  1.0000
  Cr  Cr2       1.0  0.7500000597757888  0.7500000115256451  0.7499999607259462  1.0000
  Co  Co1       1.0  1.8373861777853525e-08  0.9999999716278956  0.999999913880601  1.0000
  Se  Se1       1.0  0.2502093485411658  0.25020944410161666  0.7497905659543646  1.0000
  Se  Se2       1.0  0.7497906043293442  0.749790582614752  0.2502094322139673  1.0000
  Se  Se3       1.0  0.7497906696812928  0.25020934616443324  0.2502094038477631  1.0000
  Se  Se4       1.0  0.25020939620462995  0.7497906143503601  0.7497906527658786  1.0000
  Se  Se5       1.0  0.2502093427261193  0.7497906661407344  0.2502094080376867  1.0000
  Se  Se6       1.0  0.7497906076409848  0.25020933598647793  0.7497906438308503  1.0000
