data_image0
_chemical_formula_structural       Cr2CO6
_chemical_formula_sum              "Cr2 C1 O6"
_cell_length_a       4.7207058088259455
_cell_length_b       4.720706181449653
_cell_length_c       4.720706819425097
_cell_angle_alpha    59.99999579289361
_cell_angle_beta     59.99999260683838
_cell_angle_gamma    59.99999580022587

_space_group_name_H-M_alt    "P 1"
_space_group_IT_number       1

loop_
  _space_group_symop_operation_xyz
  'x, y, z'

loop_
  _atom_site_type_symbol
  _atom_site_label
  _atom_site_symmetry_multiplicity
  _atom_site_fract_x
  _atom_site_fract_y
  _atom_site_fract_z
  _atom_site_occupancy
  Cr  Cr1       1.0  0.24999952964468808  0.25000007407573527  0.2499999947504339  1.0000
  Cr  Cr2       1.0  0.7500000447569819  0.7499994724425708  0.7500004425513384  1.0000
  C   C1        1.0  0.9999996016906961  6.486026809958182e-08  0.9999998214372426  1.0000
  O   O1        1.0  0.23054200219292023  0.2305421206510476  0.7694581504486873  1.0000
  O   O2        1.0  0.7694581528214048  0.7694581056027672  0.2305418600383807  1.0000
  O   O3        1.0  0.7694581239191718  0.23054206995284135  0.23054196499083696  1.0000
  O   O4        1.0  0.2305420546186823  0.7694580343636842  0.7694580142066906  1.0000
  O   O5        1.0  0.23054222484689818  0.7694579983926292  0.23054193993877523  1.0000
  O   O6        1.0  0.7694582708360133  0.23054206441332223  0.7694578929682024  1.0000
