data_image0
_chemical_formula_structural       Cr2CdTe6
_chemical_formula_sum              "Cr2 Cd1 Te6"
_cell_length_a       7.281602695497474
_cell_length_b       7.281602795930709
_cell_length_c       7.281602728073216
_cell_angle_alpha    60.000000063469365
_cell_angle_beta     60.00000030420465
_cell_angle_gamma    59.99999988230432

_space_group_name_H-M_alt    "P 1"
_space_group_IT_number       1

loop_
  _space_group_symop_operation_xyz
  'x, y, z'

loop_
  _atom_site_type_symbol
  _atom_site_label
  _atom_site_symmetry_multiplicity
  _atom_site_fract_x
  _atom_site_fract_y
  _atom_site_fract_z
  _atom_site_occupancy
  Cr  Cr1       1.0  0.2500001654872687  0.2500000995995951  0.24999989338720924  1.0000
  Cr  Cr2       1.0  0.749999922512025  0.749999960722509  0.7499998409099888  1.0000
  Cd  Cd1       1.0  0.9999999929203479  0.9999999831802846  6.456387657750984e-09  1.0000
  Te  Te1       1.0  0.27450650629393725  0.27450648825373974  0.7254935144076156  1.0000
  Te  Te2       1.0  0.7254934823950101  0.725493513199359  0.2745066285770251  1.0000
  Te  Te3       1.0  0.7254933982341987  0.2745064837113953  0.2745065124777099  1.0000
  Te  Te4       1.0  0.2745066411364587  0.725493465600586  0.7254935035175001  1.0000
  Te  Te5       1.0  0.27450648359485724  0.7254934087537459  0.2745065158872057  1.0000
  Te  Te6       1.0  0.7254934020185194  0.27450659269935407  0.7254935852491853  1.0000
