data_image0
_chemical_formula_structural       Cr2FeSe6
_chemical_formula_sum              "Cr2 Fe1 Se6"
_cell_length_a       6.564373732999673
_cell_length_b       6.564373472247109
_cell_length_c       6.56437375250961
_cell_angle_alpha    59.9999984893506
_cell_angle_beta     59.99999830349892
_cell_angle_gamma    59.99999889806681

_space_group_name_H-M_alt    "P 1"
_space_group_IT_number       1

loop_
  _space_group_symop_operation_xyz
  'x, y, z'

loop_
  _atom_site_type_symbol
  _atom_site_label
  _atom_site_symmetry_multiplicity
  _atom_site_fract_x
  _atom_site_fract_y
  _atom_site_fract_z
  _atom_site_occupancy
  Cr  Cr1       1.0  0.24999976395129925  0.24999986602729782  0.2500000696461737  1.0000
  Cr  Cr2       1.0  0.7500000654691259  0.7500000477265159  0.7499997344122972  1.0000
  Fe  Fe1       1.0  2.690083294413399e-08  3.731490841560053e-09  0.9999999983942088  1.0000
  Se  Se1       1.0  0.2461889026453793  0.24618894003325795  0.753811172617863  1.0000
  Se  Se2       1.0  0.7538110731473693  0.7538110464846259  0.24618908399762293  1.0000
  Se  Se3       1.0  0.7538112057198398  0.24618886383533806  0.24618885904636714  1.0000
  Se  Se4       1.0  0.24618888819387807  0.7538112010438481  0.7538111165230339  1.0000
  Se  Se5       1.0  0.2461888581129622  0.7538111574976785  0.24618889634274488  1.0000
  Se  Se6       1.0  0.7538112248563079  0.24618886633511106  0.7538110519039687  1.0000
