data_image0
_chemical_formula_structural       Cr2FeO6
_chemical_formula_sum              "Cr2 Fe1 O6"
_cell_length_a       5.209736384505297
_cell_length_b       5.209736441129641
_cell_length_c       5.209736407492743
_cell_angle_alpha    60.00000139827588
_cell_angle_beta     60.00000255527098
_cell_angle_gamma    60.00000450106582

_space_group_name_H-M_alt    "P 1"
_space_group_IT_number       1

loop_
  _space_group_symop_operation_xyz
  'x, y, z'

loop_
  _atom_site_type_symbol
  _atom_site_label
  _atom_site_symmetry_multiplicity
  _atom_site_fract_x
  _atom_site_fract_y
  _atom_site_fract_z
  _atom_site_occupancy
  Cr  Cr1       1.0  0.2500000067022182  0.24999992470951685  0.25000011385734344  1.0000
  Cr  Cr2       1.0  0.7500003420686738  0.7499998987250313  0.7500000952589931  1.0000
  Fe  Fe1       1.0  0.999999969484739  1.1754382897069238e-08  5.160906252088027e-08  1.0000
  O   O1        1.0  0.24221060347557904  0.24221080128870595  0.7577892572252628  1.0000
  O   O2        1.0  0.7577892660512707  0.7577892031633352  0.2422107247856897  1.0000
  O   O3        1.0  0.75778919080542  0.24221093433225396  0.24221054070292444  1.0000
  O   O4        1.0  0.2422106387334593  0.757789229979406  0.7577892527668497  1.0000
  O   O5        1.0  0.24221068729048686  0.7577892682827478  0.2422106752409866  1.0000
  O   O6        1.0  0.7577892214828881  0.24221073146754116  0.7577892914170632  1.0000
