data_image0
_chemical_formula_structural       Cr2GeSe6
_chemical_formula_sum              "Cr2 Ge1 Se6"
_cell_length_a       6.660508973627643
_cell_length_b       6.66050878035831
_cell_length_c       6.66050894459873
_cell_angle_alpha    59.99999947508029
_cell_angle_beta     59.99999959314948
_cell_angle_gamma    60.0000001274069

_space_group_name_H-M_alt    "P 1"
_space_group_IT_number       1

loop_
  _space_group_symop_operation_xyz
  'x, y, z'

loop_
  _atom_site_type_symbol
  _atom_site_label
  _atom_site_symmetry_multiplicity
  _atom_site_fract_x
  _atom_site_fract_y
  _atom_site_fract_z
  _atom_site_occupancy
  Cr  Cr1       1.0  0.25000011135807165  0.24999997333417714  0.24999994630726288  1.0000
  Cr  Cr2       1.0  0.7500000315202151  0.7500002399564771  0.7499997536510927  1.0000
  Ge  Ge1       1.0  9.91218083744484e-09  0.9999999650625  2.4523753625431647e-08  1.0000
  Se  Se1       1.0  0.2590907764007687  0.2590906695407148  0.7409092443001285  1.0000
  Se  Se2       1.0  0.7409092898514387  0.7409092587334903  0.2590908106403563  1.0000
  Se  Se3       1.0  0.7409091990004665  0.2590906182017514  0.259090883903876  1.0000
  Se  Se4       1.0  0.25909067910692746  0.7409092972007413  0.7409092670407118  1.0000
  Se  Se5       1.0  0.25909073029597474  0.7409092504776422  0.25909078866824803  1.0000
  Se  Se6       1.0  0.7409091767396435  0.2590907237669563  0.7409092823578927  1.0000
