data_image0
_chemical_formula_structural       Cr2GeO6
_chemical_formula_sum              "Cr2 Ge1 O6"
_cell_length_a       5.093079032330244
_cell_length_b       5.093078445930811
_cell_length_c       5.093078918515257
_cell_angle_alpha    59.99999993622626
_cell_angle_beta     60.000000162053
_cell_angle_gamma    60.00000129191262

_space_group_name_H-M_alt    "P 1"
_space_group_IT_number       1

loop_
  _space_group_symop_operation_xyz
  'x, y, z'

loop_
  _atom_site_type_symbol
  _atom_site_label
  _atom_site_symmetry_multiplicity
  _atom_site_fract_x
  _atom_site_fract_y
  _atom_site_fract_z
  _atom_site_occupancy
  Cr  Cr1       1.0  0.25000012801791993  0.24999991874039407  0.24999993423217537  1.0000
  Cr  Cr2       1.0  0.7499999867916456  0.7499997033172415  0.7500001632575254  1.0000
  Ge  Ge1       1.0  4.259333926888885e-09  1.4428344647039115e-08  0.9999999788754679  1.0000
  O   O1        1.0  0.25626649663609774  0.25626651357371416  0.7437334822189345  1.0000
  O   O2        1.0  0.7437334721493557  0.7437335533578864  0.25626651689552093  1.0000
  O   O3        1.0  0.7437334507390897  0.2562666594962511  0.25626639485279384  1.0000
  O   O4        1.0  0.25626652250996557  0.7437335300762802  0.7437335092942163  1.0000
  O   O5        1.0  0.2562665041435822  0.7437335460697174  0.2562664596611112  1.0000
  O   O6        1.0  0.7437334667479416  0.256266568956366  0.7437335104261709  1.0000
