data_image0
_chemical_formula_structural       Cr2GeN6
_chemical_formula_sum              "Cr2 Ge1 N6"
_cell_length_a       4.678034416567143
_cell_length_b       4.678034506646809
_cell_length_c       4.678034965847917
_cell_angle_alpha    60.00000717731966
_cell_angle_beta     59.99999810220809
_cell_angle_gamma    60.000043420469204

_space_group_name_H-M_alt    "P 1"
_space_group_IT_number       1

loop_
  _space_group_symop_operation_xyz
  'x, y, z'

loop_
  _atom_site_type_symbol
  _atom_site_label
  _atom_site_symmetry_multiplicity
  _atom_site_fract_x
  _atom_site_fract_y
  _atom_site_fract_z
  _atom_site_occupancy
  Cr  Cr1       1.0  0.2499949496321675  0.2500009245662602  0.25000440934959883  1.0000
  Cr  Cr2       1.0  0.7500065744027596  0.7499994958781021  0.7500002013272746  1.0000
  Ge  Ge1       1.0  0.999999911759877  1.8326514474435973e-07  0.9999992769901999  1.0000
  N   N1        1.0  0.28875807655293867  0.28876212336842605  0.7112396950073301  1.0000
  N   N2        1.0  0.7112407453542453  0.711236058619692  0.2887602911019952  1.0000
  N   N3        1.0  0.7112416076382856  0.2887613115900125  0.28876036523489546  1.0000
  N   N4        1.0  0.28875468527164466  0.7112423395559643  0.7112385740491591  1.0000
  N   N5        1.0  0.2887584864609282  0.7112399077365067  0.2887620347737892  1.0000
  N   N6        1.0  0.7112448707803487  0.2887575752275178  0.7112353063796544  1.0000
