data_image0
_chemical_formula_structural       Cr2MnN6
_chemical_formula_sum              "Cr2 Mn1 N6"
_cell_length_a       4.998102246539258
_cell_length_b       4.998101704153974
_cell_length_c       4.998101826921107
_cell_angle_alpha    60.0000047656942
_cell_angle_beta     59.99999873858936
_cell_angle_gamma    59.99999827043047

_space_group_name_H-M_alt    "P 1"
_space_group_IT_number       1

loop_
  _space_group_symop_operation_xyz
  'x, y, z'

loop_
  _atom_site_type_symbol
  _atom_site_label
  _atom_site_symmetry_multiplicity
  _atom_site_fract_x
  _atom_site_fract_y
  _atom_site_fract_z
  _atom_site_occupancy
  Cr  Cr1       1.0  0.24999992162426407  0.25000012322669496  0.2499999257705048  1.0000
  Cr  Cr2       1.0  0.7499998998059487  0.7500001589439691  0.7499998932426039  1.0000
  Mn  Mn1       1.0  2.7161189540997313e-07  0.9999998505243766  0.9999999649417237  1.0000
  N   N1        1.0  0.26425424101127903  0.26425413510936424  0.7357458496433129  1.0000
  N   N2        1.0  0.7357458284877019  0.7357458187050298  0.26425418357960684  1.0000
  N   N3        1.0  0.7357456647894429  0.264254281770828  0.264254338800146  1.0000
  N   N4        1.0  0.2642542775281519  0.7357456377376901  0.7357457871709645  1.0000
  N   N5        1.0  0.26425416546320907  0.7357457404009118  0.2642542533627668  1.0000
  N   N6        1.0  0.7357457878692569  0.2642541668555021  0.7357458212072109  1.0000
