data_image0
_chemical_formula_structural       Cr2MnSe6
_chemical_formula_sum              "Cr2 Mn1 Se6"
_cell_length_a       6.604836449647129
_cell_length_b       6.604836456672787
_cell_length_c       6.60483654204083
_cell_angle_alpha    59.99999942182985
_cell_angle_beta     59.999999887906654
_cell_angle_gamma    59.999998010064076

_space_group_name_H-M_alt    "P 1"
_space_group_IT_number       1

loop_
  _space_group_symop_operation_xyz
  'x, y, z'

loop_
  _atom_site_type_symbol
  _atom_site_label
  _atom_site_symmetry_multiplicity
  _atom_site_fract_x
  _atom_site_fract_y
  _atom_site_fract_z
  _atom_site_occupancy
  Cr  Cr1       1.0  0.2500001074956237  0.24999999570842082  0.2499999607337707  1.0000
  Cr  Cr2       1.0  0.7499999409590602  0.7499999778536941  0.7499999277108416  1.0000
  Mn  Mn1       1.0  0.9999999751879411  4.821219667876705e-08  0.9999999625612168  1.0000
  Se  Se1       1.0  0.2492430049752814  0.24924307385357486  0.750756978821893  1.0000
  Se  Se2       1.0  0.7507569166498598  0.7507569497750534  0.24924312817523286  1.0000
  Se  Se3       1.0  0.7507569948872583  0.24924296667162818  0.2492429731934589  1.0000
  Se  Se4       1.0  0.24924307622521488  0.7507569494067139  0.7507570204785817  1.0000
  Se  Se5       1.0  0.24924297549493732  0.7507570102655952  0.24924304095101737  1.0000
  Se  Se6       1.0  0.75075701369444  0.24924301521734704  0.7507570055981195  1.0000
