data_image0
_chemical_formula_structural       Cr2MnO6
_chemical_formula_sum              "Cr2 Mn1 O6"
_cell_length_a       5.446814841176199
_cell_length_b       5.446814881827149
_cell_length_c       5.44681475393302
_cell_angle_alpha    59.99999770310418
_cell_angle_beta     59.99999907847584
_cell_angle_gamma    59.999997691245554

_space_group_name_H-M_alt    "P 1"
_space_group_IT_number       1

loop_
  _space_group_symop_operation_xyz
  'x, y, z'

loop_
  _atom_site_type_symbol
  _atom_site_label
  _atom_site_symmetry_multiplicity
  _atom_site_fract_x
  _atom_site_fract_y
  _atom_site_fract_z
  _atom_site_occupancy
  Cr  Cr1       1.0  0.25000011705651193  0.2500000426892316  0.2499999782283157  1.0000
  Cr  Cr2       1.0  0.7500001260098378  0.7499998177674565  0.7500002134305375  1.0000
  Mn  Mn1       1.0  0.9999999367209305  9.443920500748141e-08  0.9999999697324475  1.0000
  O   O1        1.0  0.24187180277076512  0.24187183697272555  0.7581281527753748  1.0000
  O   O2        1.0  0.7581281382734572  0.7581282236051455  0.24187177772493232  1.0000
  O   O3        1.0  0.7581281710490557  0.24187188740510737  0.2418717466003546  1.0000
  O   O4        1.0  0.24187178125999328  0.7581281012190836  0.758128249127153  1.0000
  O   O5        1.0  0.24187179123108557  0.7581281321157292  0.24187178762934697  1.0000
  O   O6        1.0  0.7581281953609796  0.2418718744968824  0.7581281323921858  1.0000
