data_image0
_chemical_formula_structural       Cr2MnTe6
_chemical_formula_sum              "Cr2 Mn1 Te6"
_cell_length_a       6.950116467311804
_cell_length_b       6.950116386070776
_cell_length_c       6.95011623107142
_cell_angle_alpha    60.00000091465452
_cell_angle_beta     60.00000048438892
_cell_angle_gamma    60.00000018463398

_space_group_name_H-M_alt    "P 1"
_space_group_IT_number       1

loop_
  _space_group_symop_operation_xyz
  'x, y, z'

loop_
  _atom_site_type_symbol
  _atom_site_label
  _atom_site_symmetry_multiplicity
  _atom_site_fract_x
  _atom_site_fract_y
  _atom_site_fract_z
  _atom_site_occupancy
  Cr  Cr1       1.0  0.2500001136220169  0.24999979954975785  0.250000035987353  1.0000
  Cr  Cr2       1.0  0.7500000791084663  0.749999969599907  0.7499998612807454  1.0000
  Mn  Mn1       1.0  4.143451311642506e-08  5.286579698127871e-09  0.9999999392300071  1.0000
  Te  Te1       1.0  0.25371109384635704  0.2537111729511956  0.7462888583649849  1.0000
  Te  Te2       1.0  0.7462887705060558  0.7462889433505534  0.2537112266351141  1.0000
  Te  Te3       1.0  0.7462888805676043  0.25371108285799937  0.2537111481601893  1.0000
  Te  Te4       1.0  0.2537111300582115  0.7462889136146038  0.7462888229000403  1.0000
  Te  Te5       1.0  0.25371106102623825  0.7462889607768081  0.25371119827036953  1.0000
  Te  Te6       1.0  0.7462888266867208  0.2537111502383611  0.7462889165410173  1.0000
