data_image0
_chemical_formula_structural       Cr2MgS6
_chemical_formula_sum              "Cr2 Mg1 S6"
_cell_length_a       6.362998724492238
_cell_length_b       6.362998823920211
_cell_length_c       6.362998779132765
_cell_angle_alpha    60.000000851008444
_cell_angle_beta     60.0000001879626
_cell_angle_gamma    59.9999985444376

_space_group_name_H-M_alt    "P 1"
_space_group_IT_number       1

loop_
  _space_group_symop_operation_xyz
  'x, y, z'

loop_
  _atom_site_type_symbol
  _atom_site_label
  _atom_site_symmetry_multiplicity
  _atom_site_fract_x
  _atom_site_fract_y
  _atom_site_fract_z
  _atom_site_occupancy
  Cr  Cr1       1.0  0.24999982662776873  0.2500001696621836  0.25000000712612636  1.0000
  Cr  Cr2       1.0  0.7499999846029292  0.749999925774588  0.7499998720342244  1.0000
  Mg  Mg1       1.0  0.9999999448226271  1.655321047694154e-07  0.9999997420880365  1.0000
  S   S1        1.0  0.2667097025449757  0.26670986019337073  0.7332902288225083  1.0000
  S   S2        1.0  0.733290226607424  0.7332901101319249  0.26670992424552664  1.0000
  S   S3        1.0  0.7332902071631625  0.2667097339297412  0.26670984253293994  1.0000
  S   S4        1.0  0.2667097949991235  0.7332902460195122  0.7332902456443828  1.0000
  S   S5        1.0  0.2667099005723497  0.733290026080583  0.2667098675557003  1.0000
  S   S6        1.0  0.7332904172428594  0.26670976908863947  0.733290269910957  1.0000
