data_image0
_chemical_formula_structural       Cr2MgTe6
_chemical_formula_sum              "Cr2 Mg1 Te6"
_cell_length_a       7.187985291683877
_cell_length_b       7.187985301959626
_cell_length_c       7.187985279376919
_cell_angle_alpha    60.00000090392455
_cell_angle_beta     60.00000075409063
_cell_angle_gamma    60.00000219411507

_space_group_name_H-M_alt    "P 1"
_space_group_IT_number       1

loop_
  _space_group_symop_operation_xyz
  'x, y, z'

loop_
  _atom_site_type_symbol
  _atom_site_label
  _atom_site_symmetry_multiplicity
  _atom_site_fract_x
  _atom_site_fract_y
  _atom_site_fract_z
  _atom_site_occupancy
  Cr  Cr1       1.0  0.24999988370533277  0.2500001221570426  0.24999999994139732  1.0000
  Cr  Cr2       1.0  0.7500001600542886  0.7499999047202555  0.749999990142587  1.0000
  Mg  Mg1       1.0  0.9999999800908539  0.9999999488836645  0.9999998254399673  1.0000
  Te  Te1       1.0  0.27123441203045007  0.27123452723869923  0.7287655279568203  1.0000
  Te  Te2       1.0  0.7287656208739366  0.728765479192065  0.2712344388241565  1.0000
  Te  Te3       1.0  0.7287654965392691  0.2712345970719111  0.27123450000184496  1.0000
  Te  Te4       1.0  0.2712343719550097  0.7287655507807074  0.7287655687019358  1.0000
  Te  Te5       1.0  0.2712344904647723  0.7287654217502452  0.27123461192265824  1.0000
  Te  Te6       1.0  0.72876558523145  0.2712344466664195  0.728765533243229  1.0000
