data_image0
_chemical_formula_structural       Cr2MgSe6
_chemical_formula_sum              "Cr2 Mg1 Se6"
_cell_length_a       6.52783834331841
_cell_length_b       6.527838320582561
_cell_length_c       6.527837895318494
_cell_angle_alpha    60.000000792958076
_cell_angle_beta     60.00000290748186
_cell_angle_gamma    60.000001161515655

_space_group_name_H-M_alt    "P 1"
_space_group_IT_number       1

loop_
  _space_group_symop_operation_xyz
  'x, y, z'

loop_
  _atom_site_type_symbol
  _atom_site_label
  _atom_site_symmetry_multiplicity
  _atom_site_fract_x
  _atom_site_fract_y
  _atom_site_fract_z
  _atom_site_occupancy
  Cr  Cr1       1.0  0.24999994857551042  0.24999967953195745  0.25000020944581663  1.0000
  Cr  Cr2       1.0  0.7499998545888203  0.7500000892608786  0.749999652790663  1.0000
  Mg  Mg1       1.0  0.9999999766641626  4.8780874718603964e-08  0.9999999934050838  1.0000
  Se  Se1       1.0  0.27612672913036185  0.27612658723751077  0.7238732889360371  1.0000
  Se  Se2       1.0  0.7238731991741412  0.7238734217073174  0.2761268287779832  1.0000
  Se  Se3       1.0  0.7238733942652139  0.27612655542552705  0.27612691210382556  1.0000
  Se  Se4       1.0  0.2761268348388832  0.7238734797859265  0.7238730865022089  1.0000
  Se  Se5       1.0  0.2761266602746805  0.7238733845872941  0.27612679647682425  1.0000
  Se  Se6       1.0  0.723873401248065  0.27612675006209614  0.7238732362009158  1.0000
