data_image0
_chemical_formula_structural       Cr2NiTe6
_chemical_formula_sum              "Cr2 Ni1 Te6"
_cell_length_a       6.929290583165501
_cell_length_b       6.929290464438088
_cell_length_c       6.929290548808972
_cell_angle_alpha    59.99999979353008
_cell_angle_beta     59.99999920817644
_cell_angle_gamma    59.99999877105284

_space_group_name_H-M_alt    "P 1"
_space_group_IT_number       1

loop_
  _space_group_symop_operation_xyz
  'x, y, z'

loop_
  _atom_site_type_symbol
  _atom_site_label
  _atom_site_symmetry_multiplicity
  _atom_site_fract_x
  _atom_site_fract_y
  _atom_site_fract_z
  _atom_site_occupancy
  Cr  Cr1       1.0  0.24999999561987965  0.250000005431794  0.2500000796629969  1.0000
  Cr  Cr2       1.0  0.7499999234178184  0.7500000516451727  0.7499999514168267  1.0000
  Ni  Ni1       1.0  4.1189394115772224e-08  0.9999999664176972  0.9999999615608736  1.0000
  Te  Te1       1.0  0.2553886349893569  0.25538857504204027  0.7446113532820389  1.0000
  Te  Te2       1.0  0.7446113890838972  0.7446113918929561  0.25538862994281375  1.0000
  Te  Te3       1.0  0.7446113648851541  0.25538856967463847  0.25538863686130486  1.0000
  Te  Te4       1.0  0.2553885924134652  0.7446114326101504  0.7446114068135941  1.0000
  Te  Te5       1.0  0.2553886179067818  0.7446113802647153  0.2553885919974924  1.0000
  Te  Te6       1.0  0.7446114437861989  0.25538862378756244  0.7446113827218398  1.0000
