data_image0
_chemical_formula_structural       Cr2NbTe6
_chemical_formula_sum              "Cr2 Nb1 Te6"
_cell_length_a       7.2829501148455265
_cell_length_b       7.282949991439834
_cell_length_c       7.282950104258102
_cell_angle_alpha    59.999999926151816
_cell_angle_beta     59.99999951348985
_cell_angle_gamma    60.00000007160647

_space_group_name_H-M_alt    "P 1"
_space_group_IT_number       1

loop_
  _space_group_symop_operation_xyz
  'x, y, z'

loop_
  _atom_site_type_symbol
  _atom_site_label
  _atom_site_symmetry_multiplicity
  _atom_site_fract_x
  _atom_site_fract_y
  _atom_site_fract_z
  _atom_site_occupancy
  Cr  Cr1       1.0  0.25000006370022254  0.24999995926695265  0.24999998117731628  1.0000
  Cr  Cr2       1.0  0.7500000071981212  0.7500000156970115  0.7500000104733853  1.0000
  Nb  Nb1       1.0  2.1092179129251688e-08  0.9999999747750937  0.9999999773511041  1.0000
  Te  Te1       1.0  0.2620777864484104  0.26207775220636115  0.7379222271516305  1.0000
  Te  Te2       1.0  0.7379222308951571  0.7379222597541316  0.26207773433223636  1.0000
  Te  Te3       1.0  0.7379221762621515  0.26207778502900303  0.2620777976119354  1.0000
  Te  Te4       1.0  0.26207774612818885  0.737922245429754  0.7379222377992325  1.0000
  Te  Te5       1.0  0.262077780020967  0.7379222370576793  0.2620777993062634  1.0000
  Te  Te6       1.0  0.7379221861227147  0.26207777153949263  0.7379222375166555  1.0000
