data_image0
_chemical_formula_structural       Cr2NbO6
_chemical_formula_sum              "Cr2 Nb1 O6"
_cell_length_a       5.290214212385996
_cell_length_b       5.290214456868508
_cell_length_c       5.290214390811155
_cell_angle_alpha    60.000000622258725
_cell_angle_beta     60.00000022729145
_cell_angle_gamma    60.00000091144944

_space_group_name_H-M_alt    "P 1"
_space_group_IT_number       1

loop_
  _space_group_symop_operation_xyz
  'x, y, z'

loop_
  _atom_site_type_symbol
  _atom_site_label
  _atom_site_symmetry_multiplicity
  _atom_site_fract_x
  _atom_site_fract_y
  _atom_site_fract_z
  _atom_site_occupancy
  Cr  Cr1       1.0  0.24999991573644686  0.25000011225188007  0.25000001438064606  1.0000
  Cr  Cr2       1.0  0.7500003657412947  0.7499997973341205  0.7499998448029913  1.0000
  Nb  Nb1       1.0  2.8882132153496286e-08  1.1575569041073578e-08  0.9999999665391718  1.0000
  O   O1        1.0  0.2625144277563712  0.26251461602246606  0.7374854923784092  1.0000
  O   O2        1.0  0.7374854478014999  0.7374854046889983  0.26251461816796823  1.0000
  O   O3        1.0  0.7374854544992234  0.262514522972587  0.2625144981628762  1.0000
  O   O4        1.0  0.2625144251592604  0.7374855116295604  0.7374855258862687  1.0000
  O   O5        1.0  0.2625144198469931  0.7374855082832923  0.2625145698014491  1.0000
  O   O6        1.0  0.7374855116896428  0.26251451474328563  0.7374855134882725  1.0000
