data_image0
_chemical_formula_structural       Cr2NiO6
_chemical_formula_sum              "Cr2 Ni1 O6"
_cell_length_a       5.0033255120588285
_cell_length_b       5.003325347040874
_cell_length_c       5.003325120382384
_cell_angle_alpha    59.999997246253514
_cell_angle_beta     59.9999985328554
_cell_angle_gamma    59.99999427451975

_space_group_name_H-M_alt    "P 1"
_space_group_IT_number       1

loop_
  _space_group_symop_operation_xyz
  'x, y, z'

loop_
  _atom_site_type_symbol
  _atom_site_label
  _atom_site_symmetry_multiplicity
  _atom_site_fract_x
  _atom_site_fract_y
  _atom_site_fract_z
  _atom_site_occupancy
  Cr  Cr1       1.0  0.24999947192546415  0.24999979677958767  0.25000041386785726  1.0000
  Cr  Cr2       1.0  0.7500001191531208  0.7500002691210935  0.7500002103511705  1.0000
  Ni  Ni1       1.0  0.9999999597622826  9.301875373819711e-08  0.9999999296387216  1.0000
  O   O1        1.0  0.2507029924454289  0.25070297269399827  0.7492969296586733  1.0000
  O   O2        1.0  0.7492972366802994  0.7492968753469732  0.25070282690392026  1.0000
  O   O3        1.0  0.7492971505210231  0.25070301462910116  0.2507030047476354  1.0000
  O   O4        1.0  0.25070278682945607  0.7492971271553005  0.7492968927364967  1.0000
  O   O5        1.0  0.25070316991401426  0.7492969183436987  0.25070291054460925  1.0000
  O   O6        1.0  0.7492971532982627  0.25070291745795703  0.7492968850411988  1.0000
