data_image0
_chemical_formula_structural       Cr2NiS6
_chemical_formula_sum              "Cr2 Ni1 S6"
_cell_length_a       6.2172795354578145
_cell_length_b       6.21727961423458
_cell_length_c       6.217279442905577
_cell_angle_alpha    60.00000057769162
_cell_angle_beta     60.000001024645904
_cell_angle_gamma    60.000000298457635

_space_group_name_H-M_alt    "P 1"
_space_group_IT_number       1

loop_
  _space_group_symop_operation_xyz
  'x, y, z'

loop_
  _atom_site_type_symbol
  _atom_site_label
  _atom_site_symmetry_multiplicity
  _atom_site_fract_x
  _atom_site_fract_y
  _atom_site_fract_z
  _atom_site_occupancy
  Cr  Cr1       1.0  0.24999973243909213  0.2500000918223596  0.25000016038924366  1.0000
  Cr  Cr2       1.0  0.7500001855257339  0.7500000075600296  0.7499999328318274  1.0000
  Ni  Ni1       1.0  4.149667321196777e-08  3.151847642094175e-08  0.9999998621619308  1.0000
  S   S1        1.0  0.24676254593796246  0.24676262533685747  0.7532373949640675  1.0000
  S   S2        1.0  0.7532374515730196  0.753237263265724  0.24676259820651403  1.0000
  S   S3        1.0  0.7532373837134146  0.24676259906730813  0.2467626782951453  1.0000
  S   S4        1.0  0.2467625255284949  0.75323747076651  0.7532374018932585  1.0000
  S   S5        1.0  0.24676258365080686  0.7532373161096969  0.2467627341827447  1.0000
  S   S6        1.0  0.7532375483317117  0.24676259810164541  0.753237244892931  1.0000
