data_image0
_chemical_formula_structural       Cr2NiN6
_chemical_formula_sum              "Cr2 Ni1 N6"
_cell_length_a       4.8913356744750525
_cell_length_b       4.89133568382066
_cell_length_c       4.89133565589905
_cell_angle_alpha    59.99999594095447
_cell_angle_beta     59.99999622523801
_cell_angle_gamma    59.999995857044745

_space_group_name_H-M_alt    "P 1"
_space_group_IT_number       1

loop_
  _space_group_symop_operation_xyz
  'x, y, z'

loop_
  _atom_site_type_symbol
  _atom_site_label
  _atom_site_symmetry_multiplicity
  _atom_site_fract_x
  _atom_site_fract_y
  _atom_site_fract_z
  _atom_site_occupancy
  Cr  Cr1       1.0  0.25000092598480284  0.24999989916451576  0.24999935573967152  1.0000
  Cr  Cr2       1.0  0.7500005454578255  0.7500015578964139  0.7499987439294051  1.0000
  Ni  Ni1       1.0  1.5814273622603237e-07  4.256641341957018e-08  0.9999999466673404  1.0000
  N   N1        1.0  0.26074133708887504  0.26074112216318984  0.7392587694668218  1.0000
  N   N2        1.0  0.7392584423908826  0.739259185604489  0.26074080398561744  1.0000
  N   N3        1.0  0.7392587506912229  0.2607399300754564  0.2607425457271415  1.0000
  N   N4        1.0  0.26074090429378227  0.7392588177581838  0.739258673401271  1.0000
  N   N5        1.0  0.2607407041904275  0.7392586033890622  0.26074186306642033  1.0000
  N   N6        1.0  0.7392582285244867  0.26074092315964326  0.739259348283815  1.0000
