data_image0
_chemical_formula_structural       Cr2NiSe6
_chemical_formula_sum              "Cr2 Ni1 Se6"
_cell_length_a       6.511010276640241
_cell_length_b       6.511010558823963
_cell_length_c       6.51101051792342
_cell_angle_alpha    59.99999706827754
_cell_angle_beta     59.99999729178143
_cell_angle_gamma    59.999999855557675

_space_group_name_H-M_alt    "P 1"
_space_group_IT_number       1

loop_
  _space_group_symop_operation_xyz
  'x, y, z'

loop_
  _atom_site_type_symbol
  _atom_site_label
  _atom_site_symmetry_multiplicity
  _atom_site_fract_x
  _atom_site_fract_y
  _atom_site_fract_z
  _atom_site_occupancy
  Cr  Cr1       1.0  0.2500001221329704  0.25000032323987176  0.24999984246185286  1.0000
  Cr  Cr2       1.0  0.7499998699354985  0.7500000649410199  0.7500002157197103  1.0000
  Ni  Ni1       1.0  0.9999999785033437  1.1286220862381318e-08  0.9999999482784012  1.0000
  Se  Se1       1.0  0.2521655769066167  0.2521654434367523  0.7478345043770485  1.0000
  Se  Se2       1.0  0.7478344667614177  0.7478344707229337  0.2521654609150841  1.0000
  Se  Se3       1.0  0.7478344912236378  0.25216549630427465  0.25216553461504754  1.0000
  Se  Se4       1.0  0.2521655215979271  0.7478343614243121  0.7478345342144075  1.0000
  Se  Se5       1.0  0.25216556390524714  0.7478343631216389  0.25216546497035125  1.0000
  Se  Se6       1.0  0.7478344300537453  0.252165460748293  0.7478345088867863  1.0000
