data_image0
_chemical_formula_structural       Cr2NbS6
_chemical_formula_sum              "Cr2 Nb1 S6"
_cell_length_a       6.4401005744243145
_cell_length_b       6.440100465983301
_cell_length_c       6.4401006407283585
_cell_angle_alpha    59.999999242701605
_cell_angle_beta     59.999999489933536
_cell_angle_gamma    59.999999846452255

_space_group_name_H-M_alt    "P 1"
_space_group_IT_number       1

loop_
  _space_group_symop_operation_xyz
  'x, y, z'

loop_
  _atom_site_type_symbol
  _atom_site_label
  _atom_site_symmetry_multiplicity
  _atom_site_fract_x
  _atom_site_fract_y
  _atom_site_fract_z
  _atom_site_occupancy
  Cr  Cr1       1.0  0.2499999996510894  0.2500000080052622  0.25000003332658444  1.0000
  Cr  Cr2       1.0  0.7500001651043038  0.7499999612581001  0.749999815367464  1.0000
  Nb  Nb1       1.0  0.9999999872688992  0.9999999467510532  2.833171152428881e-08  1.0000
  S   S1        1.0  0.2596766352161107  0.2596767044583538  0.7403233253340326  1.0000
  S   S2        1.0  0.7403233441905623  0.7403233313661911  0.2596767613224228  1.0000
  S   S3        1.0  0.740323250731695  0.2596766652910073  0.25967674094042525  1.0000
  S   S4        1.0  0.25967660782094776  0.7403233458108114  0.7403233253381626  1.0000
  S   S5        1.0  0.25967667916187515  0.7403233009983948  0.2596766929164279  1.0000
  S   S6        1.0  0.7403233385314046  0.2596767329244019  0.7403232854868937  1.0000
