data_image0
_chemical_formula_structural       Cr2NbSe6
_chemical_formula_sum              "Cr2 Nb1 Se6"
_cell_length_a       6.793058860984039
_cell_length_b       6.793058919278296
_cell_length_c       6.793058678887108
_cell_angle_alpha    60.000000845133485
_cell_angle_beta     60.00000020743105
_cell_angle_gamma    59.99999990530763

_space_group_name_H-M_alt    "P 1"
_space_group_IT_number       1

loop_
  _space_group_symop_operation_xyz
  'x, y, z'

loop_
  _atom_site_type_symbol
  _atom_site_label
  _atom_site_symmetry_multiplicity
  _atom_site_fract_x
  _atom_site_fract_y
  _atom_site_fract_z
  _atom_site_occupancy
  Cr  Cr1       1.0  0.2500000485925092  0.2499999584960878  0.24999999758335453  1.0000
  Cr  Cr2       1.0  0.749999990062415  0.7499999295763363  0.7500000700612208  1.0000
  Nb  Nb1       1.0  0.9999999954838148  2.8846971640294814e-08  6.971788671644571e-09  1.0000
  Se  Se1       1.0  0.2585283240881122  0.25852833785901475  0.7414716731154234  1.0000
  Se  Se2       1.0  0.7414716176914924  0.7414716980541396  0.25852832782790097  1.0000
  Se  Se3       1.0  0.7414716434643955  0.25852835236128857  0.25852830772890095  1.0000
  Se  Se4       1.0  0.2585283550103841  0.7414716817489297  0.741471637798576  1.0000
  Se  Se5       1.0  0.2585283748420885  0.7414716678676962  0.2585283091317298  1.0000
  Se  Se6       1.0  0.7414716585394872  0.2585283482131644  0.7414716603430284  1.0000
