data_image0
_chemical_formula_structural       Cr2PdO6
_chemical_formula_sum              "Cr2 Pd1 O6"
_cell_length_a       5.151484408952257
_cell_length_b       5.151484577591081
_cell_length_c       5.151484548193387
_cell_angle_alpha    59.99999994708455
_cell_angle_beta     59.999999257417116
_cell_angle_gamma    59.99999928093519

_space_group_name_H-M_alt    "P 1"
_space_group_IT_number       1

loop_
  _space_group_symop_operation_xyz
  'x, y, z'

loop_
  _atom_site_type_symbol
  _atom_site_label
  _atom_site_symmetry_multiplicity
  _atom_site_fract_x
  _atom_site_fract_y
  _atom_site_fract_z
  _atom_site_occupancy
  Cr  Cr1       1.0  0.24999994777903722  0.24999994614532683  0.25000018601421753  1.0000
  Cr  Cr2       1.0  0.7499999720032182  0.7500001047115048  0.7499997956861284  1.0000
  Pd  Pd1       1.0  2.861883359931197e-08  0.9999999881126995  0.9999999741635415  1.0000
  O   O1        1.0  0.26364739574310986  0.2636473780172698  0.7363525647611823  1.0000
  O   O2        1.0  0.7363526419563654  0.7363526015157591  0.26364743440740324  1.0000
  O   O3        1.0  0.7363526233055019  0.26364738236030094  0.2636474030868434  1.0000
  O   O4        1.0  0.2636473540990001  0.7363526637416096  0.7363526181802318  1.0000
  O   O5        1.0  0.26364737441166763  0.7363525535668155  0.2636474385845139  1.0000
  O   O6        1.0  0.7363526497262215  0.263647392681773  0.736352601477777  1.0000
