data_image0
_chemical_formula_structural       Cr2PdSe6
_chemical_formula_sum              "Cr2 Pd1 Se6"
_cell_length_a       6.714177780490204
_cell_length_b       6.714177765902901
_cell_length_c       6.7141779114896405
_cell_angle_alpha    59.9999989986843
_cell_angle_beta     59.999998724964414
_cell_angle_gamma    59.999997964291

_space_group_name_H-M_alt    "P 1"
_space_group_IT_number       1

loop_
  _space_group_symop_operation_xyz
  'x, y, z'

loop_
  _atom_site_type_symbol
  _atom_site_label
  _atom_site_symmetry_multiplicity
  _atom_site_fract_x
  _atom_site_fract_y
  _atom_site_fract_z
  _atom_site_occupancy
  Cr  Cr1       1.0  0.2500000952791107  0.24999983960485767  0.25000006870018365  1.0000
  Cr  Cr2       1.0  0.7499999516515496  0.749999938361594  0.7500001366109914  1.0000
  Pd  Pd1       1.0  1.891773900224019e-08  0.9999999999999998  0.9999999562852614  1.0000
  Se  Se1       1.0  0.2609973289916211  0.26099741218388856  0.739002645260839  1.0000
  Se  Se2       1.0  0.739002574599815  0.739002697771943  0.2609973748727358  1.0000
  Se  Se3       1.0  0.7390026831144821  0.2609973853476539  0.2609972866598174  1.0000
  Se  Se4       1.0  0.26099733249013835  0.7390026826534747  0.7390026195070785  1.0000
  Se  Se5       1.0  0.26099733054247176  0.7390026666382644  0.2609973265277377  1.0000
  Se  Se6       1.0  0.7390026877029516  0.2609973831216894  0.7390025755242591  1.0000
