data_image0
_chemical_formula_structural       Cr2PN6
_chemical_formula_sum              "Cr2 P1 N6"
_cell_length_a       4.824138391741947
_cell_length_b       4.824138609857145
_cell_length_c       4.824138238452046
_cell_angle_alpha    60.000000939426755
_cell_angle_beta     60.00000110356764
_cell_angle_gamma    60.00000130184207

_space_group_name_H-M_alt    "P 1"
_space_group_IT_number       1

loop_
  _space_group_symop_operation_xyz
  'x, y, z'

loop_
  _atom_site_type_symbol
  _atom_site_label
  _atom_site_symmetry_multiplicity
  _atom_site_fract_x
  _atom_site_fract_y
  _atom_site_fract_z
  _atom_site_occupancy
  Cr  Cr1       1.0  0.24999986947383576  0.2500001797666937  0.2499997777489172  1.0000
  Cr  Cr2       1.0  0.7499995576586314  0.7499999376081327  0.7500002937843524  1.0000
  P   P1        1.0  6.890376979103941e-09  1.523270618101355e-08  4.6979912723365845e-08  1.0000
  N   N1        1.0  0.24913032337287708  0.24913009609088468  0.7508698083905094  1.0000
  N   N2        1.0  0.7508697811246766  0.750869813103606  0.249130161216569  1.0000
  N   N3        1.0  0.7508699995135976  0.24913026262734037  0.24913014012089346  1.0000
  N   N4        1.0  0.2491303786744699  0.7508696871876992  0.7508698588924713  1.0000
  N   N5        1.0  0.24913039302551865  0.7508697725929894  0.2491300535680162  1.0000
  N   N6        1.0  0.7508697229545725  0.24913024576923695  0.7508698453493791  1.0000
