data_image0
_chemical_formula_structural       Cr2PdS6
_chemical_formula_sum              "Cr2 Pd1 S6"
_cell_length_a       6.425725243960969
_cell_length_b       6.425725329825125
_cell_length_c       6.425725342755285
_cell_angle_alpha    59.99999967306689
_cell_angle_beta     59.99999949551794
_cell_angle_gamma    59.999999778694

_space_group_name_H-M_alt    "P 1"
_space_group_IT_number       1

loop_
  _space_group_symop_operation_xyz
  'x, y, z'

loop_
  _atom_site_type_symbol
  _atom_site_label
  _atom_site_symmetry_multiplicity
  _atom_site_fract_x
  _atom_site_fract_y
  _atom_site_fract_z
  _atom_site_occupancy
  Cr  Cr1       1.0  0.2500000935311286  0.250000057499661  0.24999991756106857  1.0000
  Cr  Cr2       1.0  0.7500000140057854  0.749999985710735  0.7500001241018728  1.0000
  Pd  Pd1       1.0  0.99999998435336  3.812005188253746e-09  0.9999999747924265  1.0000
  S   S1        1.0  0.25852583043908006  0.2585258626273262  0.7414741603185546  1.0000
  S   S2        1.0  0.7414741454094672  0.7414741443690226  0.2585257847712266  1.0000
  S   S3        1.0  0.7414741201172297  0.2585258927735003  0.2585257563114508  1.0000
  S   S4        1.0  0.2585258360733628  0.7414741085048407  0.7414742325912027  1.0000
  S   S5        1.0  0.258525898143548  0.7414741270918385  0.25852578185493286  1.0000
  S   S6        1.0  0.7414741021560141  0.258525822724434  0.7414742542991174  1.0000
