data_image0
_chemical_formula_structural       Cr2ScO6
_chemical_formula_sum              "Cr2 Sc1 O6"
_cell_length_a       5.2279476011227
_cell_length_b       5.227947744090412
_cell_length_c       5.227947799813984
_cell_angle_alpha    60.00000130736134
_cell_angle_beta     60.00000134820518
_cell_angle_gamma    60.00000255854155

_space_group_name_H-M_alt    "P 1"
_space_group_IT_number       1

loop_
  _space_group_symop_operation_xyz
  'x, y, z'

loop_
  _atom_site_type_symbol
  _atom_site_label
  _atom_site_symmetry_multiplicity
  _atom_site_fract_x
  _atom_site_fract_y
  _atom_site_fract_z
  _atom_site_occupancy
  Cr  Cr1       1.0  0.24999986787442172  0.2500000554798165  0.2500004480868072  1.0000
  Cr  Cr2       1.0  0.749999949387369  0.7500001031868762  0.7499997951864741  1.0000
  Sc  Sc1       1.0  0.9999999664674514  2.1084187952633047e-08  0.9999999890090119  1.0000
  O   O1        1.0  0.2703256189048307  0.2703254851004919  0.7296741698275406  1.0000
  O   O2        1.0  0.7296744992809838  0.7296744135278765  0.270325762257833  1.0000
  O   O3        1.0  0.729674447472507  0.27032557611296704  0.27032554941232645  1.0000
  O   O4        1.0  0.2703255633555613  0.7296743927960286  0.7296744107755876  1.0000
  O   O5        1.0  0.2703256127947022  0.7296744402137011  0.27032550272669303  1.0000
  O   O6        1.0  0.7296744562406462  0.27032552635260726  0.7296743740578286  1.0000
