data_image0
_chemical_formula_structural       Cr2ScTe6
_chemical_formula_sum              "Cr2 Sc1 Te6"
_cell_length_a       7.287737271250655
_cell_length_b       7.287737327124855
_cell_length_c       7.287737375223607
_cell_angle_alpha    59.999999848684254
_cell_angle_beta     59.99999927115627
_cell_angle_gamma    60.000000049265324

_space_group_name_H-M_alt    "P 1"
_space_group_IT_number       1

loop_
  _space_group_symop_operation_xyz
  'x, y, z'

loop_
  _atom_site_type_symbol
  _atom_site_label
  _atom_site_symmetry_multiplicity
  _atom_site_fract_x
  _atom_site_fract_y
  _atom_site_fract_z
  _atom_site_occupancy
  Cr  Cr1       1.0  0.2499999121203962  0.25000004095161227  0.2500000275494233  1.0000
  Cr  Cr2       1.0  0.7500000323665501  0.7499999716048218  0.7500000185036042  1.0000
  Sc  Sc1       1.0  4.1019786930404095e-08  0.9999999815138871  5.459722673978147e-08  1.0000
  Te  Te1       1.0  0.2680424195121728  0.26804247804954645  0.7319575487455356  1.0000
  Te  Te2       1.0  0.7319575455890247  0.73195750593744  0.26804249854075385  1.0000
  Te  Te3       1.0  0.7319575872859678  0.268042458110418  0.26804242208883455  1.0000
  Te  Te4       1.0  0.26804246291108774  0.7319575225154571  0.7319575239546896  1.0000
  Te  Te5       1.0  0.2680424491749865  0.7319575435599235  0.26804245641605046  1.0000
  Te  Te6       1.0  0.7319575480461669  0.2680425009270692  0.7319574443919942  1.0000
