data_image0
_chemical_formula_structural       Cr2ScS6
_chemical_formula_sum              "Cr2 Sc1 S6"
_cell_length_a       6.430778007788001
_cell_length_b       6.4307780363911835
_cell_length_c       6.430778082711366
_cell_angle_alpha    59.999998736507585
_cell_angle_beta     59.999999592651115
_cell_angle_gamma    59.999999584826796

_space_group_name_H-M_alt    "P 1"
_space_group_IT_number       1

loop_
  _space_group_symop_operation_xyz
  'x, y, z'

loop_
  _atom_site_type_symbol
  _atom_site_label
  _atom_site_symmetry_multiplicity
  _atom_site_fract_x
  _atom_site_fract_y
  _atom_site_fract_z
  _atom_site_occupancy
  Cr  Cr1       1.0  0.25000005952948867  0.24999998463853507  0.24999996950659711  1.0000
  Cr  Cr2       1.0  0.7499999273684119  0.7500000396183273  0.7500001467806349  1.0000
  Sc  Sc1       1.0  0.9999999887908112  2.2854059470746332e-08  2.8388043724092653e-08  1.0000
  S   S1        1.0  0.2669477220712308  0.2669476527037109  0.7330522883079852  1.0000
  S   S2        1.0  0.7330522824028957  0.7330522972774596  0.26694762152069107  1.0000
  S   S3        1.0  0.7330522622907053  0.26694770411994173  0.26694770686916097  1.0000
  S   S4        1.0  0.26694771017097385  0.7330522610972673  0.733052317089201  1.0000
  S   S5        1.0  0.2669477661016936  0.7330523521784924  0.26694761962515456  1.0000
  S   S6        1.0  0.7330522772933147  0.26694769112342187  0.7330522940586885  1.0000
