data_image0
_chemical_formula_structural       Cr2ScSe6
_chemical_formula_sum              "Cr2 Sc1 Se6"
_cell_length_a       6.698896045493547
_cell_length_b       6.698896075137766
_cell_length_c       6.698895794211136
_cell_angle_alpha    59.99999757907782
_cell_angle_beta     60.00000079612279
_cell_angle_gamma    59.999999443425864

_space_group_name_H-M_alt    "P 1"
_space_group_IT_number       1

loop_
  _space_group_symop_operation_xyz
  'x, y, z'

loop_
  _atom_site_type_symbol
  _atom_site_label
  _atom_site_symmetry_multiplicity
  _atom_site_fract_x
  _atom_site_fract_y
  _atom_site_fract_z
  _atom_site_occupancy
  Cr  Cr1       1.0  0.2499999127979296  0.2500000756852958  0.25000001009741807  1.0000
  Cr  Cr2       1.0  0.7500000784233671  0.7499999619554751  0.7500000391039608  1.0000
  Sc  Sc1       1.0  0.999999963783989  3.108074038617533e-08  0.9999999398707345  1.0000
  Se  Se1       1.0  0.2712105959211655  0.2712105415651389  0.7287894099689067  1.0000
  Se  Se2       1.0  0.728789513749722  0.7287894613383413  0.2712105018381895  1.0000
  Se  Se3       1.0  0.7287894722590783  0.2712106374822797  0.27121057297149215  1.0000
  Se  Se4       1.0  0.2712105694548945  0.7287894038150511  0.7287893984006353  1.0000
  Se  Se5       1.0  0.2712104761025864  0.7287893332142162  0.27121069065355624  1.0000
  Se  Se6       1.0  0.7287894336888157  0.2712105453663084  0.7287894459516647  1.0000
