data_image0
_chemical_formula_structural       Cr2SO6
_chemical_formula_sum              "Cr2 S1 O6"
_cell_length_a       5.024293170132807
_cell_length_b       5.02429265983765
_cell_length_c       5.024292860267405
_cell_angle_alpha    59.99999762983885
_cell_angle_beta     59.999997186506796
_cell_angle_gamma    59.99999743391446

_space_group_name_H-M_alt    "P 1"
_space_group_IT_number       1

loop_
  _space_group_symop_operation_xyz
  'x, y, z'

loop_
  _atom_site_type_symbol
  _atom_site_label
  _atom_site_symmetry_multiplicity
  _atom_site_fract_x
  _atom_site_fract_y
  _atom_site_fract_z
  _atom_site_occupancy
  Cr  Cr1       1.0  0.2500000039732963  0.24999997842696595  0.24999999164707407  1.0000
  Cr  Cr2       1.0  0.7499999966208634  0.7499999742832419  0.7500001561515576  1.0000
  S   S1        1.0  0.9999999871386291  3.168940383542799e-08  2.4421591007406113e-08  1.0000
  O   O1        1.0  0.23199995946800694  0.23199985169708642  0.7680002153739832  1.0000
  O   O2        1.0  0.7680000358087098  0.7680001790178069  0.23199980452585417  1.0000
  O   O3        1.0  0.7680000993154511  0.23199998627163326  0.23199983688884562  1.0000
  O   O4        1.0  0.23199992676636125  0.7680000761326639  0.7680001020054948  1.0000
  O   O5        1.0  0.23199989600137746  0.7680000678100938  0.2319998753660372  1.0000
  O   O6        1.0  0.768000034391046  0.23199995071656568  0.7680000198630194  1.0000
