data_image0
_chemical_formula_structural       Cr2SN6
_chemical_formula_sum              "Cr2 S1 N6"
_cell_length_a       4.867129837493179
_cell_length_b       4.867129662360751
_cell_length_c       4.867129594227586
_cell_angle_alpha    60.00000034925312
_cell_angle_beta     60.000000838026246
_cell_angle_gamma    60.000000404897136

_space_group_name_H-M_alt    "P 1"
_space_group_IT_number       1

loop_
  _space_group_symop_operation_xyz
  'x, y, z'

loop_
  _atom_site_type_symbol
  _atom_site_label
  _atom_site_symmetry_multiplicity
  _atom_site_fract_x
  _atom_site_fract_y
  _atom_site_fract_z
  _atom_site_occupancy
  Cr  Cr1       1.0  0.2500002774406929  0.2499998133435966  0.24999985687916423  1.0000
  Cr  Cr2       1.0  0.7499998908593777  0.7499999584008713  0.7500001006466659  1.0000
  S   S1        1.0  0.9999999691335032  4.2778113871179415e-08  1.25355833854949e-08  1.0000
  N   N1        1.0  0.24506839724733992  0.24506836830785492  0.7549316290150946  1.0000
  N   N2        1.0  0.7549315503862732  0.754931695334331  0.24506834015088508  1.0000
  N   N3        1.0  0.7549316169080221  0.24506837936400774  0.24506841767803644  1.0000
  N   N4        1.0  0.24506839384833073  0.7549316087873892  0.7549316357467327  1.0000
  N   N5        1.0  0.2450683946740073  0.754931675816084  0.24506834834399918  1.0000
  N   N6        1.0  0.7549315310319341  0.2450684180224177  0.7549317153084146  1.0000
