data_image0
_chemical_formula_structural       Cr2SeN6
_chemical_formula_sum              "Cr2 Se1 N6"
_cell_length_a       4.935610546719889
_cell_length_b       4.9356105522616796
_cell_length_c       4.935610574874944
_cell_angle_alpha    59.99999961158085
_cell_angle_beta     60.000000449735616
_cell_angle_gamma    60.00000023971858

_space_group_name_H-M_alt    "P 1"
_space_group_IT_number       1

loop_
  _space_group_symop_operation_xyz
  'x, y, z'

loop_
  _atom_site_type_symbol
  _atom_site_label
  _atom_site_symmetry_multiplicity
  _atom_site_fract_x
  _atom_site_fract_y
  _atom_site_fract_z
  _atom_site_occupancy
  Cr  Cr1       1.0  0.2500001931787145  0.2499999062032786  0.250000006291407  1.0000
  Cr  Cr2       1.0  0.7500001231818424  0.749999971717279  0.7500000171669667  1.0000
  Se  Se1       1.0  0.9999999883023537  0.9999999999999999  1.1927098451237287e-08  1.0000
  N   N1        1.0  0.2707015980624368  0.27070168816239837  0.7292983425387922  1.0000
  N   N2        1.0  0.729298322135045  0.7292983535335636  0.2707016370521644  1.0000
  N   N3        1.0  0.7292983046351768  0.27070165884214115  0.27070162392285313  1.0000
  N   N4        1.0  0.2707015876298696  0.7292983754094846  0.7292983206781031  1.0000
  N   N5        1.0  0.27070159725226545  0.7292983727843322  0.2707016905488744  1.0000
  N   N6        1.0  0.7292983062846795  0.2707016838003026  0.7292983648934098  1.0000
