data_image0
_chemical_formula_structural       Cr2TiTe6
_chemical_formula_sum              "Cr2 Ti1 Te6"
_cell_length_a       7.169319190546896
_cell_length_b       7.169319302871408
_cell_length_c       7.16931913706195
_cell_angle_alpha    60.00000047025522
_cell_angle_beta     60.00000112084632
_cell_angle_gamma    60.00000004599935

_space_group_name_H-M_alt    "P 1"
_space_group_IT_number       1

loop_
  _space_group_symop_operation_xyz
  'x, y, z'

loop_
  _atom_site_type_symbol
  _atom_site_label
  _atom_site_symmetry_multiplicity
  _atom_site_fract_x
  _atom_site_fract_y
  _atom_site_fract_z
  _atom_site_occupancy
  Cr  Cr1       1.0  0.2499998035697377  0.25000017942984915  0.25000002932720905  1.0000
  Cr  Cr2       1.0  0.7499999598256035  0.749999895963472  0.750000151324466  1.0000
  Ti  Ti1       1.0  2.2272257616162856e-08  0.9999999863334875  2.7778277264601202e-08  1.0000
  Te  Te1       1.0  0.2606533128054308  0.26065332475167374  0.7393466827723377  1.0000
  Te  Te2       1.0  0.7393467519394633  0.7393466293513509  0.2606532892889409  1.0000
  Te  Te3       1.0  0.7393467578496041  0.2606533468122045  0.2606532184461948  1.0000
  Te  Te4       1.0  0.2606533490140638  0.7393466790400087  0.739346675758614  1.0000
  Te  Te5       1.0  0.260653309719338  0.7393466924707172  0.2606532375567918  1.0000
  Te  Te6       1.0  0.7393467322815602  0.2606532718821921  0.7393466807737409  1.0000
