data_image0
_chemical_formula_structural       Cr2TiO6
_chemical_formula_sum              "Cr2 Ti1 O6"
_cell_length_a       5.146140323274517
_cell_length_b       5.14614014667143
_cell_length_c       5.146140398235061
_cell_angle_alpha    59.99999946546496
_cell_angle_beta     60.00000039949675
_cell_angle_gamma    60.00000157493998

_space_group_name_H-M_alt    "P 1"
_space_group_IT_number       1

loop_
  _space_group_symop_operation_xyz
  'x, y, z'

loop_
  _atom_site_type_symbol
  _atom_site_label
  _atom_site_symmetry_multiplicity
  _atom_site_fract_x
  _atom_site_fract_y
  _atom_site_fract_z
  _atom_site_occupancy
  Cr  Cr1       1.0  0.24999963987592255  0.25000040699275855  0.24999984442337564  1.0000
  Cr  Cr2       1.0  0.7499998634827524  0.7499998501391363  0.7500000499020051  1.0000
  Ti  Ti1       1.0  3.696662755551113e-08  0.9999999833404973  0.9999999995624571  1.0000
  O   O1        1.0  0.2593231235898608  0.25932302242164723  0.7406769758797772  1.0000
  O   O2        1.0  0.7406770249737437  0.7406769348391995  0.25932302948643127  1.0000
  O   O3        1.0  0.7406771110986865  0.25932297593777326  0.25932308098232904  1.0000
  O   O4        1.0  0.25932308007812327  0.7406767861688884  0.7406770919849506  1.0000
  O   O5        1.0  0.2593231035958935  0.7406768508828209  0.25932300613919285  1.0000
  O   O6        1.0  0.7406769888021892  0.2593232277544087  0.7406769471895471  1.0000
