data_image0
_chemical_formula_structural       Cr2VO6
_chemical_formula_sum              "Cr2 V1 O6"
_cell_length_a       5.098902150479179
_cell_length_b       5.098901756409072
_cell_length_c       5.098902251665233
_cell_angle_alpha    60.000000266335206
_cell_angle_beta     59.99999972103101
_cell_angle_gamma    59.99999964090621

_space_group_name_H-M_alt    "P 1"
_space_group_IT_number       1

loop_
  _space_group_symop_operation_xyz
  'x, y, z'

loop_
  _atom_site_type_symbol
  _atom_site_label
  _atom_site_symmetry_multiplicity
  _atom_site_fract_x
  _atom_site_fract_y
  _atom_site_fract_z
  _atom_site_occupancy
  Cr  Cr1       1.0  0.24999973314233243  0.2499999494582084  0.25000023544630834  1.0000
  Cr  Cr2       1.0  0.7499999246659443  0.7500002543088533  0.749999491593014  1.0000
  V   V1        1.0  0.9999999842851283  0.9999999927940659  0.9999999977319575  1.0000
  O   O1        1.0  0.2598360886877027  0.2598360051419839  0.7401638583495815  1.0000
  O   O2        1.0  0.740163947886908  0.7401638911719423  0.2598362919554446  1.0000
  O   O3        1.0  0.7401641712988318  0.25983593088761064  0.25983610076467173  1.0000
  O   O4        1.0  0.25983608491900945  0.7401640062599397  0.7401639153795159  1.0000
  O   O5        1.0  0.2598360870750677  0.7401639399599774  0.25983610841510435  1.0000
  O   O6        1.0  0.7401639866241329  0.25983602841328335  0.7401640049488197  1.0000
