data_image0
_chemical_formula_structural       Cr2VTe6
_chemical_formula_sum              "Cr2 V1 Te6"
_cell_length_a       7.0501803772607845
_cell_length_b       7.050179928776668
_cell_length_c       7.05018021961591
_cell_angle_alpha    59.99999962185918
_cell_angle_beta     60.00000062647085
_cell_angle_gamma    59.999999967448574

_space_group_name_H-M_alt    "P 1"
_space_group_IT_number       1

loop_
  _space_group_symop_operation_xyz
  'x, y, z'

loop_
  _atom_site_type_symbol
  _atom_site_label
  _atom_site_symmetry_multiplicity
  _atom_site_fract_x
  _atom_site_fract_y
  _atom_site_fract_z
  _atom_site_occupancy
  Cr  Cr1       1.0  0.24999997738027116  0.24999975896311022  0.25000021293610053  1.0000
  Cr  Cr2       1.0  0.750000007877937  0.7500002583974119  0.7499998974251878  1.0000
  V   V1        1.0  6.119826958053638e-09  7.991039302979621e-08  0.9999999896081702  1.0000
  Te  Te1       1.0  0.26040441623735805  0.26040427694175955  0.7395956594387572  1.0000
  Te  Te2       1.0  0.7395956110765398  0.7395956535596393  0.26040435701516396  1.0000
  Te  Te3       1.0  0.7395956157562078  0.2604043340110993  0.2604044221997327  1.0000
  Te  Te4       1.0  0.2604043542647647  0.7395957094071568  0.7395954912668401  1.0000
  Te  Te5       1.0  0.26040436259005056  0.7395956221957645  0.26040441292821803  1.0000
  Te  Te6       1.0  0.7395956489245966  0.2604043065684509  0.7395955513025713  1.0000
