data_image0
_chemical_formula_structural       Cr2VS6
_chemical_formula_sum              "Cr2 V1 S6"
_cell_length_a       6.366313853283746
_cell_length_b       6.366313780448603
_cell_length_c       6.366313970134393
_cell_angle_alpha    59.99999956533272
_cell_angle_beta     59.99999955402511
_cell_angle_gamma    60.000000235793486

_space_group_name_H-M_alt    "P 1"
_space_group_IT_number       1

loop_
  _space_group_symop_operation_xyz
  'x, y, z'

loop_
  _atom_site_type_symbol
  _atom_site_label
  _atom_site_symmetry_multiplicity
  _atom_site_fract_x
  _atom_site_fract_y
  _atom_site_fract_z
  _atom_site_occupancy
  Cr  Cr1       1.0  0.24999987593210912  0.24999995007917672  0.24999999172708848  1.0000
  Cr  Cr2       1.0  0.7500002323085009  0.7500000445402942  0.7499998333796918  1.0000
  V   V1        1.0  4.1606601106240946e-08  5.771369732781813e-09  3.9141720441389746e-08  1.0000
  S   S1        1.0  0.2504046824112145  0.25040475480149815  0.7495953125647941  1.0000
  S   S2        1.0  0.7495952602454241  0.7495952359703928  0.25040474333915264  1.0000
  S   S3        1.0  0.7495953546962025  0.2504046766511353  0.25040480018404543  1.0000
  S   S4        1.0  0.2504047365258552  0.7495952275502212  0.7495952090147825  1.0000
  S   S5        1.0  0.2504045991713182  0.7495953324686917  0.25040487192812155  1.0000
  S   S6        1.0  0.7495952189200794  0.25040475449268246  0.749595213871381  1.0000
