data_image0
_chemical_formula_structural       Cr2ZnS6
_chemical_formula_sum              "Cr2 Zn1 S6"
_cell_length_a       6.2593897995764225
_cell_length_b       6.2593898362166325
_cell_length_c       6.259389700608151
_cell_angle_alpha    59.999999122473994
_cell_angle_beta     60.00000012508939
_cell_angle_gamma    59.99999795687072

_space_group_name_H-M_alt    "P 1"
_space_group_IT_number       1

loop_
  _space_group_symop_operation_xyz
  'x, y, z'

loop_
  _atom_site_type_symbol
  _atom_site_label
  _atom_site_symmetry_multiplicity
  _atom_site_fract_x
  _atom_site_fract_y
  _atom_site_fract_z
  _atom_site_occupancy
  Cr  Cr1       1.0  0.2499999427206843  0.24999996732754884  0.2500000315778222  1.0000
  Cr  Cr2       1.0  0.7500000819316489  0.7500001700439877  0.7500001693139611  1.0000
  Zn  Zn1       1.0  1.50553032594719e-08  4.891630701483757e-08  0.9999998322182077  1.0000
  S   S1        1.0  0.25915716441697345  0.2591570931282295  0.7408428656308917  1.0000
  S   S2        1.0  0.7408428740279261  0.7408428368381805  0.2591569911296173  1.0000
  S   S3        1.0  0.7408429023977675  0.25915716598153504  0.2591571015368822  1.0000
  S   S4        1.0  0.2591569078544258  0.7408429283436618  0.7408429469005695  1.0000
  S   S5        1.0  0.25915711593726803  0.7408428854514811  0.25915710671339826  1.0000
  S   S6        1.0  0.7408429996354948  0.2591569016793138  0.7408429506489715  1.0000
