data_image0
_chemical_formula_structural       Cr2ZnTe6
_chemical_formula_sum              "Cr2 Zn1 Te6"
_cell_length_a       7.08380134907241
_cell_length_b       7.0838013204481545
_cell_length_c       7.08380154439237
_cell_angle_alpha    59.99999901077786
_cell_angle_beta     59.999999074731676
_cell_angle_gamma    60.00000053749252

_space_group_name_H-M_alt    "P 1"
_space_group_IT_number       1

loop_
  _space_group_symop_operation_xyz
  'x, y, z'

loop_
  _atom_site_type_symbol
  _atom_site_label
  _atom_site_symmetry_multiplicity
  _atom_site_fract_x
  _atom_site_fract_y
  _atom_site_fract_z
  _atom_site_occupancy
  Cr  Cr1       1.0  0.24999989887711294  0.25000000024605384  0.2500000982071716  1.0000
  Cr  Cr2       1.0  0.7500000476700721  0.7499999990092291  0.749999903980891  1.0000
  Zn  Zn1       1.0  1.285966778112642e-08  0.9999999809816893  1.0048464765579193e-07  1.0000
  Te  Te1       1.0  0.26372810024588217  0.26372814555526025  0.7362718822125134  1.0000
  Te  Te2       1.0  0.7362719123765645  0.7362718364106502  0.26372818310623114  1.0000
  Te  Te3       1.0  0.7362718643337367  0.26372810715263867  0.2637281574544445  1.0000
  Te  Te4       1.0  0.2637281985408271  0.7362718609817734  0.7362717682502506  1.0000
  Te  Te5       1.0  0.2637280740538784  0.7362718727579092  0.2637281686290369  1.0000
  Te  Te6       1.0  0.7362718884633165  0.26372820084168064  0.7362717333466833  1.0000
