data_image0
_chemical_formula_structural       Cr2ZnSe6
_chemical_formula_sum              "Cr2 Zn1 Se6"
_cell_length_a       6.519532744007992
_cell_length_b       6.519532405062331
_cell_length_c       6.5195324888683555
_cell_angle_alpha    60.000001904261325
_cell_angle_beta     60.0000011809113
_cell_angle_gamma    60.00000160731032

_space_group_name_H-M_alt    "P 1"
_space_group_IT_number       1

loop_
  _space_group_symop_operation_xyz
  'x, y, z'

loop_
  _atom_site_type_symbol
  _atom_site_label
  _atom_site_symmetry_multiplicity
  _atom_site_fract_x
  _atom_site_fract_y
  _atom_site_fract_z
  _atom_site_occupancy
  Cr  Cr1       1.0  0.25000021054019206  0.25000021361161795  0.24999977455812958  1.0000
  Cr  Cr2       1.0  0.7499999725911398  0.7499998443178851  0.7500002447129696  1.0000
  Zn  Zn1       1.0  0.9999999784793081  0.9999999210997326  0.9999999842548287  1.0000
  Se  Se1       1.0  0.2683031066865133  0.26830307689775507  0.7316969113406414  1.0000
  Se  Se2       1.0  0.7316969599793319  0.7316969584888071  0.26830294122141446  1.0000
  Se  Se3       1.0  0.7316968727910571  0.26830312081195856  0.26830303033274616  1.0000
  Se  Se4       1.0  0.2683028995616685  0.73169689954598  0.7316970858036957  1.0000
  Se  Se5       1.0  0.2683031391916105  0.7316968570525826  0.26830298541729575  1.0000
  Se  Se6       1.0  0.7316968526044658  0.26830311070518276  0.7316970534329658  1.0000
