data_image0
_chemical_formula_structural       Cs2CrSe6
_chemical_formula_sum              "Cs2 Cr1 Se6"
_cell_length_a       6.889621799461809
_cell_length_b       6.889621082245633
_cell_length_c       6.889621518866047
_cell_angle_alpha    60.00000595075083
_cell_angle_beta     59.999994895862905
_cell_angle_gamma    60.00000204224992

_space_group_name_H-M_alt    "P 1"
_space_group_IT_number       1

loop_
  _space_group_symop_operation_xyz
  'x, y, z'

loop_
  _atom_site_type_symbol
  _atom_site_label
  _atom_site_symmetry_multiplicity
  _atom_site_fract_x
  _atom_site_fract_y
  _atom_site_fract_z
  _atom_site_occupancy
  Cs  Cs1       1.0  0.2500000387331684  0.25000003601183257  0.2500000412006127  1.0000
  Cs  Cs2       1.0  0.7500000700529692  0.7499999498231555  0.7499999500041468  1.0000
  Cr  Cr1       1.0  6.900060601713403e-08  1.90210261229629e-07  0.9999994843066026  1.0000
  Se  Se1       1.0  0.2584146290885862  0.2584147809687477  0.7415853751796905  1.0000
  Se  Se2       1.0  0.7415851048516654  0.7415850573199171  0.25841483222596806  1.0000
  Se  Se3       1.0  0.7415850028867249  0.25841514244097796  0.2584149367615715  1.0000
  Se  Se4       1.0  0.25841493611208927  0.7415850460479831  0.7415850975196839  1.0000
  Se  Se5       1.0  0.25841489875055285  0.7415850612990054  0.25841505766800915  1.0000
  Se  Se6       1.0  0.7415852217879886  0.2584147183267113  0.741585296382084  1.0000
