data_image0
_chemical_formula_structural       Cs2CoSe6
_chemical_formula_sum              "Cs2 Co1 Se6"
_cell_length_a       6.854062691204193
_cell_length_b       6.854062757919402
_cell_length_c       6.85406261331941
_cell_angle_alpha    59.99999840677153
_cell_angle_beta     59.999995873523986
_cell_angle_gamma    60.00000028519022

_space_group_name_H-M_alt    "P 1"
_space_group_IT_number       1

loop_
  _space_group_symop_operation_xyz
  'x, y, z'

loop_
  _atom_site_type_symbol
  _atom_site_label
  _atom_site_symmetry_multiplicity
  _atom_site_fract_x
  _atom_site_fract_y
  _atom_site_fract_z
  _atom_site_occupancy
  Cs  Cs1       1.0  0.2499999207710654  0.24999994039069853  0.2500000556120397  1.0000
  Cs  Cs2       1.0  0.7500000848168442  0.7500001070743287  0.7499998217814785  1.0000
  Co  Co1       1.0  6.399787686988774e-08  2.0727911533795273e-07  0.9999998935412724  1.0000
  Se  Se1       1.0  0.24217283437432438  0.24217274047227214  0.7578272375925339  1.0000
  Se  Se2       1.0  0.7578270028813314  0.7578272408778611  0.24217284310489928  1.0000
  Se  Se3       1.0  0.757827026723214  0.24217298090693246  0.2421726259815713  1.0000
  Se  Se4       1.0  0.24217305137971315  0.7578267681476459  0.7578274839967398  1.0000
  Se  Se5       1.0  0.2421728853776473  0.7578270533090719  0.24217284414932455  1.0000
  Se  Se6       1.0  0.7578271503654448  0.24217294412306462  0.7578272153437158  1.0000
