data_image0
_chemical_formula_structural       Cs2CrO6
_chemical_formula_sum              "Cs2 Cr1 O6"
_cell_length_a       6.663790293151482
_cell_length_b       6.663789449889291
_cell_length_c       6.663790765115654
_cell_angle_alpha    59.99999449760405
_cell_angle_beta     59.999998610397796
_cell_angle_gamma    59.99999910039233

_space_group_name_H-M_alt    "P 1"
_space_group_IT_number       1

loop_
  _space_group_symop_operation_xyz
  'x, y, z'

loop_
  _atom_site_type_symbol
  _atom_site_label
  _atom_site_symmetry_multiplicity
  _atom_site_fract_x
  _atom_site_fract_y
  _atom_site_fract_z
  _atom_site_occupancy
  Cs  Cs1       1.0  0.2500000208974724  0.24999973227304031  0.2500001507818465  1.0000
  Cs  Cs2       1.0  0.7499998584468162  0.7500003969747515  0.7499999048691699  1.0000
  Cr  Cr1       1.0  7.898868667172229e-10  0.9999998676704334  0.9999998946960401  1.0000
  O   O1        1.0  0.18890197810981757  0.18890208507367967  0.8110980244902948  1.0000
  O   O2        1.0  0.8110980103136958  0.8110980184433692  0.18890206902079146  1.0000
  O   O3        1.0  0.8110979242981621  0.18890195029431714  0.18890221472469204  1.0000
  O   O4        1.0  0.18890225088939785  0.811097748882402  0.8110979665654706  1.0000
  O   O5        1.0  0.18890193053992718  0.8110980214077274  0.18890207284686117  1.0000
  O   O6        1.0  0.8110979680753689  0.18890209681260217  0.811098067220577  1.0000
