data_image0
_chemical_formula_structural       Cs2CO6
_chemical_formula_sum              "Cs2 C1 O6"
_cell_length_a       6.072301128274206
_cell_length_b       6.072302037244555
_cell_length_c       6.0723009868726185
_cell_angle_alpha    60.00000234879066
_cell_angle_beta     60.000009480556294
_cell_angle_gamma    59.99998942862057

_space_group_name_H-M_alt    "P 1"
_space_group_IT_number       1

loop_
  _space_group_symop_operation_xyz
  'x, y, z'

loop_
  _atom_site_type_symbol
  _atom_site_label
  _atom_site_symmetry_multiplicity
  _atom_site_fract_x
  _atom_site_fract_y
  _atom_site_fract_z
  _atom_site_occupancy
  Cs  Cs1       1.0  0.2500003052847792  0.24999989335397826  0.25000000406717704  1.0000
  Cs  Cs2       1.0  0.749999897170522  0.7500002488382824  0.7500001498736076  1.0000
  C   C1        1.0  0.9999999805580954  1.3190766559407253e-06  0.9999989467111533  1.0000
  O   O1        1.0  0.17765924306207692  0.17765958283793426  0.822340153382422  1.0000
  O   O2        1.0  0.8223398866452134  0.8223396416483936  0.1776597491408906  1.0000
  O   O3        1.0  0.8223403246969265  0.17765974039054397  0.17766000277137245  1.0000
  O   O4        1.0  0.1776597526161051  0.8223405490381177  0.8223401829397117  1.0000
  O   O5        1.0  0.17766019382139042  0.8223396489662667  0.17765999411595013  1.0000
  O   O6        1.0  0.822340200941976  0.17765948274064805  0.8223406825442443  1.0000
