data_image0
_chemical_formula_structural       Cs2CrS6
_chemical_formula_sum              "Cs2 Cr1 S6"
_cell_length_a       6.715802273075782
_cell_length_b       6.715796903309116
_cell_length_c       6.715799661562284
_cell_angle_alpha    60.00000051641892
_cell_angle_beta     59.99997494188886
_cell_angle_gamma    60.0000153145736

_space_group_name_H-M_alt    "P 1"
_space_group_IT_number       1

loop_
  _space_group_symop_operation_xyz
  'x, y, z'

loop_
  _atom_site_type_symbol
  _atom_site_label
  _atom_site_symmetry_multiplicity
  _atom_site_fract_x
  _atom_site_fract_y
  _atom_site_fract_z
  _atom_site_occupancy
  Cs  Cs1       1.0  0.25000017470167446  0.25000002201981664  0.24999932791588406  1.0000
  Cs  Cs2       1.0  0.7499992316141191  0.7500002812534529  0.7500002660458887  1.0000
  Cr  Cr1       1.0  3.685971820232887e-06  0.9999995987926901  0.9999996530692259  1.0000
  S   S1        1.0  0.23621140819706393  0.23621407269283518  0.763786088120384  1.0000
  S   S2        1.0  0.76378762692326  0.7637883551644339  0.2362119754650629  1.0000
  S   S3        1.0  0.763786856881987  0.23621198201541965  0.23621406638786366  1.0000
  S   S4        1.0  0.23621218388322338  0.7637862714441931  0.7637868439548104  1.0000
  S   S5        1.0  0.23621249606719677  0.7637864142323566  0.23621449273797163  1.0000
  S   S6        1.0  0.7637865236860761  0.2362126708246287  0.7637874045513466  1.0000
