data_image0
_chemical_formula_structural       Cs2CrTe6
_chemical_formula_sum              "Cs2 Cr1 Te6"
_cell_length_a       8.494592535740587
_cell_length_b       8.494586396744106
_cell_length_c       8.494588747091855
_cell_angle_alpha    59.9999795871994
_cell_angle_beta     60.00000781565119
_cell_angle_gamma    60.00000702705805

_space_group_name_H-M_alt    "P 1"
_space_group_IT_number       1

loop_
  _space_group_symop_operation_xyz
  'x, y, z'

loop_
  _atom_site_type_symbol
  _atom_site_label
  _atom_site_symmetry_multiplicity
  _atom_site_fract_x
  _atom_site_fract_y
  _atom_site_fract_z
  _atom_site_occupancy
  Cs  Cs1       1.0  0.2499997922943701  0.25000024096368223  0.2499999179626178  1.0000
  Cs  Cs2       1.0  0.7500001958633478  0.7499998563725324  0.7500000578353893  1.0000
  Cr  Cr1       1.0  0.9999999160134455  0.9999997707545959  1.6526819913658033e-08  1.0000
  Te  Te1       1.0  0.21462615471879282  0.21462392412970885  0.7853753092877943  1.0000
  Te  Te2       1.0  0.7853738400448117  0.7853760881405671  0.21462510717227487  1.0000
  Te  Te3       1.0  0.78537411057776  0.21462475346120102  0.21462572121300716  1.0000
  Te  Te4       1.0  0.2146264423737021  0.7853747383213378  0.7853741713696252  1.0000
  Te  Te5       1.0  0.21462604947979666  0.7853756656142032  0.21462413224500695  1.0000
  Te  Te6       1.0  0.7853735101758923  0.21462497095319671  0.7853755715799132  1.0000
