data_image0
_chemical_formula_structural       Cs2CS6
_chemical_formula_sum              "Cs2 C1 S6"
_cell_length_a       7.110818673467175
_cell_length_b       9.169116796259539
_cell_length_c       8.673704885407231
_cell_angle_alpha    45.97851689461853
_cell_angle_beta     52.172362287469774
_cell_angle_gamma    57.31572661609777

_space_group_name_H-M_alt    "P 1"
_space_group_IT_number       1

loop_
  _space_group_symop_operation_xyz
  'x, y, z'

loop_
  _atom_site_type_symbol
  _atom_site_label
  _atom_site_symmetry_multiplicity
  _atom_site_fract_x
  _atom_site_fract_y
  _atom_site_fract_z
  _atom_site_occupancy
  Cs  Cs1       1.0  0.43844179491925345  0.060347171343560116  0.3763041765830534  1.0000
  Cs  Cs2       1.0  0.853228502066294  0.5711873246778959  0.9769455648297287  1.0000
  C   C1        1.0  0.6882878633439962  0.3434465229452356  0.6662088053079374  1.0000
  S   S1        1.0  0.8853111187244975  0.24128708181972774  0.7626061368046733  1.0000
  S   S2        1.0  0.10482674741243847  0.7327794473497359  0.19812392449340052  1.0000
  S   S3        1.0  0.9852286120941658  0.015384658659639823  0.362597036544022  1.0000
  S   S4        1.0  0.32300307968542563  0.6454149796603342  0.9662119997807851  1.0000
  S   S5        1.0  0.23351559400606126  0.9375353278142784  0.12064842964752967  1.0000
  S   S6        1.0  0.4881605774051043  0.4526152193890068  0.5703514030736915  1.0000
