data_image0
_chemical_formula_structural       Cs2FeS6
_chemical_formula_sum              "Cs2 Fe1 S6"
_cell_length_a       7.567676104158193
_cell_length_b       7.567673868156546
_cell_length_c       7.567661638822223
_cell_angle_alpha    60.0001004763816
_cell_angle_beta     60.00003897225807
_cell_angle_gamma    60.000115047502725

_space_group_name_H-M_alt    "P 1"
_space_group_IT_number       1

loop_
  _space_group_symop_operation_xyz
  'x, y, z'

loop_
  _atom_site_type_symbol
  _atom_site_label
  _atom_site_symmetry_multiplicity
  _atom_site_fract_x
  _atom_site_fract_y
  _atom_site_fract_z
  _atom_site_occupancy
  Cs  Cs1       1.0  0.2500002167579148  0.25000020415471474  0.25000062811628276  1.0000
  Cs  Cs2       1.0  0.7500026559406339  0.7499977997061138  0.7500006057353906  1.0000
  Fe  Fe1       1.0  7.978821486591319e-06  6.538379755067068e-07  1.270599588248526e-06  1.0000
  S   S1        1.0  0.20578249410819713  0.20578035720166626  0.7942191490345925  1.0000
  S   S2        1.0  0.7942143732816787  0.7942142124353179  0.20578661694269548  1.0000
  S   S3        1.0  0.7942168858056898  0.20578325724527644  0.20578326901003138  1.0000
  S   S4        1.0  0.20578592658051026  0.7942141219151897  0.7942142492910889  1.0000
  S   S5        1.0  0.20577935594099023  0.7942197180807106  0.2057808130117142  1.0000
  S   S6        1.0  0.7942103455427888  0.20578851721345354  0.794211600900352  1.0000
