data_image0
_chemical_formula_structural       Cs2FeTe6
_chemical_formula_sum              "Cs2 Fe1 Te6"
_cell_length_a       8.46144743457845
_cell_length_b       8.461448736702048
_cell_length_c       8.461448148731868
_cell_angle_alpha    59.99998767596617
_cell_angle_beta     60.00000747517236
_cell_angle_gamma    60.000002678682705

_space_group_name_H-M_alt    "P 1"
_space_group_IT_number       1

loop_
  _space_group_symop_operation_xyz
  'x, y, z'

loop_
  _atom_site_type_symbol
  _atom_site_label
  _atom_site_symmetry_multiplicity
  _atom_site_fract_x
  _atom_site_fract_y
  _atom_site_fract_z
  _atom_site_occupancy
  Cs  Cs1       1.0  0.24999997502793941  0.2500000713316646  0.2500001098946422  1.0000
  Cs  Cs2       1.0  0.7500000756151851  0.7499999056900938  0.7500000126574224  1.0000
  Fe  Fe1       1.0  3.1169695249791484e-08  0.9999998205172769  1.1315695247715297e-07  1.0000
  Te  Te1       1.0  0.19781407701036424  0.1978141545940641  0.8021858246538187  1.0000
  Te  Te2       1.0  0.802185907097906  0.802185661761752  0.19781420586009846  1.0000
  Te  Te3       1.0  0.8021853818621706  0.1978146649741812  0.19781446387991722  1.0000
  Te  Te4       1.0  0.19781459913821745  0.8021855291637713  0.8021855447531422  1.0000
  Te  Te5       1.0  0.19781402757679195  0.8021860450525644  0.19781381256545197  1.0000
  Te  Te6       1.0  0.8021859262958949  0.19781414040079748  0.8021859279706997  1.0000
