data_image0
_chemical_formula_structural       Cs2GeS6
_chemical_formula_sum              "Cs2 Ge1 S6"
_cell_length_a       7.2996402439139
_cell_length_b       7.299639940609589
_cell_length_c       7.299641153520594
_cell_angle_alpha    59.99998745639025
_cell_angle_beta     59.99998742464767
_cell_angle_gamma    59.999990222829695

_space_group_name_H-M_alt    "P 1"
_space_group_IT_number       1

loop_
  _space_group_symop_operation_xyz
  'x, y, z'

loop_
  _atom_site_type_symbol
  _atom_site_label
  _atom_site_symmetry_multiplicity
  _atom_site_fract_x
  _atom_site_fract_y
  _atom_site_fract_z
  _atom_site_occupancy
  Cs  Cs1       1.0  0.24999979992475166  0.2500000053065676  0.25000008224150067  1.0000
  Cs  Cs2       1.0  0.7500000392787951  0.7499999102173073  0.750000027770957  1.0000
  Ge  Ge1       1.0  0.9999997711096169  9.429324173933788e-07  0.9999995854418723  1.0000
  S   S1        1.0  0.22698285813276328  0.2269832076986221  0.773017087964817  1.0000
  S   S2        1.0  0.7730168747983108  0.7730167229255923  0.22698311695120574  1.0000
  S   S3        1.0  0.7730168145951447  0.22698311229312326  0.226982882651874  1.0000
  S   S4        1.0  0.22698341031642824  0.7730164576007187  0.7730171963621381  1.0000
  S   S5        1.0  0.22698365822848554  0.7730167740421363  0.2269827823462089  1.0000
  S   S6        1.0  0.7730169565689137  0.22698295021073103  0.7730173177104401  1.0000
