data_image0
_chemical_formula_structural       Cs2GeO6
_chemical_formula_sum              "Cs2 Ge1 O6"
_cell_length_a       6.626745059073998
_cell_length_b       6.626745366892405
_cell_length_c       6.626745376131843
_cell_angle_alpha    59.999998787861394
_cell_angle_beta     60.00000308777526
_cell_angle_gamma    59.99999894412015

_space_group_name_H-M_alt    "P 1"
_space_group_IT_number       1

loop_
  _space_group_symop_operation_xyz
  'x, y, z'

loop_
  _atom_site_type_symbol
  _atom_site_label
  _atom_site_symmetry_multiplicity
  _atom_site_fract_x
  _atom_site_fract_y
  _atom_site_fract_z
  _atom_site_occupancy
  Cs  Cs1       1.0  0.24999995551424023  0.250000002049316  0.25000004774879964  1.0000
  Cs  Cs2       1.0  0.750000091640409  0.7499999895142814  0.7500000480686146  1.0000
  Ge  Ge1       1.0  0.9999999895269502  3.141914051199865e-08  0.9999999382197163  1.0000
  O   O1        1.0  0.19877732449514465  0.19877749883190657  0.8012226319107174  1.0000
  O   O2        1.0  0.8012226124419968  0.801222546329051  0.19877737149385402  1.0000
  O   O3        1.0  0.8012227151408695  0.19877736137857754  0.19877744796766558  1.0000
  O   O4        1.0  0.19877722890818278  0.8012226153995492  0.80122256796393  1.0000
  O   O5        1.0  0.19877734391163557  0.8012226192096382  0.1987775324186115  1.0000
  O   O6        1.0  0.801222678953912  0.19877736680941036  0.8012224304300598  1.0000
