data_image0
_chemical_formula_structural       Cs2GeTe6
_chemical_formula_sum              "Cs2 Ge1 Te6"
_cell_length_a       8.49016907558601
_cell_length_b       8.490161594279709
_cell_length_c       8.4901955040825
_cell_angle_alpha    59.99988542376255
_cell_angle_beta     59.99991987459597
_cell_angle_gamma    59.99969361881866

_space_group_name_H-M_alt    "P 1"
_space_group_IT_number       1

loop_
  _space_group_symop_operation_xyz
  'x, y, z'

loop_
  _atom_site_type_symbol
  _atom_site_label
  _atom_site_symmetry_multiplicity
  _atom_site_fract_x
  _atom_site_fract_y
  _atom_site_fract_z
  _atom_site_occupancy
  Cs  Cs1       1.0  0.25000031066574463  0.2500015438321535  0.24999921124949812  1.0000
  Cs  Cs2       1.0  0.7500002389769622  0.7499984891240774  0.7500005979796538  1.0000
  Ge  Ge1       1.0  0.9999997344863535  0.9999994215383765  0.9999995339043115  1.0000
  Te  Te1       1.0  0.22359707079050736  0.22360130546628554  0.7764003743566613  1.0000
  Te  Te2       1.0  0.7764017200019769  0.7763991241953578  0.2236001171224738  1.0000
  Te  Te3       1.0  0.7764063342348702  0.22359321080396224  0.2236045281012361  1.0000
  Te  Te4       1.0  0.22359505522509066  0.7764063590918584  0.7763947075994362  1.0000
  Te  Te5       1.0  0.22359390183311903  0.7764066344290536  0.22360447676006726  1.0000
  Te  Te6       1.0  0.776405552963814  0.22359382696711042  0.7763966008682408  1.0000
