data_image0
_chemical_formula_structural       Cs2GeSe6
_chemical_formula_sum              "Cs2 Ge1 Se6"
_cell_length_a       6.989446166834231
_cell_length_b       6.989445407458233
_cell_length_c       6.989445273489628
_cell_angle_alpha    60.000000625791024
_cell_angle_beta     59.99999995361578
_cell_angle_gamma    60.000013734157484

_space_group_name_H-M_alt    "P 1"
_space_group_IT_number       1

loop_
  _space_group_symop_operation_xyz
  'x, y, z'

loop_
  _atom_site_type_symbol
  _atom_site_label
  _atom_site_symmetry_multiplicity
  _atom_site_fract_x
  _atom_site_fract_y
  _atom_site_fract_z
  _atom_site_occupancy
  Cs  Cs1       1.0  0.24999981886150183  0.24999979493486826  0.25000011680099454  1.0000
  Cs  Cs2       1.0  0.750000235710811  0.7500001698250749  0.7499998888128012  1.0000
  Ge  Ge1       1.0  5.014890075164784e-08  0.999999824772258  1.7127480072543204e-07  1.0000
  Se  Se1       1.0  0.2534356710446212  0.25343552388579027  0.7465644567848095  1.0000
  Se  Se2       1.0  0.7465646724353461  0.7465646248633424  0.2534352937810815  1.0000
  Se  Se3       1.0  0.746563974121163  0.25343593447120794  0.2534355867616127  1.0000
  Se  Se4       1.0  0.25343600380632786  0.7465639777203972  0.746564529242084  1.0000
  Se  Se5       1.0  0.2534357111196542  0.7465642256340242  0.2534353553713628  1.0000
  Se  Se6       1.0  0.7465640315620634  0.2534358074646855  0.7465645860236254  1.0000
