data_image0
_chemical_formula_structural       Cs2HfTe6
_chemical_formula_sum              "Cs2 Hf1 Te6"
_cell_length_a       7.64584184804591
_cell_length_b       7.64584133356388
_cell_length_c       7.645844977618191
_cell_angle_alpha    59.99997607128276
_cell_angle_beta     59.999962639295674
_cell_angle_gamma    60.000045356125376

_space_group_name_H-M_alt    "P 1"
_space_group_IT_number       1

loop_
  _space_group_symop_operation_xyz
  'x, y, z'

loop_
  _atom_site_type_symbol
  _atom_site_label
  _atom_site_symmetry_multiplicity
  _atom_site_fract_x
  _atom_site_fract_y
  _atom_site_fract_z
  _atom_site_occupancy
  Cs  Cs1       1.0  0.2500003042139598  0.24999975348311773  0.2499997735492089  1.0000
  Cs  Cs2       1.0  0.7499998629015349  0.750000561146283  0.7499996450870137  1.0000
  Hf  Hf1       1.0  9.671948332472595e-07  0.9999987249325115  3.5309338139299457e-06  1.0000
  Te  Te1       1.0  0.2693318380171782  0.2693355091097685  0.7306664434446607  1.0000
  Te  Te2       1.0  0.7306678578005333  0.7306646789735725  0.26933405231402563  1.0000
  Te  Te3       1.0  0.7306647055631663  0.2693346560783698  0.26933337451425987  1.0000
  Te  Te4       1.0  0.26933670480142735  0.7306633967475699  0.7306653265889386  1.0000
  Te  Te5       1.0  0.2693337059655239  0.7306676556116419  0.2693333381280918  1.0000
  Te  Te6       1.0  0.7306640378412017  0.26933513546751897  0.7306645472372161  1.0000
