data_image0
_chemical_formula_structural       Cs2HfSe6
_chemical_formula_sum              "Cs2 Hf1 Se6"
_cell_length_a       7.179581919165946
_cell_length_b       7.179582000619027
_cell_length_c       7.17958324432352
_cell_angle_alpha    59.999992213686
_cell_angle_beta     59.99999517339505
_cell_angle_gamma    60.000014168669

_space_group_name_H-M_alt    "P 1"
_space_group_IT_number       1

loop_
  _space_group_symop_operation_xyz
  'x, y, z'

loop_
  _atom_site_type_symbol
  _atom_site_label
  _atom_site_symmetry_multiplicity
  _atom_site_fract_x
  _atom_site_fract_y
  _atom_site_fract_z
  _atom_site_occupancy
  Cs  Cs1       1.0  0.2500000597371295  0.24999992046716282  0.2500000318070527  1.0000
  Cs  Cs2       1.0  0.7499999710199665  0.7500000241057556  0.7499999553448105  1.0000
  Hf  Hf1       1.0  0.9999987747759358  0.9999999556470777  1.918658372071991e-07  1.0000
  Se  Se1       1.0  0.26707733296552033  0.2670774351399167  0.7329225218495076  1.0000
  Se  Se2       1.0  0.732923430894388  0.7329231713115409  0.26707685556050265  1.0000
  Se  Se3       1.0  0.7329222398018114  0.26707787468582966  0.2670776105893842  1.0000
  Se  Se4       1.0  0.26707773615839675  0.7329221040045198  0.7329223869022065  1.0000
  Se  Se5       1.0  0.2670776777138513  0.732922135878046  0.2670777980453331  1.0000
  Se  Se6       1.0  0.7329228081704942  0.2670773600505852  0.7329226650015065  1.0000
