data_image0
_chemical_formula_structural       Cs2HfO6
_chemical_formula_sum              "Cs2 Hf1 O6"
_cell_length_a       6.764319727357983
_cell_length_b       6.7643197028680575
_cell_length_c       6.764319698654916
_cell_angle_alpha    60.00000117674261
_cell_angle_beta     60.00000078770885
_cell_angle_gamma    60.00000190708687

_space_group_name_H-M_alt    "P 1"
_space_group_IT_number       1

loop_
  _space_group_symop_operation_xyz
  'x, y, z'

loop_
  _atom_site_type_symbol
  _atom_site_label
  _atom_site_symmetry_multiplicity
  _atom_site_fract_x
  _atom_site_fract_y
  _atom_site_fract_z
  _atom_site_occupancy
  Cs  Cs1       1.0  0.24999994968854555  0.25000002509598773  0.24999998359101305  1.0000
  Cs  Cs2       1.0  0.7499999965106603  0.7500000119171145  0.7499999516079646  1.0000
  Hf  Hf1       1.0  1.8777506727700417e-08  1.100756237682595e-15  6.896354524259501e-08  1.0000
  O   O1        1.0  0.2130400769503111  0.21304004914873226  0.7869598794408664  1.0000
  O   O2        1.0  0.786959938859116  0.7869599480312649  0.21304007634983985  1.0000
  O   O3        1.0  0.7869599258198439  0.21304002885650056  0.21304007894321647  1.0000
  O   O4        1.0  0.21304004108878  0.7869599665129012  0.7869600071657024  1.0000
  O   O5        1.0  0.2130400826996414  0.7869598970239924  0.2130400523646362  1.0000
  O   O6        1.0  0.7869599517157246  0.21304004945932414  0.7869599431249644  1.0000
