data_image0
_chemical_formula_structural       Cs2HfS6
_chemical_formula_sum              "Cs2 Hf1 S6"
_cell_length_a       7.36610187774959
_cell_length_b       7.366101808760058
_cell_length_c       7.3661018766159545
_cell_angle_alpha    59.999999971375566
_cell_angle_beta     59.99999977489349
_cell_angle_gamma    59.99999987708602

_space_group_name_H-M_alt    "P 1"
_space_group_IT_number       1

loop_
  _space_group_symop_operation_xyz
  'x, y, z'

loop_
  _atom_site_type_symbol
  _atom_site_label
  _atom_site_symmetry_multiplicity
  _atom_site_fract_x
  _atom_site_fract_y
  _atom_site_fract_z
  _atom_site_occupancy
  Cs  Cs1       1.0  0.24999999811671508  0.24999999989993765  0.2499999999505405  1.0000
  Cs  Cs2       1.0  0.7499999907558358  0.7499999963744588  0.7500000046690235  1.0000
  Hf  Hf1       1.0  0.9999999546187528  2.3277479122910408e-08  0.9999999852580513  1.0000
  S   S1        1.0  0.23989438562804954  0.2398943885354331  0.7601056188911743  1.0000
  S   S2        1.0  0.7601056238133121  0.760105597762901  0.23989439400771692  1.0000
  S   S3        1.0  0.7601056237985364  0.23989440295348613  0.23989436973703154  1.0000
  S   S4        1.0  0.23989440214187632  0.7601055949835877  0.7601056263778241  1.0000
  S   S5        1.0  0.2398944083808711  0.7601055845894442  0.2398943994789647  1.0000
  S   S6        1.0  0.7601056112891934  0.2398944133476295  0.7601055984134948  1.0000
