data_image0
_chemical_formula_structural       Cs2IrSe6
_chemical_formula_sum              "Cs2 Ir1 Se6"
_cell_length_a       6.921065634351368
_cell_length_b       6.921065762834864
_cell_length_c       6.9210655235288145
_cell_angle_alpha    60.0000033503097
_cell_angle_beta     59.99999541922234
_cell_angle_gamma    59.99999978279205

_space_group_name_H-M_alt    "P 1"
_space_group_IT_number       1

loop_
  _space_group_symop_operation_xyz
  'x, y, z'

loop_
  _atom_site_type_symbol
  _atom_site_label
  _atom_site_symmetry_multiplicity
  _atom_site_fract_x
  _atom_site_fract_y
  _atom_site_fract_z
  _atom_site_occupancy
  Cs  Cs1       1.0  0.2499995059980189  0.2500003471741421  0.25000015580911766  1.0000
  Cs  Cs2       1.0  0.7500003527850906  0.7499997514913314  0.7499999089641738  1.0000
  Ir  Ir1       1.0  0.9999999984645564  1.0971458415386993e-07  1.496362878270023e-07  1.0000
  Se  Se1       1.0  0.25779059530069426  0.2577909038964123  0.7422091719907878  1.0000
  Se  Se2       1.0  0.7422093386927375  0.7422093044836242  0.257790554693141  1.0000
  Se  Se3       1.0  0.7422094725323858  0.2577907401686384  0.25779046701204206  1.0000
  Se  Se4       1.0  0.2577906273138491  0.742208965647857  0.7422094077991417  1.0000
  Se  Se5       1.0  0.2577909698899329  0.7422088486182022  0.25779091918447333  1.0000
  Se  Se6       1.0  0.7422091679387134  0.25779102353976263  0.7422092508024343  1.0000
