data_image0
_chemical_formula_structural       Cs2MoO6
_chemical_formula_sum              "Cs2 Mo1 O6"
_cell_length_a       6.8488111392228985
_cell_length_b       6.848810783250474
_cell_length_c       6.848810887565783
_cell_angle_alpha    59.99999987442316
_cell_angle_beta     60.00000234129348
_cell_angle_gamma    60.00000176027577

_space_group_name_H-M_alt    "P 1"
_space_group_IT_number       1

loop_
  _space_group_symop_operation_xyz
  'x, y, z'

loop_
  _atom_site_type_symbol
  _atom_site_label
  _atom_site_symmetry_multiplicity
  _atom_site_fract_x
  _atom_site_fract_y
  _atom_site_fract_z
  _atom_site_occupancy
  Cs  Cs1       1.0  0.250000093360652  0.2499999342861667  0.25000012717618225  1.0000
  Cs  Cs2       1.0  0.7499999269216082  0.7500001390512163  0.7499998804348501  1.0000
  Mo  Mo1       1.0  1.2272676640985074e-09  0.9999999356226696  7.683836303274536e-08  1.0000
  O   O1        1.0  0.19475549285186214  0.19475532970886753  0.8052445737675317  1.0000
  O   O2        1.0  0.8052444941548457  0.8052446613685925  0.1947554507282285  1.0000
  O   O3        1.0  0.8052444994663785  0.19475553333143547  0.1947552832946579  1.0000
  O   O4        1.0  0.1947554158405158  0.805244622265867  0.8052445224984052  1.0000
  O   O5        1.0  0.19475549448362406  0.8052444970669435  0.1947553574135631  1.0000
  O   O6        1.0  0.8052447415728585  0.19475546003359853  0.8052444660988921  1.0000
