data_image0
_chemical_formula_structural       Cs2MnS6
_chemical_formula_sum              "Cs2 Mn1 S6"
_cell_length_a       7.542085953203689
_cell_length_b       7.542089020652219
_cell_length_c       7.542087052861102
_cell_angle_alpha    59.999994332404256
_cell_angle_beta     59.99998458316521
_cell_angle_gamma    60.00000360592531

_space_group_name_H-M_alt    "P 1"
_space_group_IT_number       1

loop_
  _space_group_symop_operation_xyz
  'x, y, z'

loop_
  _atom_site_type_symbol
  _atom_site_label
  _atom_site_symmetry_multiplicity
  _atom_site_fract_x
  _atom_site_fract_y
  _atom_site_fract_z
  _atom_site_occupancy
  Cs  Cs1       1.0  0.2500000647945026  0.25000008555828773  0.2500000638914183  1.0000
  Cs  Cs2       1.0  0.7500000608514388  0.7499998994212383  0.7500003681207182  1.0000
  Mn  Mn1       1.0  9.572657224318539e-08  1.1367149177851005e-08  6.313170939415735e-08  1.0000
  S   S1        1.0  0.20913242593893228  0.20913250440817469  0.7908678385109917  1.0000
  S   S2        1.0  0.7908676287843621  0.7908675601414934  0.20913244995863517  1.0000
  S   S3        1.0  0.790867462569989  0.2091326296603988  0.20913228748412857  1.0000
  S   S4        1.0  0.209132625734875  0.790866985074576  0.7908673631824084  1.0000
  S   S5        1.0  0.20913266660175886  0.7908675172623597  0.20913223731294628  1.0000
  S   S6        1.0  0.7908669112742867  0.20913298573503664  0.7908672151554833  1.0000
