data_image0
_chemical_formula_structural       Cs2MnSe6
_chemical_formula_sum              "Cs2 Mn1 Se6"
_cell_length_a       7.000903203672744
_cell_length_b       7.000904297118315
_cell_length_c       7.000902779162626
_cell_angle_alpha    60.00000032392146
_cell_angle_beta     60.000007049963116
_cell_angle_gamma    60.00000786436067

_space_group_name_H-M_alt    "P 1"
_space_group_IT_number       1

loop_
  _space_group_symop_operation_xyz
  'x, y, z'

loop_
  _atom_site_type_symbol
  _atom_site_label
  _atom_site_symmetry_multiplicity
  _atom_site_fract_x
  _atom_site_fract_y
  _atom_site_fract_z
  _atom_site_occupancy
  Cs  Cs1       1.0  0.24999956170282361  0.24999997205650934  0.2500001212135082  1.0000
  Cs  Cs2       1.0  0.7500004159352064  0.7499999686518511  0.7499998705060904  1.0000
  Mn  Mn1       1.0  1.3970946463928767e-07  1.6969278727219166e-07  0.9999992110949486  1.0000
  Se  Se1       1.0  0.23883904296045594  0.23883835308133808  0.7611617102172796  1.0000
  Se  Se2       1.0  0.7611612684970521  0.7611616401092611  0.2388387154134566  1.0000
  Se  Se3       1.0  0.7611605967110738  0.2388392064169309  0.23883879535251315  1.0000
  Se  Se4       1.0  0.2388395779412736  0.7611602916908081  0.7611616462609393  1.0000
  Se  Se5       1.0  0.2388396424627453  0.7611604786517884  0.2388386179815003  1.0000
  Se  Se6       1.0  0.7611599474871011  0.2388397839479137  0.7611612595126049  1.0000
