data_image0
_chemical_formula_structural       Cs2MnTe6
_chemical_formula_sum              "Cs2 Mn1 Te6"
_cell_length_a       8.378882528706288
_cell_length_b       8.378883818114973
_cell_length_c       8.378882221467837
_cell_angle_alpha    60.000008382465545
_cell_angle_beta     60.00001054408689
_cell_angle_gamma    60.00002671323478

_space_group_name_H-M_alt    "P 1"
_space_group_IT_number       1

loop_
  _space_group_symop_operation_xyz
  'x, y, z'

loop_
  _atom_site_type_symbol
  _atom_site_label
  _atom_site_symmetry_multiplicity
  _atom_site_fract_x
  _atom_site_fract_y
  _atom_site_fract_z
  _atom_site_occupancy
  Cs  Cs1       1.0  0.24999998072562224  0.2499998326967348  0.250000063439563  1.0000
  Cs  Cs2       1.0  0.7500000666554401  0.750000125161176  0.7499998670569065  1.0000
  Mn  Mn1       1.0  0.9999997411378428  3.654254287219906e-08  7.774244418830974e-08  1.0000
  Te  Te1       1.0  0.20903167870414646  0.2090317722877505  0.7909681085585519  1.0000
  Te  Te2       1.0  0.7909681321726074  0.7909681095615131  0.20903186600757553  1.0000
  Te  Te3       1.0  0.7909678453970302  0.20903254341740332  0.20903139690240002  1.0000
  Te  Te4       1.0  0.2090321354669769  0.7909677710962277  0.7909685949961923  1.0000
  Te  Te5       1.0  0.2090322696920488  0.7909676755814248  0.20903160229310663  1.0000
  Te  Te6       1.0  0.7909681471079428  0.20903213318276848  0.7909684233187584  1.0000
