data_image0
_chemical_formula_structural       Cs2MoS6
_chemical_formula_sum              "Cs2 Mo1 S6"
_cell_length_a       7.092535446483463
_cell_length_b       7.092535659667844
_cell_length_c       7.0925357743507575
_cell_angle_alpha    59.99999472798804
_cell_angle_beta     60.000003050668255
_cell_angle_gamma    60.00000505220821

_space_group_name_H-M_alt    "P 1"
_space_group_IT_number       1

loop_
  _space_group_symop_operation_xyz
  'x, y, z'

loop_
  _atom_site_type_symbol
  _atom_site_label
  _atom_site_symmetry_multiplicity
  _atom_site_fract_x
  _atom_site_fract_y
  _atom_site_fract_z
  _atom_site_occupancy
  Cs  Cs1       1.0  0.24999998513399732  0.25000000433540287  0.2499999348697425  1.0000
  Cs  Cs2       1.0  0.7499999496967977  0.749999942207065  0.7499999077183153  1.0000
  Mo  Mo1       1.0  0.9999999177285049  0.9999998463140596  1.0951912263336016e-07  1.0000
  S   S1        1.0  0.22847694160503912  0.22847698073979616  0.7715229011790792  1.0000
  S   S2        1.0  0.7715233052469683  0.7715232800817953  0.22847666632700017  1.0000
  S   S3        1.0  0.77152272066823  0.22847725010257236  0.22847742463626677  1.0000
  S   S4        1.0  0.22847705038404043  0.7715228898423676  0.771522969932857  1.0000
  S   S5        1.0  0.22847714922841975  0.7715227574485969  0.22847721964513384  1.0000
  S   S6        1.0  0.7715229667957227  0.2284770215934667  0.7715228571950015  1.0000
