data_image0
_chemical_formula_structural       Cs2NbSe6
_chemical_formula_sum              "Cs2 Nb1 Se6"
_cell_length_a       8.134188593560543
_cell_length_b       8.134177752097052
_cell_length_c       8.134175837563836
_cell_angle_alpha    60.00010651074824
_cell_angle_beta     59.99995866208502
_cell_angle_gamma    59.99999251215636

_space_group_name_H-M_alt    "P 1"
_space_group_IT_number       1

loop_
  _space_group_symop_operation_xyz
  'x, y, z'

loop_
  _atom_site_type_symbol
  _atom_site_label
  _atom_site_symmetry_multiplicity
  _atom_site_fract_x
  _atom_site_fract_y
  _atom_site_fract_z
  _atom_site_occupancy
  Cs  Cs1       1.0  0.24999884282917761  0.2499989522869996  0.25000015408809867  1.0000
  Cs  Cs2       1.0  0.7500003797786512  0.7500008770207929  0.7500006535706375  1.0000
  Nb  Nb1       1.0  3.5059128804649473e-06  0.999998259436103  0.9999983735463259  1.0000
  Se  Se1       1.0  0.2157098067139495  0.21570728340038361  0.7842925952565762  1.0000
  Se  Se2       1.0  0.784289797957667  0.7842933544556919  0.21570786911953277  1.0000
  Se  Se3       1.0  0.784291400288622  0.21570932059693307  0.21570826957100314  1.0000
  Se  Se4       1.0  0.21570814798871898  0.7842905026869451  0.7842916357186672  1.0000
  Se  Se5       1.0  0.21570839425855573  0.7842915406476222  0.21571177152144325  1.0000
  Se  Se6       1.0  0.7842899034804967  0.21570999007418568  0.7842884585419437  1.0000
