data_image0
_chemical_formula_structural       Cs2NbTe6
_chemical_formula_sum              "Cs2 Nb1 Te6"
_cell_length_a       8.536600884796574
_cell_length_b       8.5366007285735
_cell_length_c       8.53660213371403
_cell_angle_alpha    60.00000686986399
_cell_angle_beta     59.99999257114989
_cell_angle_gamma    60.000010464613226

_space_group_name_H-M_alt    "P 1"
_space_group_IT_number       1

loop_
  _space_group_symop_operation_xyz
  'x, y, z'

loop_
  _atom_site_type_symbol
  _atom_site_label
  _atom_site_symmetry_multiplicity
  _atom_site_fract_x
  _atom_site_fract_y
  _atom_site_fract_z
  _atom_site_occupancy
  Cs  Cs1       1.0  0.2500001002297732  0.24999988932183903  0.2499999946820267  1.0000
  Cs  Cs2       1.0  0.7499999143572771  0.7500001371118672  0.7500000468959155  1.0000
  Nb  Nb1       1.0  0.9999998607594278  0.9999999956958969  1.0925798058713084e-07  1.0000
  Te  Te1       1.0  0.22266303761504203  0.222663525361652  0.7773367379569323  1.0000
  Te  Te2       1.0  0.7773366815910139  0.7773364092513398  0.22266357102171652  1.0000
  Te  Te3       1.0  0.7773365820991527  0.2226631504528872  0.22266352489817526  1.0000
  Te  Te4       1.0  0.2226638329956451  0.7773367985071054  0.7773360880775453  1.0000
  Te  Te5       1.0  0.22266353422105367  0.7773367156454849  0.222663523174754  1.0000
  Te  Te6       1.0  0.7773364291693559  0.22266337104553463  0.7773364213301831  1.0000
