data_image0
_chemical_formula_structural       Cs2NbO6
_chemical_formula_sum              "Cs2 Nb1 O6"
_cell_length_a       6.945655565885167
_cell_length_b       6.9456556877942965
_cell_length_c       6.945656355618303
_cell_angle_alpha    59.999995061450726
_cell_angle_beta     59.99999740526147
_cell_angle_gamma    59.99999215076786

_space_group_name_H-M_alt    "P 1"
_space_group_IT_number       1

loop_
  _space_group_symop_operation_xyz
  'x, y, z'

loop_
  _atom_site_type_symbol
  _atom_site_label
  _atom_site_symmetry_multiplicity
  _atom_site_fract_x
  _atom_site_fract_y
  _atom_site_fract_z
  _atom_site_occupancy
  Cs  Cs1       1.0  0.24999997168582294  0.2500000116651282  0.24999992689654651  1.0000
  Cs  Cs2       1.0  0.7500001472197234  0.7499998621894999  0.749999879149097  1.0000
  Nb  Nb1       1.0  3.448360704279046e-07  1.3753935740282496e-07  0.9999991944307804  1.0000
  O   O1        1.0  0.201572380112048  0.2015722688248805  0.7984280596742972  1.0000
  O   O2        1.0  0.7984276620802052  0.79842785013193  0.2015725807365951  1.0000
  O   O3        1.0  0.7984276937666149  0.20157206960544904  0.20157236588798683  1.0000
  O   O4        1.0  0.20157232005426848  0.798427560910307  0.7984277439468134  1.0000
  O   O5        1.0  0.20157203894157794  0.7984276300986254  0.20157246753081573  1.0000
  O   O6        1.0  0.7984274962465087  0.2015723989286447  0.7984279040859226  1.0000
