data_image0
_chemical_formula_structural       Cs2NbS6
_chemical_formula_sum              "Cs2 Nb1 S6"
_cell_length_a       7.532519664486516
_cell_length_b       7.532518696506928
_cell_length_c       7.532518447356125
_cell_angle_alpha    60.000002984926645
_cell_angle_beta     59.99999912838849
_cell_angle_gamma    59.9999762615303

_space_group_name_H-M_alt    "P 1"
_space_group_IT_number       1

loop_
  _space_group_symop_operation_xyz
  'x, y, z'

loop_
  _atom_site_type_symbol
  _atom_site_label
  _atom_site_symmetry_multiplicity
  _atom_site_fract_x
  _atom_site_fract_y
  _atom_site_fract_z
  _atom_site_occupancy
  Cs  Cs1       1.0  0.2500000166915491  0.24999997267858767  0.2499999820498676  1.0000
  Cs  Cs2       1.0  0.7499999601695778  0.750000077378233  0.7499996260018038  1.0000
  Nb  Nb1       1.0  3.208336311646058e-07  1.6422018928404172e-07  0.9999993764584111  1.0000
  S   S1        1.0  0.22121757562574745  0.22121760182966826  0.778782352615358  1.0000
  S   S2        1.0  0.7787824529359434  0.7787825506615906  0.22121747707368894  1.0000
  S   S3        1.0  0.778782624772971  0.22121705720632429  0.22121720031818126  1.0000
  S   S4        1.0  0.22121681906629292  0.7787831570709606  0.7787833846978254  1.0000
  S   S5        1.0  0.22121726299552427  0.7787826474906618  0.221217327330197  1.0000
  S   S6        1.0  0.7787830345270826  0.221216771700048  0.7787832536113417  1.0000
