data_image0
_chemical_formula_structural       Cs2OsSe6
_chemical_formula_sum              "Cs2 Os1 Se6"
_cell_length_a       6.922768023176839
_cell_length_b       6.922768237643724
_cell_length_c       6.922768707894629
_cell_angle_alpha    59.999996253386676
_cell_angle_beta     59.999998342943194
_cell_angle_gamma    60.000005767316935

_space_group_name_H-M_alt    "P 1"
_space_group_IT_number       1

loop_
  _space_group_symop_operation_xyz
  'x, y, z'

loop_
  _atom_site_type_symbol
  _atom_site_label
  _atom_site_symmetry_multiplicity
  _atom_site_fract_x
  _atom_site_fract_y
  _atom_site_fract_z
  _atom_site_occupancy
  Cs  Cs1       1.0  0.2500000236367119  0.2500001107906456  0.24999995121244514  1.0000
  Cs  Cs2       1.0  0.7499999495759456  0.7499999307737836  0.7500000385445462  1.0000
  Os  Os1       1.0  0.9999998308753616  1.2207166741251626e-07  7.552879721732714e-08  1.0000
  Se  Se1       1.0  0.2545570291154506  0.2545567047098123  0.7454430902779048  1.0000
  Se  Se2       1.0  0.7454430234200105  0.745443259011811  0.25455691029515964  1.0000
  Se  Se3       1.0  0.74544302531044  0.25455691080782505  0.2545570225636715  1.0000
  Se  Se4       1.0  0.25455707711398756  0.7454429733018371  0.7454429148674189  1.0000
  Se  Se5       1.0  0.25455701598064606  0.7454430076409758  0.2545570524841195  1.0000
  Se  Se6       1.0  0.7454430141802414  0.25455696315726384  0.7454429932951511  1.0000
