data_image0
_chemical_formula_structural       Cs2OsO6
_chemical_formula_sum              "Cs2 Os1 O6"
_cell_length_a       6.787254307152495
_cell_length_b       6.787255160081672
_cell_length_c       6.787254774765402
_cell_angle_alpha    59.99999764028854
_cell_angle_beta     59.999995630439535
_cell_angle_gamma    59.999999079193

_space_group_name_H-M_alt    "P 1"
_space_group_IT_number       1

loop_
  _space_group_symop_operation_xyz
  'x, y, z'

loop_
  _atom_site_type_symbol
  _atom_site_label
  _atom_site_symmetry_multiplicity
  _atom_site_fract_x
  _atom_site_fract_y
  _atom_site_fract_z
  _atom_site_occupancy
  Cs  Cs1       1.0  0.24999993881023475  0.2500000138948775  0.2500000474371664  1.0000
  Cs  Cs2       1.0  0.7500000009234981  0.7500001210816424  0.7499998895519138  1.0000
  Os  Os1       1.0  1.9967126288865654e-08  8.300595932426923e-08  1.7760891599952614e-08  1.0000
  O   O1        1.0  0.19407432974268696  0.1940740525083818  0.8059258003640773  1.0000
  O   O2        1.0  0.8059258849672282  0.8059257883383114  0.19407415356857874  1.0000
  O   O3        1.0  0.8059258635059212  0.19407410052697985  0.19407426268523745  1.0000
  O   O4        1.0  0.19407415803079087  0.805925789040601  0.8059259049151523  1.0000
  O   O5        1.0  0.19407416003527184  0.8059258063822445  0.19407427071786604  1.0000
  O   O6        1.0  0.8059257749426652  0.19407407235847418  0.8059259131616497  1.0000
