data_image0
_chemical_formula_structural       Cs2OsS6
_chemical_formula_sum              "Cs2 Os1 S6"
_cell_length_a       6.865590035750976
_cell_length_b       6.865590223485336
_cell_length_c       6.865591551693204
_cell_angle_alpha    59.999986815273
_cell_angle_beta     59.99998806549026
_cell_angle_gamma    59.99999894573818

_space_group_name_H-M_alt    "P 1"
_space_group_IT_number       1

loop_
  _space_group_symop_operation_xyz
  'x, y, z'

loop_
  _atom_site_type_symbol
  _atom_site_label
  _atom_site_symmetry_multiplicity
  _atom_site_fract_x
  _atom_site_fract_y
  _atom_site_fract_z
  _atom_site_occupancy
  Cs  Cs1       1.0  0.25000011444200976  0.25000001892884616  0.25000005800510655  1.0000
  Cs  Cs2       1.0  0.7499999071804702  0.7499999675920838  0.7500000361371958  1.0000
  Os  Os1       1.0  0.9999987867767317  1.7838913649112443e-07  0.9999946825229465  1.0000
  S   S1        1.0  0.2388896218409512  0.2388891952615242  0.7611112872094541  1.0000
  S   S2        1.0  0.7611111375583053  0.7611109089960424  0.23888986193253678  1.0000
  S   S3        1.0  0.7611103864692014  0.2388897699884533  0.23889028756691708  1.0000
  S   S4        1.0  0.23888919889069563  0.7611110157145442  0.7611115040505788  1.0000
  S   S5        1.0  0.23888966846061574  0.7611100887972558  0.23889043059690782  1.0000
  S   S6        1.0  0.7611111547334464  0.23888884522918105  0.7611118674876435  1.0000
