data_image0
_chemical_formula_structural       Cs2PbTe6
_chemical_formula_sum              "Cs2 Pb1 Te6"
_cell_length_a       7.951377261007148
_cell_length_b       7.951377666260481
_cell_length_c       7.951376989109805
_cell_angle_alpha    59.99999470348521
_cell_angle_beta     59.999992128391206
_cell_angle_gamma    60.00000063635707

_space_group_name_H-M_alt    "P 1"
_space_group_IT_number       1

loop_
  _space_group_symop_operation_xyz
  'x, y, z'

loop_
  _atom_site_type_symbol
  _atom_site_label
  _atom_site_symmetry_multiplicity
  _atom_site_fract_x
  _atom_site_fract_y
  _atom_site_fract_z
  _atom_site_occupancy
  Cs  Cs1       1.0  0.24999999128411596  0.2499999798804863  0.24999999282436006  1.0000
  Cs  Cs2       1.0  0.749999963656705  0.7499999920114071  0.7500000215257591  1.0000
  Pb  Pb1       1.0  9.704577050497032e-08  1.4016662204295158e-07  2.0838117744991844e-07  1.0000
  Te  Te1       1.0  0.2908784421495151  0.29087827075870737  0.7091215016462105  1.0000
  Te  Te2       1.0  0.709121325578135  0.7091214916533635  0.2908788078890037  1.0000
  Te  Te3       1.0  0.7091216767718155  0.29087820825843436  0.29087856609484375  1.0000
  Te  Te4       1.0  0.2908786686403402  0.7091214678972806  0.7091212990185406  1.0000
  Te  Te5       1.0  0.29087823809108204  0.7091217493670594  0.2908784283986349  1.0000
  Te  Te6       1.0  0.7091215867302357  0.2908787000155825  0.7091211833746687  1.0000
