data_image0
_chemical_formula_structural       Cs2PdSe6
_chemical_formula_sum              "Cs2 Pd1 Se6"
_cell_length_a       6.910921871105879
_cell_length_b       6.910921676566343
_cell_length_c       6.910920580028279
_cell_angle_alpha    60.000002472340604
_cell_angle_beta     60.00000770970356
_cell_angle_gamma    60.000003118654035

_space_group_name_H-M_alt    "P 1"
_space_group_IT_number       1

loop_
  _space_group_symop_operation_xyz
  'x, y, z'

loop_
  _atom_site_type_symbol
  _atom_site_label
  _atom_site_symmetry_multiplicity
  _atom_site_fract_x
  _atom_site_fract_y
  _atom_site_fract_z
  _atom_site_occupancy
  Cs  Cs1       1.0  0.24999982880358476  0.2499999300620713  0.25000003717887026  1.0000
  Cs  Cs2       1.0  0.7500000649536093  0.750000059558694  0.7500000999697347  1.0000
  Pd  Pd1       1.0  1.4205269918769387e-07  1.1519218276285529e-07  0.9999999118931446  1.0000
  Se  Se1       1.0  0.2596383232101308  0.25963760728007335  0.7403619382509028  1.0000
  Se  Se2       1.0  0.7403618195997207  0.740362552470689  0.2596379545787288  1.0000
  Se  Se3       1.0  0.7403618827948103  0.25963778861376874  0.25963783784664934  1.0000
  Se  Se4       1.0  0.259638212901801  0.7403619210013931  0.740362154567933  1.0000
  Se  Se5       1.0  0.2596379107393658  0.7403618077684913  0.2596376684236682  1.0000
  Se  Se6       1.0  0.7403617892676334  0.25963823679008674  0.740362409349439  1.0000
