data_image0
_chemical_formula_structural       Cs2PbS6
_chemical_formula_sum              "Cs2 Pb1 S6"
_cell_length_a       6.8922975786684235
_cell_length_b       6.892297344527796
_cell_length_c       6.892297543580305
_cell_angle_alpha    59.999997847699774
_cell_angle_beta     59.99999831057398
_cell_angle_gamma    60.00000732063544

_space_group_name_H-M_alt    "P 1"
_space_group_IT_number       1

loop_
  _space_group_symop_operation_xyz
  'x, y, z'

loop_
  _atom_site_type_symbol
  _atom_site_label
  _atom_site_symmetry_multiplicity
  _atom_site_fract_x
  _atom_site_fract_y
  _atom_site_fract_z
  _atom_site_occupancy
  Cs  Cs1       1.0  0.24999996876909097  0.24999998098490717  0.24999997556480816  1.0000
  Cs  Cs2       1.0  0.7500000868384762  0.7499999642784541  0.7500000317940431  1.0000
  Pb  Pb1       1.0  0.9999995008943185  0.9999992305692288  1.7978860251647547e-06  1.0000
  S   S1        1.0  0.27195155661073517  0.2719516871616676  0.7280485425215475  1.0000
  S   S2        1.0  0.7280492942821158  0.7280491341510609  0.2719509062909028  1.0000
  S   S3        1.0  0.728048977072843  0.27195098477014124  0.2719510454159969  1.0000
  S   S4        1.0  0.2719518051778973  0.7280480471275135  0.7280484343210617  1.0000
  S   S5        1.0  0.2719508280215567  0.7280490541057669  0.2719510208107116  1.0000
  S   S6        1.0  0.7280479752199863  0.2719519040339246  0.7280482792828487  1.0000
