data_image0
_chemical_formula_structural       Cs2PtSe6
_chemical_formula_sum              "Cs2 Pt1 Se6"
_cell_length_a       6.9105816194154395
_cell_length_b       6.910584464099343
_cell_length_c       6.91058374573686
_cell_angle_alpha    60.0000139838924
_cell_angle_beta     60.000012416302134
_cell_angle_gamma    60.00003416161617

_space_group_name_H-M_alt    "P 1"
_space_group_IT_number       1

loop_
  _space_group_symop_operation_xyz
  'x, y, z'

loop_
  _atom_site_type_symbol
  _atom_site_label
  _atom_site_symmetry_multiplicity
  _atom_site_fract_x
  _atom_site_fract_y
  _atom_site_fract_z
  _atom_site_occupancy
  Cs  Cs1       1.0  0.249999916009771  0.2499995694190617  0.25000044103674957  1.0000
  Cs  Cs2       1.0  0.7499999695918951  0.7500003795110929  0.7499998601032692  1.0000
  Pt  Pt1       1.0  0.9999999404928052  0.9999997323866904  5.2136927419961535e-08  1.0000
  Se  Se1       1.0  0.25519895745805404  0.25519942729751866  0.744800947401771  1.0000
  Se  Se2       1.0  0.744801468530013  0.7448012163639494  0.25519880419115876  1.0000
  Se  Se3       1.0  0.7448013169142159  0.2551987548360246  0.25519847143855434  1.0000
  Se  Se4       1.0  0.2551991755138485  0.7448003611257095  0.7448014478794435  1.0000
  Se  Se5       1.0  0.25519893333781973  0.7448007732892126  0.25519889882652036  1.0000
  Se  Se6       1.0  0.7448004093809916  0.2551994007195426  0.7448010648754257  1.0000
