data_image0
_chemical_formula_structural       Cs2PtO6
_chemical_formula_sum              "Cs2 Pt1 O6"
_cell_length_a       6.632429584829092
_cell_length_b       6.632429749433414
_cell_length_c       6.632429858141119
_cell_angle_alpha    59.9999981220944
_cell_angle_beta     59.99999805167068
_cell_angle_gamma    59.99999891476295

_space_group_name_H-M_alt    "P 1"
_space_group_IT_number       1

loop_
  _space_group_symop_operation_xyz
  'x, y, z'

loop_
  _atom_site_type_symbol
  _atom_site_label
  _atom_site_symmetry_multiplicity
  _atom_site_fract_x
  _atom_site_fract_y
  _atom_site_fract_z
  _atom_site_occupancy
  Cs  Cs1       1.0  0.24999996391141296  0.25000004256376196  0.25000008373786453  1.0000
  Cs  Cs2       1.0  0.749999999063306  0.7499999467244295  0.7499998914960683  1.0000
  Pt  Pt1       1.0  3.031800315815385e-08  0.9999999926135968  3.075100522521062e-08  1.0000
  O   O1        1.0  0.20202196331714029  0.20202204473802662  0.7979779722115187  1.0000
  O   O2        1.0  0.797977960510888  0.7979779888685793  0.20202205169981557  1.0000
  O   O3        1.0  0.7979780078508413  0.20202202671080988  0.2020219901367594  1.0000
  O   O4        1.0  0.20202201074812645  0.7979779367249723  0.7979780033816009  1.0000
  O   O5        1.0  0.20202196333188  0.7979779850563956  0.20202204039720884  1.0000
  O   O6        1.0  0.7979780391576065  0.2020220319308037  0.7979780203415366  1.0000
