data_image0
_chemical_formula_structural       Cs2PbSe6
_chemical_formula_sum              "Cs2 Pb1 Se6"
_cell_length_a       7.363271890876204
_cell_length_b       7.363269898460356
_cell_length_c       7.363271157918401
_cell_angle_alpha    59.99999623116618
_cell_angle_beta     60.00000634511636
_cell_angle_gamma    60.000007213900886

_space_group_name_H-M_alt    "P 1"
_space_group_IT_number       1

loop_
  _space_group_symop_operation_xyz
  'x, y, z'

loop_
  _atom_site_type_symbol
  _atom_site_label
  _atom_site_symmetry_multiplicity
  _atom_site_fract_x
  _atom_site_fract_y
  _atom_site_fract_z
  _atom_site_occupancy
  Cs  Cs1       1.0  0.2499999953576347  0.2499999758512839  0.2500000374543488  1.0000
  Cs  Cs2       1.0  0.7499999427152391  0.7500000905588726  0.7499999126558891  1.0000
  Pb  Pb1       1.0  0.9999998275126949  1.3639193637210004e-07  0.9999998496442685  1.0000
  Se  Se1       1.0  0.30231429786520636  0.3023153958641253  0.6976850750742508  1.0000
  Se  Se2       1.0  0.697685456979451  0.6976848767972625  0.30231458647370046  1.0000
  Se  Se3       1.0  0.6976853592630047  0.3023151655814013  0.30231439007234046  1.0000
  Se  Se4       1.0  0.3023143434345794  0.6976851553161615  0.6976853060252687  1.0000
  Se  Se5       1.0  0.3023150692075794  0.6976845975239857  0.3023154593894541  1.0000
  Se  Se6       1.0  0.6976857079720344  0.3023146122782411  0.6976853754407558  1.0000
