data_image0
_chemical_formula_structural       Cs2PS6
_chemical_formula_sum              "Cs2 P1 S6"
_cell_length_a       7.284635108639327
_cell_length_b       7.284633864090743
_cell_length_c       7.28463508408969
_cell_angle_alpha    60.00000610003555
_cell_angle_beta     60.00000478973778
_cell_angle_gamma    60.000009277363624

_space_group_name_H-M_alt    "P 1"
_space_group_IT_number       1

loop_
  _space_group_symop_operation_xyz
  'x, y, z'

loop_
  _atom_site_type_symbol
  _atom_site_label
  _atom_site_symmetry_multiplicity
  _atom_site_fract_x
  _atom_site_fract_y
  _atom_site_fract_z
  _atom_site_occupancy
  Cs  Cs1       1.0  0.2500000047835988  0.24999989907047318  0.24999997154902712  1.0000
  Cs  Cs2       1.0  0.7500001268253489  0.7499999779838062  0.7499999280547516  1.0000
  P   P1        1.0  0.9999999793138121  0.9999999764621961  2.2111993080804188e-08  1.0000
  S   S1        1.0  0.2128928737639046  0.21289281637199178  0.7871072163173926  1.0000
  S   S2        1.0  0.7871070808227898  0.7871071447458611  0.21289282860389702  1.0000
  S   S3        1.0  0.7871071794735389  0.21289293649150692  0.21289278417146357  1.0000
  S   S4        1.0  0.2128928560969793  0.7871071002835808  0.7871072414576575  1.0000
  S   S5        1.0  0.21289283517610486  0.7871071389029652  0.21289285649834444  1.0000
  S   S6        1.0  0.7871071174078669  0.2128928995533936  0.7871072729300201  1.0000
