data_image0
_chemical_formula_structural       Cs2PtS6
_chemical_formula_sum              "Cs2 Pt1 S6"
_cell_length_a       6.800530387527033
_cell_length_b       6.800529114030532
_cell_length_c       6.80052772670567
_cell_angle_alpha    59.999986719240425
_cell_angle_beta     60.000020500283874
_cell_angle_gamma    59.999997026737205

_space_group_name_H-M_alt    "P 1"
_space_group_IT_number       1

loop_
  _space_group_symop_operation_xyz
  'x, y, z'

loop_
  _atom_site_type_symbol
  _atom_site_label
  _atom_site_symmetry_multiplicity
  _atom_site_fract_x
  _atom_site_fract_y
  _atom_site_fract_z
  _atom_site_occupancy
  Cs  Cs1       1.0  0.24999996997015225  0.25000006128079316  0.25000000443177645  1.0000
  Cs  Cs2       1.0  0.7499995673030049  0.7500000451687852  0.750000253935854  1.0000
  Pt  Pt1       1.0  2.557319517725743e-07  4.502388591363232e-07  0.9999998469990208  1.0000
  S   S1        1.0  0.24067638640056394  0.24067692445415453  0.7593231767949234  1.0000
  S   S2        1.0  0.759324146872592  0.7593230109047482  0.2406764000213648  1.0000
  S   S3        1.0  0.759323359394955  0.24067625942490972  0.2406763027386743  1.0000
  S   S4        1.0  0.24067617652439466  0.7593237695838976  0.7593227436527838  1.0000
  S   S5        1.0  0.24067671704146434  0.7593234609218014  0.24067713994222692  1.0000
  S   S6        1.0  0.7593234074956043  0.24067600438733575  0.7593241982232661  1.0000
