data_image0
_chemical_formula_structural       Cs2PO6
_chemical_formula_sum              "Cs2 P1 O6"
_cell_length_a       6.659815088962404
_cell_length_b       6.659814301013798
_cell_length_c       6.659814095136807
_cell_angle_alpha    60.00000358866002
_cell_angle_beta     60.0000011508298
_cell_angle_gamma    60.000001967666066

_space_group_name_H-M_alt    "P 1"
_space_group_IT_number       1

loop_
  _space_group_symop_operation_xyz
  'x, y, z'

loop_
  _atom_site_type_symbol
  _atom_site_label
  _atom_site_symmetry_multiplicity
  _atom_site_fract_x
  _atom_site_fract_y
  _atom_site_fract_z
  _atom_site_occupancy
  Cs  Cs1       1.0  0.25000001937363797  0.2499999932087509  0.24999997224974366  1.0000
  Cs  Cs2       1.0  0.7499999489765774  0.7500000053723599  0.7500000665594752  1.0000
  P   P1        1.0  0.9999999816279692  2.390709907091678e-08  4.8284942950231266e-08  1.0000
  O   O1        1.0  0.18165320029285198  0.18165312197096045  0.8183468559426466  1.0000
  O   O2        1.0  0.8183469271853656  0.8183468361519879  0.18165309049769193  1.0000
  O   O3        1.0  0.8183467981382666  0.18165306329935402  0.18165327951926274  1.0000
  O   O4        1.0  0.18165310814558078  0.8183468562044385  0.8183469379729253  1.0000
  O   O5        1.0  0.18165321845692134  0.8183468009905553  0.18165316050460087  1.0000
  O   O6        1.0  0.818346788124746  0.18165322333665815  0.8183467802479298  1.0000
