data_image0
_chemical_formula_structural       Cs2RuSe6
_chemical_formula_sum              "Cs2 Ru1 Se6"
_cell_length_a       6.89093883826984
_cell_length_b       6.890939297024367
_cell_length_c       6.890937964038964
_cell_angle_alpha    59.999986670609985
_cell_angle_beta     60.00001765027033
_cell_angle_gamma    59.999973322733275

_space_group_name_H-M_alt    "P 1"
_space_group_IT_number       1

loop_
  _space_group_symop_operation_xyz
  'x, y, z'

loop_
  _atom_site_type_symbol
  _atom_site_label
  _atom_site_symmetry_multiplicity
  _atom_site_fract_x
  _atom_site_fract_y
  _atom_site_fract_z
  _atom_site_occupancy
  Cs  Cs1       1.0  0.2500001622248537  0.24999968547745735  0.2500006996178208  1.0000
  Cs  Cs2       1.0  0.7499997377254818  0.7500002827889104  0.7499990695279214  1.0000
  Ru  Ru1       1.0  2.2531305882486578e-07  3.6968412943674534e-07  0.9999989972272839  1.0000
  Se  Se1       1.0  0.25559773116371914  0.2555983130956634  0.7444020377223066  1.0000
  Se  Se2       1.0  0.7444020220650528  0.7444010597661541  0.25559837675982344  1.0000
  Se  Se3       1.0  0.744403096380517  0.2555974559733962  0.2555968204916994  1.0000
  Se  Se4       1.0  0.2555962662192603  0.744403450721393  0.7444039627536266  1.0000
  Se  Se5       1.0  0.2555970775803953  0.7444026677899568  0.25559611460139886  1.0000
  Se  Se6       1.0  0.7444036935291998  0.2555967832739324  0.7444038780921448  1.0000
