data_image0
_chemical_formula_structural       Cs2RuS6
_chemical_formula_sum              "Cs2 Ru1 S6"
_cell_length_a       6.668335813366168
_cell_length_b       6.6683355229961245
_cell_length_c       6.668336214531778
_cell_angle_alpha    60.00000706543674
_cell_angle_beta     59.99999254745412
_cell_angle_gamma    60.000001149080106

_space_group_name_H-M_alt    "P 1"
_space_group_IT_number       1

loop_
  _space_group_symop_operation_xyz
  'x, y, z'

loop_
  _atom_site_type_symbol
  _atom_site_label
  _atom_site_symmetry_multiplicity
  _atom_site_fract_x
  _atom_site_fract_y
  _atom_site_fract_z
  _atom_site_occupancy
  Cs  Cs1       1.0  0.2499999626057921  0.25000005558305877  0.25000014029078915  1.0000
  Cs  Cs2       1.0  0.7499998975470232  0.749999898597125  0.7500000297138653  1.0000
  Ru  Ru1       1.0  1.0029958720239071e-06  1.7962507810377463e-06  0.9999976001272692  1.0000
  S   S1        1.0  0.24892751361704313  0.24892765523587898  0.7510726298118299  1.0000
  S   S2        1.0  0.751071103604139  0.7510711289935871  0.2489289790757477  1.0000
  S   S3        1.0  0.7510714821958642  0.24892808245566683  0.24892845468007013  1.0000
  S   S4        1.0  0.24892837307723265  0.7510718551945819  0.7510715910632099  1.0000
  S   S5        1.0  0.24892862883872768  0.7510717630424595  0.24892835206391306  1.0000
  S   S6        1.0  0.7510719752164305  0.2489278036031073  0.7510723235855645  1.0000
