data_image0
_chemical_formula_structural       Cs2RhSe6
_chemical_formula_sum              "Cs2 Rh1 Se6"
_cell_length_a       6.872510647559636
_cell_length_b       6.8725167065642445
_cell_length_c       6.872515274448158
_cell_angle_alpha    60.00001907350051
_cell_angle_beta     59.99996724031284
_cell_angle_gamma    60.000018832358094

_space_group_name_H-M_alt    "P 1"
_space_group_IT_number       1

loop_
  _space_group_symop_operation_xyz
  'x, y, z'

loop_
  _atom_site_type_symbol
  _atom_site_label
  _atom_site_symmetry_multiplicity
  _atom_site_fract_x
  _atom_site_fract_y
  _atom_site_fract_z
  _atom_site_occupancy
  Cs  Cs1       1.0  0.2499999386753194  0.24999849882379563  0.2500006626238582  1.0000
  Cs  Cs2       1.0  0.7500003112461949  0.7500020706020121  0.749999176367165  1.0000
  Rh  Rh1       1.0  6.678264820223597e-07  0.999996902727474  1.8986062130991947e-06  1.0000
  Se  Se1       1.0  0.25553366201613503  0.2555336170730079  0.7444665711497535  1.0000
  Se  Se2       1.0  0.7444658828004427  0.7444664818809417  0.2555335064125585  1.0000
  Se  Se3       1.0  0.7444657189118453  0.2555347757188606  0.2555341383836471  1.0000
  Se  Se4       1.0  0.2555337878547068  0.7444663497191097  0.7444660357207284  1.0000
  Se  Se5       1.0  0.25553470078313645  0.744466760032825  0.2555338932932928  1.0000
  Se  Se6       1.0  0.7444654702170367  0.2555340713600078  0.7444645926280685  1.0000
