data_image0
_chemical_formula_structural       Cs2SnO6
_chemical_formula_sum              "Cs2 Sn1 O6"
_cell_length_a       6.572209948700593
_cell_length_b       6.5722098296576235
_cell_length_c       6.572209981153008
_cell_angle_alpha    60.000001344981726
_cell_angle_beta     60.000003281153624
_cell_angle_gamma    60.00000207246285

_space_group_name_H-M_alt    "P 1"
_space_group_IT_number       1

loop_
  _space_group_symop_operation_xyz
  'x, y, z'

loop_
  _atom_site_type_symbol
  _atom_site_label
  _atom_site_symmetry_multiplicity
  _atom_site_fract_x
  _atom_site_fract_y
  _atom_site_fract_z
  _atom_site_occupancy
  Cs  Cs1       1.0  0.24999997052438533  0.24999997302176225  0.25000004623679706  1.0000
  Cs  Cs2       1.0  0.7500000442117135  0.7500000271494834  0.7499998920596884  1.0000
  Sn  Sn1       1.0  0.9999998222989264  7.45408213651918e-08  0.999999940506374  1.0000
  O   O1        1.0  0.22263033253136602  0.22263030350270344  0.7773696439806143  1.0000
  O   O2        1.0  0.7773697284698791  0.7773697581647229  0.22263021913339537  1.0000
  O   O3        1.0  0.7773696393445765  0.22263028164589863  0.2226303708425083  1.0000
  O   O4        1.0  0.22263021838404756  0.7773697520687165  0.7773696809190053  1.0000
  O   O5        1.0  0.22263038760807202  0.7773697031748218  0.22263036098361277  1.0000
  O   O6        1.0  0.7773698242286318  0.22263009573620193  0.7773698274066702  1.0000
