data_image0
_chemical_formula_structural       Cs2SiS6
_chemical_formula_sum              "Cs2 Si1 S6"
_cell_length_a       7.279995073086284
_cell_length_b       7.279999896337042
_cell_length_c       7.279997398382739
_cell_angle_alpha    60.00000859722895
_cell_angle_beta     60.000006629327174
_cell_angle_gamma    60.00000418065302

_space_group_name_H-M_alt    "P 1"
_space_group_IT_number       1

loop_
  _space_group_symop_operation_xyz
  'x, y, z'

loop_
  _atom_site_type_symbol
  _atom_site_label
  _atom_site_symmetry_multiplicity
  _atom_site_fract_x
  _atom_site_fract_y
  _atom_site_fract_z
  _atom_site_occupancy
  Cs  Cs1       1.0  0.24999974293879265  0.25000014059441883  0.2500003328836323  1.0000
  Cs  Cs2       1.0  0.750000173027215  0.7499994544368317  0.7499992931852528  1.0000
  Si  Si1       1.0  0.9999980024616729  1.529249031497376e-06  0.999998372879955  1.0000
  S   S1        1.0  0.22407607276399424  0.2240754835083267  0.7759248069826561  1.0000
  S   S2        1.0  0.7759244056458243  0.775923589996756  0.22407659533143023  1.0000
  S   S3        1.0  0.7759244546142651  0.22407515794157637  0.2240761104660684  1.0000
  S   S4        1.0  0.2240760548138223  0.7759248122517178  0.7759237235987642  1.0000
  S   S5        1.0  0.2240757415412036  0.7759245658763897  0.22407513313429475  1.0000
  S   S6        1.0  0.7759253350064294  0.22407502578983765  0.7759257824589759  1.0000
