data_image0
_chemical_formula_structural       Cs2SiTe6
_chemical_formula_sum              "Cs2 Si1 Te6"
_cell_length_a       8.395027111945577
_cell_length_b       8.395022595558952
_cell_length_c       8.395024799114621
_cell_angle_alpha    59.99998451391898
_cell_angle_beta     60.000009581230486
_cell_angle_gamma    59.999990620614454

_space_group_name_H-M_alt    "P 1"
_space_group_IT_number       1

loop_
  _space_group_symop_operation_xyz
  'x, y, z'

loop_
  _atom_site_type_symbol
  _atom_site_label
  _atom_site_symmetry_multiplicity
  _atom_site_fract_x
  _atom_site_fract_y
  _atom_site_fract_z
  _atom_site_occupancy
  Cs  Cs1       1.0  0.2499998932734103  0.24999991804225016  0.25000017295471105  1.0000
  Cs  Cs2       1.0  0.7500002287062678  0.7500000386112249  0.7499997424419882  1.0000
  Si  Si1       1.0  0.9999999528340611  0.9999998526516812  0.9999998423442502  1.0000
  Te  Te1       1.0  0.21760766906848114  0.21760650907751664  0.7823930411729092  1.0000
  Te  Te2       1.0  0.782392447464167  0.78239349280167  0.21760704492352095  1.0000
  Te  Te3       1.0  0.7823927137972368  0.2176069440204832  0.21760766760844208  1.0000
  Te  Te4       1.0  0.2176071518822069  0.7823933977810802  0.7823924454242861  1.0000
  Te  Te5       1.0  0.21760723684809966  0.7823933577212553  0.21760710744722417  1.0000
  Te  Te6       1.0  0.7823927143126926  0.2176064924329164  0.7823929489909381  1.0000
