data_image0
_chemical_formula_structural       Cs2SiSe6
_chemical_formula_sum              "Cs2 Si1 Se6"
_cell_length_a       6.940667980850722
_cell_length_b       6.940668059164793
_cell_length_c       6.940668941335673
_cell_angle_alpha    59.99999216212857
_cell_angle_beta     60.000007576102114
_cell_angle_gamma    60.00000216043909

_space_group_name_H-M_alt    "P 1"
_space_group_IT_number       1

loop_
  _space_group_symop_operation_xyz
  'x, y, z'

loop_
  _atom_site_type_symbol
  _atom_site_label
  _atom_site_symmetry_multiplicity
  _atom_site_fract_x
  _atom_site_fract_y
  _atom_site_fract_z
  _atom_site_occupancy
  Cs  Cs1       1.0  0.2499999575547668  0.25000007326939916  0.2500003060361031  1.0000
  Cs  Cs2       1.0  0.7500000246668916  0.7500000133509973  0.749999847458748  1.0000
  Si  Si1       1.0  0.9999997962274366  0.999999867655585  0.999999924566094  1.0000
  Se  Se1       1.0  0.25030048550552514  0.2503004109877331  0.7496995806456846  1.0000
  Se  Se2       1.0  0.749699389704742  0.7496995874030665  0.2503003751090736  1.0000
  Se  Se3       1.0  0.7496993889329193  0.25030052071333  0.25030060183209635  1.0000
  Se  Se4       1.0  0.2503005881275056  0.7496996911931425  0.7496992625157827  1.0000
  Se  Se5       1.0  0.25030056420538227  0.7496997841069704  0.2503004914864705  1.0000
  Se  Se6       1.0  0.7496998299067673  0.25029999018060894  0.7496995545982574  1.0000
