data_image0
_chemical_formula_structural       Cs2SeS6
_chemical_formula_sum              "Cs2 Se1 S6"
_cell_length_a       7.222006330715001
_cell_length_b       7.222006515504561
_cell_length_c       7.222006130964513
_cell_angle_alpha    60.00000179397525
_cell_angle_beta     59.99999667597707
_cell_angle_gamma    59.999987840619696

_space_group_name_H-M_alt    "P 1"
_space_group_IT_number       1

loop_
  _space_group_symop_operation_xyz
  'x, y, z'

loop_
  _atom_site_type_symbol
  _atom_site_label
  _atom_site_symmetry_multiplicity
  _atom_site_fract_x
  _atom_site_fract_y
  _atom_site_fract_z
  _atom_site_occupancy
  Cs  Cs1       1.0  0.2500000316539341  0.24999994006982035  0.25000002204755445  1.0000
  Cs  Cs2       1.0  0.7499999638520777  0.7499999880987558  0.7499999951359236  1.0000
  Se  Se1       1.0  4.460751222350748e-08  0.9999999525161554  0.9999998560491993  1.0000
  S   S1        1.0  0.22127344262932866  0.22127322221594137  0.7787267850287815  1.0000
  S   S2        1.0  0.7787266665899952  0.7787266957775144  0.22127342546985332  1.0000
  S   S3        1.0  0.7787268379154836  0.22127323602121426  0.22127301455828638  1.0000
  S   S4        1.0  0.22127309904201434  0.7787269397416601  0.7787271047235689  1.0000
  S   S5        1.0  0.22127319407070137  0.7787267932422297  0.22127292078460561  1.0000
  S   S6        1.0  0.7787267456994657  0.22127323498157714  0.7787268956184521  1.0000
