data_image0
_chemical_formula_structural       Cs2SnTe6
_chemical_formula_sum              "Cs2 Sn1 Te6"
_cell_length_a       7.7199276401058885
_cell_length_b       7.719925861783699
_cell_length_c       7.719923115995389
_cell_angle_alpha    60.00001597356866
_cell_angle_beta     60.00001722535517
_cell_angle_gamma    60.00003723833633

_space_group_name_H-M_alt    "P 1"
_space_group_IT_number       1

loop_
  _space_group_symop_operation_xyz
  'x, y, z'

loop_
  _atom_site_type_symbol
  _atom_site_label
  _atom_site_symmetry_multiplicity
  _atom_site_fract_x
  _atom_site_fract_y
  _atom_site_fract_z
  _atom_site_occupancy
  Cs  Cs1       1.0  0.24999995287889154  0.2500000733016124  0.24999986538879326  1.0000
  Cs  Cs2       1.0  0.7499998250720549  0.749999835978626  0.7499999538769976  1.0000
  Sn  Sn1       1.0  0.9999979909007366  0.9999984214595047  0.9999976279752653  1.0000
  Te  Te1       1.0  0.281195672948346  0.2811958297157878  0.718803828663305  1.0000
  Te  Te2       1.0  0.7188073469126  0.7188072366446715  0.28119210327673894  1.0000
  Te  Te3       1.0  0.7188045765399641  0.2811949265378772  0.2811956551794002  1.0000
  Te  Te4       1.0  0.28119095212245443  0.7188084555281367  0.7188075044398856  1.0000
  Te  Te5       1.0  0.28119504855414895  0.7188042269315515  0.28119603226726836  1.0000
  Te  Te6       1.0  0.7188086469370392  0.28119106888982376  0.7188073966481371  1.0000
