data_image0
_chemical_formula_structural       Cs2TeSe6
_chemical_formula_sum              "Cs2 Te1 Se6"
_cell_length_a       7.273315172300592
_cell_length_b       7.27331596083834
_cell_length_c       7.273314408134186
_cell_angle_alpha    59.999998884077044
_cell_angle_beta     60.00001572058122
_cell_angle_gamma    59.999993066744416

_space_group_name_H-M_alt    "P 1"
_space_group_IT_number       1

loop_
  _space_group_symop_operation_xyz
  'x, y, z'

loop_
  _atom_site_type_symbol
  _atom_site_label
  _atom_site_symmetry_multiplicity
  _atom_site_fract_x
  _atom_site_fract_y
  _atom_site_fract_z
  _atom_site_occupancy
  Cs  Cs1       1.0  0.2499998513482929  0.24999995467586275  0.2499998813813877  1.0000
  Cs  Cs2       1.0  0.7500001746117109  0.7500000122095358  0.7500001245750048  1.0000
  Te  Te1       1.0  9.018666284946715e-07  0.9999996329123402  0.9999994892552682  1.0000
  Se  Se1       1.0  0.3068933453980126  0.3068930012180773  0.6931068006348983  1.0000
  Se  Se2       1.0  0.6931065494226905  0.6931066827741806  0.3068932184783705  1.0000
  Se  Se3       1.0  0.6931068116921532  0.30689303133741097  0.3068930751643274  1.0000
  Se  Se4       1.0  0.30689238848680134  0.6931076697231706  0.6931075856707049  1.0000
  Se  Se5       1.0  0.3068923633974555  0.6931078496895543  0.30689212108233543  1.0000
  Se  Se6       1.0  0.6931076125604283  0.3068921862352871  0.6931076677471472  1.0000
