data_image0
_chemical_formula_structural       Cs2TiO6
_chemical_formula_sum              "Cs2 Ti1 O6"
_cell_length_a       6.799485155353711
_cell_length_b       6.799484768033827
_cell_length_c       6.799485024216832
_cell_angle_alpha    59.999997660257854
_cell_angle_beta     60.00000093311817
_cell_angle_gamma    59.99999876885801

_space_group_name_H-M_alt    "P 1"
_space_group_IT_number       1

loop_
  _space_group_symop_operation_xyz
  'x, y, z'

loop_
  _atom_site_type_symbol
  _atom_site_label
  _atom_site_symmetry_multiplicity
  _atom_site_fract_x
  _atom_site_fract_y
  _atom_site_fract_z
  _atom_site_occupancy
  Cs  Cs1       1.0  0.25000002825812057  0.24999992473386715  0.25000002903918833  1.0000
  Cs  Cs2       1.0  0.7499999989156414  0.7500000317777678  0.7499999850811438  1.0000
  Ti  Ti1       1.0  5.460201692613789e-08  0.9999998973297801  2.550480205846606e-08  1.0000
  O   O1        1.0  0.19626985008158215  0.19626981014972406  0.8037301489610011  1.0000
  O   O2        1.0  0.8037300316105277  0.8037302058025639  0.19626987876583749  1.0000
  O   O3        1.0  0.8037301392067581  0.19626991291241594  0.19626972000208773  1.0000
  O   O4        1.0  0.19626982818499417  0.8037301210521933  0.8037301573318949  1.0000
  O   O5        1.0  0.19626986281943967  0.8037302715564872  0.19626986663145407  1.0000
  O   O6        1.0  0.8037301907839924  0.19626993172392093  0.8037301579596158  1.0000
