data_image0
_chemical_formula_structural       Cs2TaO6
_chemical_formula_sum              "Cs2 Ta1 O6"
_cell_length_a       6.8413830837445815
_cell_length_b       6.841383466790325
_cell_length_c       6.8413828971367
_cell_angle_alpha    60.00000039475907
_cell_angle_beta     60.000000934400816
_cell_angle_gamma    59.99999813726907

_space_group_name_H-M_alt    "P 1"
_space_group_IT_number       1

loop_
  _space_group_symop_operation_xyz
  'x, y, z'

loop_
  _atom_site_type_symbol
  _atom_site_label
  _atom_site_symmetry_multiplicity
  _atom_site_fract_x
  _atom_site_fract_y
  _atom_site_fract_z
  _atom_site_occupancy
  Cs  Cs1       1.0  0.24999998601319198  0.249999977631171  0.2500001002293492  1.0000
  Cs  Cs2       1.0  0.7499999950164704  0.7500000295643574  0.7499997222717026  1.0000
  Ta  Ta1       1.0  0.999999933595955  0.9999999713567915  9.868287462616448e-08  1.0000
  O   O1        1.0  0.2028653881644341  0.20286536094807722  0.7971347348441266  1.0000
  O   O2        1.0  0.7971346253287469  0.7971344779685822  0.2028656072276731  1.0000
  O   O3        1.0  0.7971345424482205  0.2028655070938997  0.2028654030046029  1.0000
  O   O4        1.0  0.2028654177278838  0.7971346791216859  0.7971344529635407  1.0000
  O   O5        1.0  0.20286544126551026  0.7971345876782107  0.20286546979982886  1.0000
  O   O6        1.0  0.7971346713787771  0.20286548038412994  0.7971343763193116  1.0000
