data_image0
_chemical_formula_structural       Cs2TiTe6
_chemical_formula_sum              "Cs2 Ti1 Te6"
_cell_length_a       8.479834691959404
_cell_length_b       8.479835931902379
_cell_length_c       8.479833269278306
_cell_angle_alpha    60.00000796974047
_cell_angle_beta     60.00001208944954
_cell_angle_gamma    59.99999915428426

_space_group_name_H-M_alt    "P 1"
_space_group_IT_number       1

loop_
  _space_group_symop_operation_xyz
  'x, y, z'

loop_
  _atom_site_type_symbol
  _atom_site_label
  _atom_site_symmetry_multiplicity
  _atom_site_fract_x
  _atom_site_fract_y
  _atom_site_fract_z
  _atom_site_occupancy
  Cs  Cs1       1.0  0.24999999021063007  0.24999989101782194  0.2499999852580481  1.0000
  Cs  Cs2       1.0  0.7500000264685259  0.7500000774581398  0.7499999591486416  1.0000
  Ti  Ti1       1.0  7.32871613041282e-07  0.9999999378949128  0.9999997400899565  1.0000
  Te  Te1       1.0  0.21883983293971374  0.21884032927359354  0.7811600248550641  1.0000
  Te  Te2       1.0  0.781160066003099  0.7811594817734012  0.21884024817576977  1.0000
  Te  Te3       1.0  0.781159244155072  0.2188406242824782  0.21883997334955682  1.0000
  Te  Te4       1.0  0.21884019957081427  0.7811597558197376  0.78116025573405  1.0000
  Te  Te5       1.0  0.21884005736965623  0.7811591929597115  0.21883983277540786  1.0000
  Te  Te6       1.0  0.7811598512961432  0.21884070330114916  0.7811599882979134  1.0000
