data_image0
_chemical_formula_structural       Cs2VTe6
_chemical_formula_sum              "Cs2 V1 Te6"
_cell_length_a       8.449681318152292
_cell_length_b       8.449680574348085
_cell_length_c       8.449681324068546
_cell_angle_alpha    59.999990989408545
_cell_angle_beta     60.000002489318014
_cell_angle_gamma    59.999984817522915

_space_group_name_H-M_alt    "P 1"
_space_group_IT_number       1

loop_
  _space_group_symop_operation_xyz
  'x, y, z'

loop_
  _atom_site_type_symbol
  _atom_site_label
  _atom_site_symmetry_multiplicity
  _atom_site_fract_x
  _atom_site_fract_y
  _atom_site_fract_z
  _atom_site_occupancy
  Cs  Cs1       1.0  0.25000002146694345  0.2500000594138675  0.24999993365133424  1.0000
  Cs  Cs2       1.0  0.7500000415460326  0.749999943429526  0.7500000327499131  1.0000
  V   V1        1.0  0.9999997798271635  2.7104853332087583e-07  0.999999877517055  1.0000
  Te  Te1       1.0  0.21320504400286439  0.21320457412920393  0.7867953125268731  1.0000
  Te  Te2       1.0  0.7867948751803253  0.7867951837559252  0.21320495714825413  1.0000
  Te  Te3       1.0  0.786795370784142  0.21320451365477003  0.21320505124611333  1.0000
  Te  Te4       1.0  0.21320457884448196  0.7867955587625804  0.7867949666472408  1.0000
  Te  Te5       1.0  0.2132047362807729  0.7867956660400373  0.21320472549010386  1.0000
  Te  Te6       1.0  0.7867955488351752  0.21320420345327126  0.7867951397278341  1.0000
