data_image0
_chemical_formula_structural       Cs2VSe6
_chemical_formula_sum              "Cs2 V1 Se6"
_cell_length_a       7.00599103527645
_cell_length_b       7.005993239723352
_cell_length_c       7.005991788019305
_cell_angle_alpha    59.99999513576629
_cell_angle_beta     60.00000635413841
_cell_angle_gamma    59.99997358487191

_space_group_name_H-M_alt    "P 1"
_space_group_IT_number       1

loop_
  _space_group_symop_operation_xyz
  'x, y, z'

loop_
  _atom_site_type_symbol
  _atom_site_label
  _atom_site_symmetry_multiplicity
  _atom_site_fract_x
  _atom_site_fract_y
  _atom_site_fract_z
  _atom_site_occupancy
  Cs  Cs1       1.0  0.2499997144612702  0.25000004869377357  0.25000118208725575  1.0000
  Cs  Cs2       1.0  0.7500004563711339  0.7500000044823153  0.7499988012708084  1.0000
  V   V1        1.0  0.9999992118302157  0.9999999318229212  0.9999999928317321  1.0000
  Se  Se1       1.0  0.24491191977763674  0.2449122670467695  0.7550875837933518  1.0000
  Se  Se2       1.0  0.7550878741345606  0.7550872407101129  0.24491256955510823  1.0000
  Se  Se3       1.0  0.7550879638815697  0.24491213031124562  0.24491204987445722  1.0000
  Se  Se4       1.0  0.24491043247604632  0.7550900818171785  0.7550877812102997  1.0000
  Se  Se5       1.0  0.24491177529041996  0.755088392583499  0.24491204240838613  1.0000
  Se  Se6       1.0  0.7550904055920551  0.24491019914754908  0.7550882604249017  1.0000
