data_image0
_chemical_formula_structural       Cs2VS6
_chemical_formula_sum              "Cs2 V1 S6"
_cell_length_a       7.112707870473727
_cell_length_b       7.112707383840397
_cell_length_c       7.11270746755861
_cell_angle_alpha    60.00000624942319
_cell_angle_beta     60.00001748269737
_cell_angle_gamma    59.999993431944

_space_group_name_H-M_alt    "P 1"
_space_group_IT_number       1

loop_
  _space_group_symop_operation_xyz
  'x, y, z'

loop_
  _atom_site_type_symbol
  _atom_site_label
  _atom_site_symmetry_multiplicity
  _atom_site_fract_x
  _atom_site_fract_y
  _atom_site_fract_z
  _atom_site_occupancy
  Cs  Cs1       1.0  0.24999991179379752  0.2500001150019786  0.2500000787184592  1.0000
  Cs  Cs2       1.0  0.7500000645361949  0.7499998835337516  0.7499999452067503  1.0000
  V   V1        1.0  6.191597422305264e-08  0.9999992785192955  0.99999989816048  1.0000
  S   S1        1.0  0.22404209429345365  0.22404209849175902  0.7759582087477707  1.0000
  S   S2        1.0  0.7759579668122615  0.775958108395189  0.22404189356349058  1.0000
  S   S3        1.0  0.7759579691848886  0.22404219439639006  0.2240419295674587  1.0000
  S   S4        1.0  0.22404228773728505  0.7759577610915219  0.7759574806966968  1.0000
  S   S5        1.0  0.22404228638979376  0.7759578261501806  0.2240424814528288  1.0000
  S   S6        1.0  0.775957557957924  0.2240426803493064  0.7759578732714375  1.0000
