data_image0
_chemical_formula_structural       Cs2WS6
_chemical_formula_sum              "Cs2 W1 S6"
_cell_length_a       7.346261226240314
_cell_length_b       7.346261276896171
_cell_length_c       7.346261345617641
_cell_angle_alpha    59.99999847499686
_cell_angle_beta     60.00000289697891
_cell_angle_gamma    60.000000374808735

_space_group_name_H-M_alt    "P 1"
_space_group_IT_number       1

loop_
  _space_group_symop_operation_xyz
  'x, y, z'

loop_
  _atom_site_type_symbol
  _atom_site_label
  _atom_site_symmetry_multiplicity
  _atom_site_fract_x
  _atom_site_fract_y
  _atom_site_fract_z
  _atom_site_occupancy
  Cs  Cs1       1.0  0.24999999363986639  0.25000001370095626  0.24999998516610666  1.0000
  Cs  Cs2       1.0  0.7500000133258437  0.7499999627459889  0.7500000506191802  1.0000
  W   W1        1.0  0.9999999862976297  3.167618533044177e-08  0.9999999678720692  1.0000
  S   S1        1.0  0.21754071445224146  0.21754078003976093  0.7824593100868997  1.0000
  S   S2        1.0  0.7824593433674528  0.782459194740016  0.21754073105218644  1.0000
  S   S3        1.0  0.7824593195617151  0.21754076771842212  0.2175406558430582  1.0000
  S   S4        1.0  0.21754070429627292  0.7824592570763853  0.7824592996788766  1.0000
  S   S5        1.0  0.2175407426747165  0.7824592671909928  0.2175406488338472  1.0000
  S   S6        1.0  0.7824591709814902  0.21754073926497125  0.782459328760062  1.0000
