data_image0
_chemical_formula_structural       Cs2WO6
_chemical_formula_sum              "Cs2 W1 O6"
_cell_length_a       6.793143126551376
_cell_length_b       6.793143050457285
_cell_length_c       6.793142865984735
_cell_angle_alpha    60.00000184388394
_cell_angle_beta     60.000003515735585
_cell_angle_gamma    60.000002193576236

_space_group_name_H-M_alt    "P 1"
_space_group_IT_number       1

loop_
  _space_group_symop_operation_xyz
  'x, y, z'

loop_
  _atom_site_type_symbol
  _atom_site_label
  _atom_site_symmetry_multiplicity
  _atom_site_fract_x
  _atom_site_fract_y
  _atom_site_fract_z
  _atom_site_occupancy
  Cs  Cs1       1.0  0.2500000003232356  0.25000008758431913  0.2499999469167636  1.0000
  Cs  Cs2       1.0  0.7500000079104472  0.7500000175567382  0.7499999952077728  1.0000
  W   W1        1.0  0.9999999278187729  0.9999999819708654  0.9999999965267812  1.0000
  O   O1        1.0  0.19791781181820012  0.19791781857307822  0.8020822078354847  1.0000
  O   O2        1.0  0.8020821971226012  0.8020821008679013  0.19791789597294604  1.0000
  O   O3        1.0  0.8020821767587921  0.1979177878065983  0.19791785569928413  1.0000
  O   O4        1.0  0.19791786439284503  0.8020821063935941  0.8020821827970701  1.0000
  O   O5        1.0  0.1979177849027977  0.8020822222363313  0.19791780197338327  1.0000
  O   O6        1.0  0.8020821970797196  0.19791780357653693  0.8020821149209776  1.0000
