data_image0
_chemical_formula_structural       Cs2WSe6
_chemical_formula_sum              "Cs2 W1 Se6"
_cell_length_a       7.793261477275298
_cell_length_b       7.793261783419846
_cell_length_c       7.793261428818965
_cell_angle_alpha    59.99999787932824
_cell_angle_beta     60.000001439372724
_cell_angle_gamma    59.999999613619124

_space_group_name_H-M_alt    "P 1"
_space_group_IT_number       1

loop_
  _space_group_symop_operation_xyz
  'x, y, z'

loop_
  _atom_site_type_symbol
  _atom_site_label
  _atom_site_symmetry_multiplicity
  _atom_site_fract_x
  _atom_site_fract_y
  _atom_site_fract_z
  _atom_site_occupancy
  Cs  Cs1       1.0  0.24999998632482148  0.2499999253529376  0.25000020716961424  1.0000
  Cs  Cs2       1.0  0.7499999813302782  0.750000002361083  0.7499999916148221  1.0000
  W   W1        1.0  0.9999999820402597  9.429260923513605e-09  0.9999999914336409  1.0000
  Se  Se1       1.0  0.21414937371304896  0.21414931431553566  0.785850571426675  1.0000
  Se  Se2       1.0  0.7858505702199823  0.785850640114727  0.21414952962368658  1.0000
  Se  Se3       1.0  0.7858506503834383  0.21414937628911584  0.2141492093226613  1.0000
  Se  Se4       1.0  0.21414936764562853  0.7858507070077121  0.7858506080377013  1.0000
  Se  Se5       1.0  0.21414928653403448  0.7858507378863545  0.21414925746001987  1.0000
  Se  Se6       1.0  0.7858508114459242  0.21414929669262597  0.7858505968933756  1.0000
