data_image0
_chemical_formula_structural       Cs2ZrTe6
_chemical_formula_sum              "Cs2 Zr1 Te6"
_cell_length_a       7.634162882511966
_cell_length_b       7.634165440448375
_cell_length_c       7.634164665669011
_cell_angle_alpha    59.99998283217505
_cell_angle_beta     60.00000607620822
_cell_angle_gamma    60.00001514077726

_space_group_name_H-M_alt    "P 1"
_space_group_IT_number       1

loop_
  _space_group_symop_operation_xyz
  'x, y, z'

loop_
  _atom_site_type_symbol
  _atom_site_label
  _atom_site_symmetry_multiplicity
  _atom_site_fract_x
  _atom_site_fract_y
  _atom_site_fract_z
  _atom_site_occupancy
  Cs  Cs1       1.0  0.24999991735637778  0.25000010417228974  0.24999990411905124  1.0000
  Cs  Cs2       1.0  0.7499999468832304  0.7500002226763708  0.7499998091991036  1.0000
  Zr  Zr1       1.0  1.17153051782988e-07  0.9999981919601959  4.511634650689294e-07  1.0000
  Te  Te1       1.0  0.27119215641653327  0.2711907779308648  0.7288084488818257  1.0000
  Te  Te2       1.0  0.7288086827345703  0.7288099548045672  0.271190346114459  1.0000
  Te  Te3       1.0  0.7288091701020444  0.271192122562342  0.2711909099259094  1.0000
  Te  Te4       1.0  0.2711902190994272  0.7288086855742403  0.7288100145454645  1.0000
  Te  Te5       1.0  0.27118987463528765  0.7288091014839355  0.2711917634714546  1.0000
  Te  Te6       1.0  0.7288098877659698  0.2711908547726277  0.7288083275312802  1.0000
