data_image0
_chemical_formula_structural       Cu2AgSe6
_chemical_formula_sum              "Cu2 Ag1 Se6"
_cell_length_a       6.470619632767903
_cell_length_b       6.4706193794803
_cell_length_c       6.470619533230448
_cell_angle_alpha    59.99999926064968
_cell_angle_beta     59.99999702946635
_cell_angle_gamma    60.00000001011444

_space_group_name_H-M_alt    "P 1"
_space_group_IT_number       1

loop_
  _space_group_symop_operation_xyz
  'x, y, z'

loop_
  _atom_site_type_symbol
  _atom_site_label
  _atom_site_symmetry_multiplicity
  _atom_site_fract_x
  _atom_site_fract_y
  _atom_site_fract_z
  _atom_site_occupancy
  Cu  Cu1       1.0  0.2499998836530075  0.24999977929412215  0.25000022438170405  1.0000
  Cu  Cu2       1.0  0.7499999044236384  0.7499999587136923  0.750000084543322  1.0000
  Ag  Ag1       1.0  0.9999999112033807  1.646717231228513e-07  8.260732194901937e-08  1.0000
  Se  Se1       1.0  0.2881016280954065  0.2881016436260239  0.7118984009838197  1.0000
  Se  Se2       1.0  0.7118983487390441  0.7118984275107971  0.2881016809976311  1.0000
  Se  Se3       1.0  0.71189852700725  0.2881014985120626  0.2881015180659554  1.0000
  Se  Se4       1.0  0.2881016766077362  0.7118985025919566  0.7118981919066792  1.0000
  Se  Se5       1.0  0.2881016073823371  0.7118983908001834  0.28810159093664645  1.0000
  Se  Se6       1.0  0.7118985166494632  0.2881016349099552  0.7118982315241122  1.0000
