data_image0
_chemical_formula_structural       Cu2AuSe6
_chemical_formula_sum              "Cu2 Au1 Se6"
_cell_length_a       6.566549976619396
_cell_length_b       6.5665496342509
_cell_length_c       6.566549642898439
_cell_angle_alpha    59.99999858805438
_cell_angle_beta     60.00000062416571
_cell_angle_gamma    59.99999836177818

_space_group_name_H-M_alt    "P 1"
_space_group_IT_number       1

loop_
  _space_group_symop_operation_xyz
  'x, y, z'

loop_
  _atom_site_type_symbol
  _atom_site_label
  _atom_site_symmetry_multiplicity
  _atom_site_fract_x
  _atom_site_fract_y
  _atom_site_fract_z
  _atom_site_occupancy
  Cu  Cu1       1.0  0.2500000606465432  0.24999984284251844  0.24999997644606287  1.0000
  Cu  Cu2       1.0  0.7500000553180378  0.7500002671178445  0.7499998335098627  1.0000
  Au  Au1       1.0  1.4927707817416383e-07  0.9999997948360282  1.8023042561101137e-07  1.0000
  Se  Se1       1.0  0.292681567999903  0.2926815281881386  0.7073184658971093  1.0000
  Se  Se2       1.0  0.7073183497922146  0.7073185537953183  0.29268158353169427  1.0000
  Se  Se3       1.0  0.7073184565286607  0.2926815204329583  0.2926816671968269  1.0000
  Se  Se4       1.0  0.29268149762428247  0.7073184682941487  0.7073183863138233  1.0000
  Se  Se5       1.0  0.29268141060564073  0.707318573786883  0.2926815010813944  1.0000
  Se  Se6       1.0  0.7073184621248721  0.29268144291713133  0.7073184070677325  1.0000
