data_image0
_chemical_formula_structural       Cu2AgTe6
_chemical_formula_sum              "Cu2 Ag1 Te6"
_cell_length_a       7.05842163601051
_cell_length_b       7.0584215991637915
_cell_length_c       7.058421002880172
_cell_angle_alpha    60.0000019554735
_cell_angle_beta     60.00000312267281
_cell_angle_gamma    60.000001172000225

_space_group_name_H-M_alt    "P 1"
_space_group_IT_number       1

loop_
  _space_group_symop_operation_xyz
  'x, y, z'

loop_
  _atom_site_type_symbol
  _atom_site_label
  _atom_site_symmetry_multiplicity
  _atom_site_fract_x
  _atom_site_fract_y
  _atom_site_fract_z
  _atom_site_occupancy
  Cu  Cu1       1.0  0.2500001636830169  0.25000044200256166  0.2499996446587392  1.0000
  Cu  Cu2       1.0  0.7499999490219359  0.7499999240032462  0.7500002870970685  1.0000
  Ag  Ag1       1.0  0.9999999992883278  6.593585160669302e-08  2.6891303029930372e-08  1.0000
  Te  Te1       1.0  0.275961149621323  0.2759610754061079  0.7240388629846224  1.0000
  Te  Te2       1.0  0.7240389950679706  0.7240387284098063  0.2759609088497283  1.0000
  Te  Te3       1.0  0.7240387365200728  0.2759613228423043  0.27596092836002845  1.0000
  Te  Te4       1.0  0.27596116159057177  0.7240385434391526  0.7240391607937201  1.0000
  Te  Te5       1.0  0.2759611936664064  0.7240386659548168  0.27596105886477534  1.0000
  Te  Te6       1.0  0.7240386592991044  0.2759612228836414  0.7240391280046343  1.0000
