data_image0
_chemical_formula_structural       Cu2AgS6
_chemical_formula_sum              "Cu2 Ag1 S6"
_cell_length_a       6.351469713157962
_cell_length_b       6.3514697827059035
_cell_length_c       6.351469713968718
_cell_angle_alpha    59.999998182501805
_cell_angle_beta     59.99999733394296
_cell_angle_gamma    59.99999894584731

_space_group_name_H-M_alt    "P 1"
_space_group_IT_number       1

loop_
  _space_group_symop_operation_xyz
  'x, y, z'

loop_
  _atom_site_type_symbol
  _atom_site_label
  _atom_site_symmetry_multiplicity
  _atom_site_fract_x
  _atom_site_fract_y
  _atom_site_fract_z
  _atom_site_occupancy
  Cu  Cu1       1.0  0.250000024450013  0.25000000453351756  0.2500000508421224  1.0000
  Cu  Cu2       1.0  0.7500000128044664  0.7500000425248425  0.7499999416178301  1.0000
  Ag  Ag1       1.0  2.790592153091782e-07  0.9999997300399857  3.134870246531565e-07  1.0000
  S   S1        1.0  0.26860989557235876  0.26860995665323495  0.7313899611039641  1.0000
  S   S2        1.0  0.7313900442250375  0.7313901482537005  0.2686099141840726  1.0000
  S   S3        1.0  0.7313900034288756  0.2686099336545046  0.26860990418790676  1.0000
  S   S4        1.0  0.26860989071674735  0.7313901500412868  0.7313900234248549  1.0000
  S   S5        1.0  0.2686098286356351  0.7313900680983705  0.26860992763798336  1.0000
  S   S6        1.0  0.7313900256430734  0.2686099770317062  0.7313899777879832  1.0000
