data_image0
_chemical_formula_structural       Cu2AuO6
_chemical_formula_sum              "Cu2 Au1 O6"
_cell_length_a       5.453389597653415
_cell_length_b       5.453389185838091
_cell_length_c       5.453389432877359
_cell_angle_alpha    59.99999950656948
_cell_angle_beta     60.0000006952318
_cell_angle_gamma    60.00000078509064

_space_group_name_H-M_alt    "P 1"
_space_group_IT_number       1

loop_
  _space_group_symop_operation_xyz
  'x, y, z'

loop_
  _atom_site_type_symbol
  _atom_site_label
  _atom_site_symmetry_multiplicity
  _atom_site_fract_x
  _atom_site_fract_y
  _atom_site_fract_z
  _atom_site_occupancy
  Cu  Cu1       1.0  0.25000045575307817  0.24999992311870448  0.24999969518302642  1.0000
  Cu  Cu2       1.0  0.7499996281840527  0.750000101740649  0.7500003903552139  1.0000
  Au  Au1       1.0  0.9999999116673489  4.2670990736034556e-08  7.967621168425532e-08  1.0000
  O   O1        1.0  0.2538491945261853  0.25384890463499665  0.7461510557583957  1.0000
  O   O2        1.0  0.7461507836694065  0.746151113486827  0.2538489081483485  1.0000
  O   O3        1.0  0.746150881755738  0.25384905960932364  0.25384896340853086  1.0000
  O   O4        1.0  0.2538492083207844  0.7461509023664603  0.7461509689633233  1.0000
  O   O5        1.0  0.25384918782664934  0.746150936616314  0.2538488290644103  1.0000
  O   O6        1.0  0.7461507460760672  0.2538489984093647  0.7461511160193549  1.0000
