data_image0
_chemical_formula_structural       Cu2BeTe6
_chemical_formula_sum              "Cu2 Be1 Te6"
_cell_length_a       6.850904495219291
_cell_length_b       6.850905295049476
_cell_length_c       6.850904354238728
_cell_angle_alpha    59.999997150290824
_cell_angle_beta     59.999997996288215
_cell_angle_gamma    59.999999590605306

_space_group_name_H-M_alt    "P 1"
_space_group_IT_number       1

loop_
  _space_group_symop_operation_xyz
  'x, y, z'

loop_
  _atom_site_type_symbol
  _atom_site_label
  _atom_site_symmetry_multiplicity
  _atom_site_fract_x
  _atom_site_fract_y
  _atom_site_fract_z
  _atom_site_occupancy
  Cu  Cu1       1.0  0.25000096868714744  0.25000017012979325  0.24999924265227982  1.0000
  Cu  Cu2       1.0  0.7499998412523969  0.7499990104985589  0.7500009138372672  1.0000
  Be  Be1       1.0  5.0429832203096235e-08  0.9999998891618216  8.567130794436237e-08  1.0000
  Te  Te1       1.0  0.2358741729595833  0.23587462330836229  0.7641256504284939  1.0000
  Te  Te2       1.0  0.7641252660600036  0.7641256514000799  0.23587409710796362  1.0000
  Te  Te3       1.0  0.7641252983169963  0.23587515592966005  0.23587389442899287  1.0000
  Te  Te4       1.0  0.23587456143952923  0.764125181348689  0.7641259778290177  1.0000
  Te  Te5       1.0  0.23587482648971095  0.7641253847285185  0.2358740686711255  1.0000
  Te  Te6       1.0  0.7641250112709813  0.23587492752183642  0.7641260927571583  1.0000
