data_image0
_chemical_formula_structural       Cu2BeSe6
_chemical_formula_sum              "Cu2 Be1 Se6"
_cell_length_a       6.211100024548179
_cell_length_b       6.211099963384303
_cell_length_c       6.211099679565127
_cell_angle_alpha    60.00000354081428
_cell_angle_beta     60.00000073515141
_cell_angle_gamma    60.00000042380707

_space_group_name_H-M_alt    "P 1"
_space_group_IT_number       1

loop_
  _space_group_symop_operation_xyz
  'x, y, z'

loop_
  _atom_site_type_symbol
  _atom_site_label
  _atom_site_symmetry_multiplicity
  _atom_site_fract_x
  _atom_site_fract_y
  _atom_site_fract_z
  _atom_site_occupancy
  Cu  Cu1       1.0  0.2500000231168808  0.250000066499781  0.24999997951846478  1.0000
  Cu  Cu2       1.0  0.750000060809218  0.7500000299189834  0.749999959995408  1.0000
  Be  Be1       1.0  0.9999999605820536  8.479018096479189e-08  3.044457243757722e-08  1.0000
  Se  Se1       1.0  0.2777024606808471  0.2777024469316099  0.7222975868498653  1.0000
  Se  Se2       1.0  0.7222974274607159  0.7222975173722282  0.277702547204134  1.0000
  Se  Se3       1.0  0.7222975709156128  0.27770250529566676  0.277702424950008  1.0000
  Se  Se4       1.0  0.2777025060639113  0.7222975004173204  0.7222974023879543  1.0000
  Se  Se5       1.0  0.2777024623549702  0.7222974232667425  0.27770256135682647  1.0000
  Se  Se6       1.0  0.7222975378412428  0.27770241680962093  0.722297519212811  1.0000
