data_image0
_chemical_formula_structural       Cu2BeS6
_chemical_formula_sum              "Cu2 Be1 S6"
_cell_length_a       6.114052556927149
_cell_length_b       6.1140521766067915
_cell_length_c       6.114051889181396
_cell_angle_alpha    60.00000234146054
_cell_angle_beta     60.000002599727544
_cell_angle_gamma    60.00000154671894

_space_group_name_H-M_alt    "P 1"
_space_group_IT_number       1

loop_
  _space_group_symop_operation_xyz
  'x, y, z'

loop_
  _atom_site_type_symbol
  _atom_site_label
  _atom_site_symmetry_multiplicity
  _atom_site_fract_x
  _atom_site_fract_y
  _atom_site_fract_z
  _atom_site_occupancy
  Cu  Cu1       1.0  0.24999999586795413  0.2500000435047874  0.25000000039693887  1.0000
  Cu  Cu2       1.0  0.7500000963441499  0.7499999742675791  0.7499998924623605  1.0000
  Be  Be1       1.0  7.798579467446269e-08  4.006328389197885e-09  0.9999999410125957  1.0000
  S   S1        1.0  0.2614298787532663  0.2614299568689377  0.7385701243998525  1.0000
  S   S2        1.0  0.7385701909495  0.7385699867863673  0.261430003228375  1.0000
  S   S3        1.0  0.7385700069226245  0.26142991301128166  0.26142995742769065  1.0000
  S   S4        1.0  0.26142984942384  0.7385701267958839  0.7385699703816622  1.0000
  S   S5        1.0  0.2614298375891956  0.7385700465988477  0.2614300717460691  1.0000
  S   S6        1.0  0.7385700634356224  0.2614299611576986  0.7385700378407212  1.0000
