data_image0
_chemical_formula_structural       Cu2BeO6
_chemical_formula_sum              "Cu2 Be1 O6"
_cell_length_a       4.987605118750025
_cell_length_b       4.987605654955042
_cell_length_c       4.98760501671494
_cell_angle_alpha    59.99999958672756
_cell_angle_beta     59.99999756139123
_cell_angle_gamma    59.999999954267004

_space_group_name_H-M_alt    "P 1"
_space_group_IT_number       1

loop_
  _space_group_symop_operation_xyz
  'x, y, z'

loop_
  _atom_site_type_symbol
  _atom_site_label
  _atom_site_symmetry_multiplicity
  _atom_site_fract_x
  _atom_site_fract_y
  _atom_site_fract_z
  _atom_site_occupancy
  Cu  Cu1       1.0  0.24999985012447054  0.24999981443047958  0.25000016942691344  1.0000
  Cu  Cu2       1.0  0.749999818845032  0.7500002978321573  0.7499998665757222  1.0000
  Be  Be1       1.0  3.623131451807683e-09  9.331191850589371e-08  0.9999999274728278  1.0000
  O   O1        1.0  0.23100002591786428  0.23099968051928255  0.769000123865042  1.0000
  O   O2        1.0  0.7690002200633562  0.7690002009191284  0.23099976109851522  1.0000
  O   O3        1.0  0.7690001138852532  0.2309997160591552  0.2309999410752365  1.0000
  O   O4        1.0  0.23099993582259595  0.7690002194019412  0.7690001693963808  1.0000
  O   O5        1.0  0.23099983960677176  0.7690001628276063  0.23099977442146707  1.0000
  O   O6        1.0  0.7690001967237963  0.23099982665618385  0.769000205454075  1.0000
