data_image0
_chemical_formula_structural       Cu2CoO6
_chemical_formula_sum              "Cu2 Co1 O6"
_cell_length_a       5.157731449200505
_cell_length_b       5.15773118279596
_cell_length_c       5.157731297060186
_cell_angle_alpha    60.00000052454747
_cell_angle_beta     60.000000090292545
_cell_angle_gamma    59.999999677985755

_space_group_name_H-M_alt    "P 1"
_space_group_IT_number       1

loop_
  _space_group_symop_operation_xyz
  'x, y, z'

loop_
  _atom_site_type_symbol
  _atom_site_label
  _atom_site_symmetry_multiplicity
  _atom_site_fract_x
  _atom_site_fract_y
  _atom_site_fract_z
  _atom_site_occupancy
  Cu  Cu1       1.0  0.24999966357610756  0.25000008328143764  0.2500001159258911  1.0000
  Cu  Cu2       1.0  0.7500002900878269  0.7499996561991584  0.7500003632995039  1.0000
  Co  Co1       1.0  2.0397292503792272e-08  2.6120387032336518e-08  0.9999999612304648  1.0000
  O   O1        1.0  0.24465040363023163  0.24465074361412134  0.7553494644733655  1.0000
  O   O2        1.0  0.7553494995310936  0.7553493354315011  0.24465042816600055  1.0000
  O   O3        1.0  0.7553496027184488  0.24465073822149097  0.24465030950149655  1.0000
  O   O4        1.0  0.24465036807947235  0.7553494334327767  0.7553494719938583  1.0000
  O   O5        1.0  0.2446506163803643  0.7553494006985991  0.24465056501144827  1.0000
  O   O6        1.0  0.7553495718078354  0.24465060236044459  0.75534931035543  1.0000
