data_image0
_chemical_formula_structural       Cu2CrTe6
_chemical_formula_sum              "Cu2 Cr1 Te6"
_cell_length_a       6.948359257314312
_cell_length_b       6.9483594208575
_cell_length_c       6.948359163222586
_cell_angle_alpha    60.00000001800106
_cell_angle_beta     59.99999955724689
_cell_angle_gamma    59.999998933298045

_space_group_name_H-M_alt    "P 1"
_space_group_IT_number       1

loop_
  _space_group_symop_operation_xyz
  'x, y, z'

loop_
  _atom_site_type_symbol
  _atom_site_label
  _atom_site_symmetry_multiplicity
  _atom_site_fract_x
  _atom_site_fract_y
  _atom_site_fract_z
  _atom_site_occupancy
  Cu  Cu1       1.0  0.24999998325329162  0.24999991415450987  0.2500000773208964  1.0000
  Cu  Cu2       1.0  0.7499999877082442  0.7500000474000625  0.7499999928783658  1.0000
  Cr  Cr1       1.0  3.7516485819451664e-08  3.701541664618569e-08  0.9999999670516143  1.0000
  Te  Te1       1.0  0.26690769320506347  0.26690761889919223  0.7330923982563058  1.0000
  Te  Te2       1.0  0.7330922866358823  0.733092370857602  0.2669077124088773  1.0000
  Te  Te3       1.0  0.7330923519500675  0.2669076862240787  0.2669076225007684  1.0000
  Te  Te4       1.0  0.2669076369546076  0.733092351123968  0.7330922957694112  1.0000
  Te  Te5       1.0  0.26690763347304236  0.7330923541791743  0.2669076552770461  1.0000
  Te  Te6       1.0  0.7330923887028636  0.26690762323914863  0.7330922849575126  1.0000
