data_image0
_chemical_formula_structural       Cu2CoTe6
_chemical_formula_sum              "Cu2 Co1 Te6"
_cell_length_a       6.782258892461822
_cell_length_b       6.782255446879605
_cell_length_c       6.782257609586975
_cell_angle_alpha    59.99999124618978
_cell_angle_beta     59.99999332733226
_cell_angle_gamma    59.99999596251974

_space_group_name_H-M_alt    "P 1"
_space_group_IT_number       1

loop_
  _space_group_symop_operation_xyz
  'x, y, z'

loop_
  _atom_site_type_symbol
  _atom_site_label
  _atom_site_symmetry_multiplicity
  _atom_site_fract_x
  _atom_site_fract_y
  _atom_site_fract_z
  _atom_site_occupancy
  Cu  Cu1       1.0  0.2500001845752266  0.25000051691921715  0.24999953756691576  1.0000
  Cu  Cu2       1.0  0.7499997457060702  0.7499998478807587  0.7499999138565485  1.0000
  Co  Co1       1.0  2.5049778530551163e-10  4.3339390906858985e-07  1.3409340265900596e-07  1.0000
  Te  Te1       1.0  0.2560446361272381  0.2560446235844712  0.7439552896804245  1.0000
  Te  Te2       1.0  0.7439558245266075  0.7439552482300501  0.2560445780078462  1.0000
  Te  Te3       1.0  0.7439550986033419  0.25604461425597946  0.256044727199222  1.0000
  Te  Te4       1.0  0.2560447851228424  0.7439548584749655  0.7439559705637069  1.0000
  Te  Te5       1.0  0.2560446259742868  0.7439550414074575  0.25604446658652086  1.0000
  Te  Te6       1.0  0.7439549768252103  0.25604496764834916  0.743955531396461  1.0000
