data_image0
_chemical_formula_structural       Cu2CaO6
_chemical_formula_sum              "Cu2 Ca1 O6"
_cell_length_a       5.525129589817335
_cell_length_b       5.525129445488008
_cell_length_c       5.525129634039658
_cell_angle_alpha    59.9999995594519
_cell_angle_beta     59.999998662054686
_cell_angle_gamma    59.99999994180892

_space_group_name_H-M_alt    "P 1"
_space_group_IT_number       1

loop_
  _space_group_symop_operation_xyz
  'x, y, z'

loop_
  _atom_site_type_symbol
  _atom_site_label
  _atom_site_symmetry_multiplicity
  _atom_site_fract_x
  _atom_site_fract_y
  _atom_site_fract_z
  _atom_site_occupancy
  Cu  Cu1       1.0  0.2500001117982268  0.2499999702458089  0.24999988096402637  1.0000
  Cu  Cu2       1.0  0.7500000778253265  0.7500001567889999  0.7499995454859725  1.0000
  Ca  Ca1       1.0  1.1165247690556763e-07  0.9999999534497014  0.9999998498046112  1.0000
  O   O1        1.0  0.2889536627902375  0.28895352329666973  0.7110464108147341  1.0000
  O   O2        1.0  0.711046380438544  0.7110463532532063  0.28895381496599565  1.0000
  O   O3        1.0  0.7110462336260268  0.28895355795414557  0.28895386731913997  1.0000
  O   O4        1.0  0.28895358469324267  0.7110464227797298  0.7110464532126818  1.0000
  O   O5        1.0  0.2889535474402698  0.7110463601406665  0.2889537733099542  1.0000
  O   O6        1.0  0.7110462875547531  0.28895369596035764  0.7110464125147148  1.0000
