data_image0
_chemical_formula_structural       Cu2CoSe6
_chemical_formula_sum              "Cu2 Co1 Se6"
_cell_length_a       6.213406125459471
_cell_length_b       6.2134056522744014
_cell_length_c       6.213406215458396
_cell_angle_alpha    59.99999778322645
_cell_angle_beta     59.99999923435674
_cell_angle_gamma    59.999997781494656

_space_group_name_H-M_alt    "P 1"
_space_group_IT_number       1

loop_
  _space_group_symop_operation_xyz
  'x, y, z'

loop_
  _atom_site_type_symbol
  _atom_site_label
  _atom_site_symmetry_multiplicity
  _atom_site_fract_x
  _atom_site_fract_y
  _atom_site_fract_z
  _atom_site_occupancy
  Cu  Cu1       1.0  0.25000009520469174  0.2499999709947673  0.24999993923151845  1.0000
  Cu  Cu2       1.0  0.7500001000026765  0.7499997060153333  0.7500000413449325  1.0000
  Co  Co1       1.0  0.9999999882118871  0.9999999684618716  2.649139006125693e-08  1.0000
  Se  Se1       1.0  0.26637282610244506  0.26637314522897193  0.7336270144524643  1.0000
  Se  Se2       1.0  0.733627035635881  0.7336269969685238  0.26637300487732024  1.0000
  Se  Se3       1.0  0.733626986083061  0.2663730734130084  0.266372899171323  1.0000
  Se  Se4       1.0  0.26637292512036764  0.733626976141235  0.7336271240438809  1.0000
  Se  Se5       1.0  0.26637306253457205  0.7336270641386922  0.26637287901092177  1.0000
  Se  Se6       1.0  0.7336269648076384  0.26637309974126777  0.7336270901301143  1.0000
