data_image0
_chemical_formula_structural       Cu2CS6
_chemical_formula_sum              "Cu2 C1 S6"
_cell_length_a       5.753663077918558
_cell_length_b       5.753663853388351
_cell_length_c       5.7536642351135585
_cell_angle_alpha    59.99999516654271
_cell_angle_beta     59.999994192983806
_cell_angle_gamma    59.99999895401944

_space_group_name_H-M_alt    "P 1"
_space_group_IT_number       1

loop_
  _space_group_symop_operation_xyz
  'x, y, z'

loop_
  _atom_site_type_symbol
  _atom_site_label
  _atom_site_symmetry_multiplicity
  _atom_site_fract_x
  _atom_site_fract_y
  _atom_site_fract_z
  _atom_site_occupancy
  Cu  Cu1       1.0  0.2500000701250949  0.24999978142030094  0.24999980708537747  1.0000
  Cu  Cu2       1.0  0.7500000453711917  0.7500001041835206  0.749999250672523  1.0000
  C   C1        1.0  0.9999877439732607  3.1184484563728458e-06  5.0018086929003554e-05  1.0000
  S   S1        1.0  0.23784099722116825  0.23784061973939832  0.7621603536219623  1.0000
  S   S2        1.0  0.7621642597501922  0.7621647151693868  0.23783706380792943  1.0000
  S   S3        1.0  0.7621773923543341  0.23782193114240158  0.2378247849485448  1.0000
  S   S4        1.0  0.23785435979500802  0.7621457439606298  0.7621471684937103  1.0000
  S   S5        1.0  0.2378258922240689  0.7621737741552811  0.2378293601420432  1.0000
  S   S6        1.0  0.7621492718478503  0.23785030764083412  0.7621520693143675  1.0000
