data_image0
_chemical_formula_structural       Cu2CrO6
_chemical_formula_sum              "Cu2 Cr1 O6"
_cell_length_a       5.263596214965264
_cell_length_b       5.263595212742855
_cell_length_c       5.263595108149776
_cell_angle_alpha    59.999994583559776
_cell_angle_beta     59.999990650424785
_cell_angle_gamma    60.000002347310584

_space_group_name_H-M_alt    "P 1"
_space_group_IT_number       1

loop_
  _space_group_symop_operation_xyz
  'x, y, z'

loop_
  _atom_site_type_symbol
  _atom_site_label
  _atom_site_symmetry_multiplicity
  _atom_site_fract_x
  _atom_site_fract_y
  _atom_site_fract_z
  _atom_site_occupancy
  Cu  Cu1       1.0  0.250001283263242  0.25000060240574074  0.2499994548717335  1.0000
  Cu  Cu2       1.0  0.7500005130647637  0.7499998526863595  0.7500023838295093  1.0000
  Cr  Cr1       1.0  3.22458219519654e-07  3.955601095387931e-08  0.9999996537065736  1.0000
  O   O1        1.0  0.24265580253652022  0.2426567335540275  0.7573433416945639  1.0000
  O   O2        1.0  0.7573435966448417  0.7573437657474572  0.2426552943393793  1.0000
  O   O3        1.0  0.757343228236008  0.24265628978744314  0.24265581570869577  1.0000
  O   O4        1.0  0.24265588972010804  0.7573431577904606  0.7573440472531866  1.0000
  O   O5        1.0  0.24265628860117663  0.7573437548561247  0.2426559594601089  1.0000
  O   O6        1.0  0.7573430916275415  0.2426558206970162  0.7573439762555628  1.0000
