data_image0
_chemical_formula_structural       Cu2CdO6
_chemical_formula_sum              "Cu2 Cd1 O6"
_cell_length_a       5.395923011772238
_cell_length_b       5.395922678539138
_cell_length_c       5.395922858289627
_cell_angle_alpha    59.9999984325368
_cell_angle_beta     59.99999780877141
_cell_angle_gamma    60.00000265231713

_space_group_name_H-M_alt    "P 1"
_space_group_IT_number       1

loop_
  _space_group_symop_operation_xyz
  'x, y, z'

loop_
  _atom_site_type_symbol
  _atom_site_label
  _atom_site_symmetry_multiplicity
  _atom_site_fract_x
  _atom_site_fract_y
  _atom_site_fract_z
  _atom_site_occupancy
  Cu  Cu1       1.0  0.2500002840507893  0.24999981277484928  0.24999985413903741  1.0000
  Cu  Cu2       1.0  0.7499999599115587  0.7500001056339073  0.750000542204373  1.0000
  Cd  Cd1       1.0  0.9999999925862242  0.9999999773023991  0.9999997426277761  1.0000
  O   O1        1.0  0.28189474362807293  0.2818948625715115  0.7181053155737419  1.0000
  O   O2        1.0  0.7181051455327487  0.7181051829437752  0.2818946868263717  1.0000
  O   O3        1.0  0.7181053923010323  0.2818946648225366  0.2818946359338047  1.0000
  O   O4        1.0  0.28189480410774054  0.7181052036514959  0.7181051605158699  1.0000
  O   O5        1.0  0.28189487869915403  0.7181055026686389  0.28189456043928274  1.0000
  O   O6        1.0  0.7181048177770867  0.28189469719030846  0.7181054314792773  1.0000
