data_image0
_chemical_formula_structural       Cu2CrTe6
_chemical_formula_sum              "Cu2 Cr1 Te6"
_cell_length_a       6.948374600084318
_cell_length_b       6.948374879845705
_cell_length_c       6.9483749402540695
_cell_angle_alpha    60.00000046916801
_cell_angle_beta     59.999999083408305
_cell_angle_gamma    59.99999648358224

_space_group_name_H-M_alt    "P 1"
_space_group_IT_number       1

loop_
  _space_group_symop_operation_xyz
  'x, y, z'

loop_
  _atom_site_type_symbol
  _atom_site_label
  _atom_site_symmetry_multiplicity
  _atom_site_fract_x
  _atom_site_fract_y
  _atom_site_fract_z
  _atom_site_occupancy
  Cu  Cu1       1.0  0.249999829216507  0.24999999500721337  0.2500001971273904  1.0000
  Cu  Cu2       1.0  0.7500000662336017  0.750000029087485  0.7499999058689991  1.0000
  Cr  Cr1       1.0  0.9999999691136139  0.9999999929494614  7.454978660348218e-09  1.0000
  Te  Te1       1.0  0.2669093347633301  0.2669093407426084  0.7330906191008748  1.0000
  Te  Te2       1.0  0.7330907148681775  0.7330906445741123  0.26690940460602325  1.0000
  Te  Te3       1.0  0.7330907021287024  0.2669093344533067  0.2669093732552064  1.0000
  Te  Te4       1.0  0.26690929135198  0.7330907196061816  0.7330905621221511  1.0000
  Te  Te5       1.0  0.26690931030644993  0.733090672779212  0.26690936853111114  1.0000
  Te  Te6       1.0  0.7330907821639587  0.26690927375953605  0.7330905624766404  1.0000
