data_image0
_chemical_formula_structural       Cu2CO6
_chemical_formula_sum              "Cu2 C1 O6"
_cell_length_a       4.863664296905704
_cell_length_b       4.863665155922353
_cell_length_c       4.863664486565165
_cell_angle_alpha    59.99999950606488
_cell_angle_beta     59.99999654302904
_cell_angle_gamma    59.999997757078994

_space_group_name_H-M_alt    "P 1"
_space_group_IT_number       1

loop_
  _space_group_symop_operation_xyz
  'x, y, z'

loop_
  _atom_site_type_symbol
  _atom_site_label
  _atom_site_symmetry_multiplicity
  _atom_site_fract_x
  _atom_site_fract_y
  _atom_site_fract_z
  _atom_site_occupancy
  Cu  Cu1       1.0  0.25000018298719034  0.24999997904066154  0.25000008355957914  1.0000
  Cu  Cu2       1.0  0.7499998695919698  0.7500003299537805  0.7499997031105095  1.0000
  C   C1        1.0  0.999999669920817  1.2842578609274003e-07  0.999999847930965  1.0000
  O   O1        1.0  0.21819392549777547  0.21819376859941556  0.7818062363414292  1.0000
  O   O2        1.0  0.7818061509258194  0.7818061198636154  0.21819391726931953  1.0000
  O   O3        1.0  0.7818061341277418  0.21819369172364664  0.21819400996956945  1.0000
  O   O4        1.0  0.21819391773980595  0.7818061564489535  0.7818061390552881  1.0000
  O   O5        1.0  0.21819393582726213  0.7818061034962174  0.21819392180931668  1.0000
  O   O6        1.0  0.7818061797099417  0.21819376733974702  0.7818062169460349  1.0000
