data_image0
_chemical_formula_structural       Cu2CS6
_chemical_formula_sum              "Cu2 C1 S6"
_cell_length_a       5.758474186085535
_cell_length_b       5.75847422609524
_cell_length_c       5.758472604572788
_cell_angle_alpha    59.999993337523776
_cell_angle_beta     60.00000229859942
_cell_angle_gamma    59.999995566374224

_space_group_name_H-M_alt    "P 1"
_space_group_IT_number       1

loop_
  _space_group_symop_operation_xyz
  'x, y, z'

loop_
  _atom_site_type_symbol
  _atom_site_label
  _atom_site_symmetry_multiplicity
  _atom_site_fract_x
  _atom_site_fract_y
  _atom_site_fract_z
  _atom_site_occupancy
  Cu  Cu1       1.0  0.2500005070346991  0.24999986860029924  0.24999956212405897  1.0000
  Cu  Cu2       1.0  0.7500000759036198  0.7499998567698967  0.7500000736280389  1.0000
  C   C1        1.0  0.9999853092206892  1.626194679613602e-05  3.928655848041558e-08  1.0000
  S   S1        1.0  0.23771491211372958  0.23771562802555773  0.7622849782477682  1.0000
  S   S2        1.0  0.7622835053018973  0.7622845120817279  0.2377156266720586  1.0000
  S   S3        1.0  0.7622884280035337  0.23771145874689778  0.23771060268203695  1.0000
  S   S4        1.0  0.23771978108844138  0.7622799761371123  0.7622794789348016  1.0000
  S   S5        1.0  0.2377198527559331  0.7622806808640408  0.2377201551611951  1.0000
  S   S6        1.0  0.7622876813267386  0.23771190677328202  0.7622893316815039  1.0000
