data_image0
_chemical_formula_structural       Cu2CO6
_chemical_formula_sum              "Cu2 C1 O6"
_cell_length_a       4.8629916419098755
_cell_length_b       4.862991229474029
_cell_length_c       4.86299185603127
_cell_angle_alpha    60.000001684128186
_cell_angle_beta     60.00000163827444
_cell_angle_gamma    60.0000001410122

_space_group_name_H-M_alt    "P 1"
_space_group_IT_number       1

loop_
  _space_group_symop_operation_xyz
  'x, y, z'

loop_
  _atom_site_type_symbol
  _atom_site_label
  _atom_site_symmetry_multiplicity
  _atom_site_fract_x
  _atom_site_fract_y
  _atom_site_fract_z
  _atom_site_occupancy
  Cu  Cu1       1.0  0.24999997030153806  0.24999986134566046  0.25000009960990865  1.0000
  Cu  Cu2       1.0  0.749999934640777  0.7500000827002056  0.7500002556028652  1.0000
  C   C1        1.0  1.2848873033496194e-07  0.9999997783718926  0.9999997977516626  1.0000
  O   O1        1.0  0.21820135004899816  0.2182011988333619  0.7817987639038366  1.0000
  O   O2        1.0  0.7817986967603786  0.7817988182490215  0.21820122887009374  1.0000
  O   O3        1.0  0.7817986962812982  0.21820130172335506  0.21820118660625157  1.0000
  O   O4        1.0  0.21820119877622418  0.7817988286915682  0.7817986896584178  1.0000
  O   O5        1.0  0.2182012641724106  0.7817987721068816  0.21820121868467449  1.0000
  O   O6        1.0  0.7817987561803471  0.21820134571553926  0.781798640299229  1.0000
