data_image0
_chemical_formula_structural       Cu2CoS6
_chemical_formula_sum              "Cu2 Co1 S6"
_cell_length_a       6.011572644918562
_cell_length_b       6.011572561162604
_cell_length_c       6.011572451566979
_cell_angle_alpha    60.00000079039324
_cell_angle_beta     60.000001934876146
_cell_angle_gamma    60.0000011368711

_space_group_name_H-M_alt    "P 1"
_space_group_IT_number       1

loop_
  _space_group_symop_operation_xyz
  'x, y, z'

loop_
  _atom_site_type_symbol
  _atom_site_label
  _atom_site_symmetry_multiplicity
  _atom_site_fract_x
  _atom_site_fract_y
  _atom_site_fract_z
  _atom_site_occupancy
  Cu  Cu1       1.0  0.24999998541423143  0.2499999545160107  0.2500001924277036  1.0000
  Cu  Cu2       1.0  0.7500001132219323  0.7499999918986867  0.7500000719842594  1.0000
  Co  Co1       1.0  0.9999999946836844  1.018655967877996e-08  3.083404364469627e-08  1.0000
  S   S1        1.0  0.2539931365915425  0.2539932320728035  0.7460067459098271  1.0000
  S   S2        1.0  0.7460068000951771  0.7460067795358758  0.25399314436146186  1.0000
  S   S3        1.0  0.7460067752145865  0.2539931728267364  0.25399318637090074  1.0000
  S   S4        1.0  0.2539931425937293  0.7460068550804381  0.7460067517671742  1.0000
  S   S5        1.0  0.25399315956264634  0.7460068373190369  0.253993191014532  1.0000
  S   S6        1.0  0.7460068824383013  0.25399315799114747  0.74600669467189  1.0000
