data_image0
_chemical_formula_structural       Cu2CrS6
_chemical_formula_sum              "Cu2 Cr1 S6"
_cell_length_a       6.00927692881643
_cell_length_b       6.009276356969585
_cell_length_c       6.009276892474775
_cell_angle_alpha    59.9999982774263
_cell_angle_beta     59.99999895634806
_cell_angle_gamma    59.999997818410684

_space_group_name_H-M_alt    "P 1"
_space_group_IT_number       1

loop_
  _space_group_symop_operation_xyz
  'x, y, z'

loop_
  _atom_site_type_symbol
  _atom_site_label
  _atom_site_symmetry_multiplicity
  _atom_site_fract_x
  _atom_site_fract_y
  _atom_site_fract_z
  _atom_site_occupancy
  Cu  Cu1       1.0  0.25000009401870826  0.2500001358737702  0.2499997874635226  1.0000
  Cu  Cu2       1.0  0.7500000144109694  0.7499997982322555  0.7500001204136661  1.0000
  Cr  Cr1       1.0  6.049991332436995e-08  0.9999999510858272  0.9999999342997544  1.0000
  S   S1        1.0  0.2593510634095787  0.2593511938427176  0.7406488825745379  1.0000
  S   S2        1.0  0.740648844071941  0.740648899234367  0.25935109122173455  1.0000
  S   S3        1.0  0.7406488555519877  0.259351228387746  0.259351141915827  1.0000
  S   S4        1.0  0.25935122684875334  0.7406487607467257  0.740648892909575  1.0000
  S   S5        1.0  0.2593511280041337  0.7406487986757057  0.25935117294722926  1.0000
  S   S6        1.0  0.7406487096629424  0.25935122714439435  0.7406489842072248  1.0000
