data_image0
_chemical_formula_structural       Cu2CdTe6
_chemical_formula_sum              "Cu2 Cd1 Te6"
_cell_length_a       7.283368314515327
_cell_length_b       7.283368104980497
_cell_length_c       7.283368850614157
_cell_angle_alpha    59.999995736103465
_cell_angle_beta     59.999997902814385
_cell_angle_gamma    59.99999531967821

_space_group_name_H-M_alt    "P 1"
_space_group_IT_number       1

loop_
  _space_group_symop_operation_xyz
  'x, y, z'

loop_
  _atom_site_type_symbol
  _atom_site_label
  _atom_site_symmetry_multiplicity
  _atom_site_fract_x
  _atom_site_fract_y
  _atom_site_fract_z
  _atom_site_occupancy
  Cu  Cu1       1.0  0.24999987395425236  0.24999989266843445  0.2500001039564047  1.0000
  Cu  Cu2       1.0  0.7500001565222535  0.7499998243013585  0.7499999549155468  1.0000
  Cd  Cd1       1.0  0.999999841523805  5.2128486462024575e-08  3.120599723156421e-08  1.0000
  Te  Te1       1.0  0.2846957260693925  0.2846958228172043  0.7153042531440099  1.0000
  Te  Te2       1.0  0.7153044707716001  0.7153042321469418  0.2846957306643611  1.0000
  Te  Te3       1.0  0.7153043671381482  0.28469580168844283  0.2846956006150098  1.0000
  Te  Te4       1.0  0.28469561003648736  0.7153043272645243  0.7153042816622689  1.0000
  Te  Te5       1.0  0.2846955145598276  0.7153043001471071  0.2846959329876581  1.0000
  Te  Te6       1.0  0.7153044546411741  0.2846957480907883  0.7153041034732552  1.0000
