data_image0
_chemical_formula_structural       Cu2CaTe6
_chemical_formula_sum              "Cu2 Ca1 Te6"
_cell_length_a       7.590062957356523
_cell_length_b       7.590062885829888
_cell_length_c       7.590063103188977
_cell_angle_alpha    59.99999914553819
_cell_angle_beta     59.99999838576627
_cell_angle_gamma    59.99999896138985

_space_group_name_H-M_alt    "P 1"
_space_group_IT_number       1

loop_
  _space_group_symop_operation_xyz
  'x, y, z'

loop_
  _atom_site_type_symbol
  _atom_site_label
  _atom_site_symmetry_multiplicity
  _atom_site_fract_x
  _atom_site_fract_y
  _atom_site_fract_z
  _atom_site_occupancy
  Cu  Cu1       1.0  0.24999996885302753  0.24999999957929162  0.24999999150244936  1.0000
  Cu  Cu2       1.0  0.7499999445132145  0.7500001358952563  0.749999884316567  1.0000
  Ca  Ca1       1.0  2.683027210251392e-08  2.9045091688617582e-08  0.9999998034207688  1.0000
  Te  Te1       1.0  0.2871548194398167  0.28715464078235614  0.7128452938966636  1.0000
  Te  Te2       1.0  0.7128452894137426  0.712845268785917  0.2871548105687906  1.0000
  Te  Te3       1.0  0.7128452150446039  0.28715468243896286  0.28715484829830173  1.0000
  Te  Te4       1.0  0.2871546866599022  0.7128453465369133  0.7128452829102219  1.0000
  Te  Te5       1.0  0.28715476432656206  0.7128452767427041  0.28715474701485005  1.0000
  Te  Te6       1.0  0.7128452823369547  0.2871546231438713  0.7128453406859907  1.0000
