data_image0
_chemical_formula_structural       Cu2FeTe6
_chemical_formula_sum              "Cu2 Fe1 Te6"
_cell_length_a       6.7781803009749915
_cell_length_b       6.778179972483135
_cell_length_c       6.778181352059343
_cell_angle_alpha    59.99999949242886
_cell_angle_beta     60.00000037074184
_cell_angle_gamma    60.000005889882765

_space_group_name_H-M_alt    "P 1"
_space_group_IT_number       1

loop_
  _space_group_symop_operation_xyz
  'x, y, z'

loop_
  _atom_site_type_symbol
  _atom_site_label
  _atom_site_symmetry_multiplicity
  _atom_site_fract_x
  _atom_site_fract_y
  _atom_site_fract_z
  _atom_site_occupancy
  Cu  Cu1       1.0  0.24999960169908747  0.25000008919203875  0.25000053727277005  1.0000
  Cu  Cu2       1.0  0.7500000317841703  0.7499998736733972  0.75000004762574  1.0000
  Fe  Fe1       1.0  0.9999998803053527  0.9999999042346408  9.740273983737685e-08  1.0000
  Te  Te1       1.0  0.25194552185886454  0.251945522260424  0.7480541709661668  1.0000
  Te  Te2       1.0  0.7480544925004291  0.7480542996673296  0.2519457289148536  1.0000
  Te  Te3       1.0  0.7480543279639456  0.25194575099549205  0.2519456737415954  1.0000
  Te  Te4       1.0  0.25194567706254334  0.7480544413454154  0.7480542683728879  1.0000
  Te  Te5       1.0  0.2519457938940544  0.7480543967703431  0.25194550995763065  1.0000
  Te  Te6       1.0  0.7480546632123352  0.25194573232931783  0.7480539692289393  1.0000
