data_image0
_chemical_formula_structural       Cu2FeSe6
_chemical_formula_sum              "Cu2 Fe1 Se6"
_cell_length_a       6.410997923700428
_cell_length_b       6.4109977815984305
_cell_length_c       6.4109981954925415
_cell_angle_alpha    60.000000118078596
_cell_angle_beta     59.99999656928667
_cell_angle_gamma    60.00000070662598

_space_group_name_H-M_alt    "P 1"
_space_group_IT_number       1

loop_
  _space_group_symop_operation_xyz
  'x, y, z'

loop_
  _atom_site_type_symbol
  _atom_site_label
  _atom_site_symmetry_multiplicity
  _atom_site_fract_x
  _atom_site_fract_y
  _atom_site_fract_z
  _atom_site_occupancy
  Cu  Cu1       1.0  0.2499999668879414  0.25000002418156236  0.2500000036828312  1.0000
  Cu  Cu2       1.0  0.7500000514152111  0.7499999120726876  0.7500001672112865  1.0000
  Fe  Fe1       1.0  1.1378308098508655e-07  0.9999998261553292  8.150483371505824e-08  1.0000
  Se  Se1       1.0  0.2506049825846492  0.2506050202664992  0.7493950199820536  1.0000
  Se  Se2       1.0  0.7493950817267171  0.7493950535351817  0.2506049203103079  1.0000
  Se  Se3       1.0  0.7493950114737861  0.2506050992767487  0.2506048562127821  1.0000
  Se  Se4       1.0  0.25060491793426626  0.7493950280155951  0.7493950109190841  1.0000
  Se  Se5       1.0  0.25060506986533415  0.7493948891848776  0.25060509482747334  1.0000
  Se  Se6       1.0  0.7493948191189062  0.25060515405069955  0.7493948283054036  1.0000
