data_image0
_chemical_formula_structural       Cu2FeO6
_chemical_formula_sum              "Cu2 Fe1 O6"
_cell_length_a       5.203243221286632
_cell_length_b       5.203243068995191
_cell_length_c       5.203243104580483
_cell_angle_alpha    59.99999917082481
_cell_angle_beta     60.00000031417252
_cell_angle_gamma    59.99999864649949

_space_group_name_H-M_alt    "P 1"
_space_group_IT_number       1

loop_
  _space_group_symop_operation_xyz
  'x, y, z'

loop_
  _atom_site_type_symbol
  _atom_site_label
  _atom_site_symmetry_multiplicity
  _atom_site_fract_x
  _atom_site_fract_y
  _atom_site_fract_z
  _atom_site_occupancy
  Cu  Cu1       1.0  0.24999998295670395  0.25000016600027936  0.24999996349335976  1.0000
  Cu  Cu2       1.0  0.7499999535203441  0.7499999048405569  0.7500001251568793  1.0000
  Fe  Fe1       1.0  6.87257173393549e-08  1.200443425935958e-07  0.9999998460367421  1.0000
  O   O1        1.0  0.24772452552633253  0.2477245793061658  0.7522754063361615  1.0000
  O   O2        1.0  0.7522754047009526  0.7522752373231221  0.2477246511069575  1.0000
  O   O3        1.0  0.7522754291194204  0.24772459890607532  0.24772454608836694  1.0000
  O   O4        1.0  0.24772453970321784  0.7522755213647845  0.7522754228770548  1.0000
  O   O5        1.0  0.24772460022651968  0.75227536629251  0.24772459347062828  1.0000
  O   O6        1.0  0.752275492224955  0.24772451624347425  0.7522754786728928  1.0000
