data_image0
_chemical_formula_structural       Cu2GeSe6
_chemical_formula_sum              "Cu2 Ge1 Se6"
_cell_length_a       6.4535302234060685
_cell_length_b       6.453530189743001
_cell_length_c       6.453530225742738
_cell_angle_alpha    60.00000084319485
_cell_angle_beta     59.999997982043
_cell_angle_gamma    60.00000007622675

_space_group_name_H-M_alt    "P 1"
_space_group_IT_number       1

loop_
  _space_group_symop_operation_xyz
  'x, y, z'

loop_
  _atom_site_type_symbol
  _atom_site_label
  _atom_site_symmetry_multiplicity
  _atom_site_fract_x
  _atom_site_fract_y
  _atom_site_fract_z
  _atom_site_occupancy
  Cu  Cu1       1.0  0.24999993304282325  0.25000015612054216  0.24999998566542786  1.0000
  Cu  Cu2       1.0  0.7499999633339143  0.7499998952288757  0.7499998252098582  1.0000
  Ge  Ge1       1.0  0.999999977155219  9.488953624232243e-09  5.471363859042443e-08  1.0000
  Se  Se1       1.0  0.2890503162183018  0.289050373627218  0.7109496505008447  1.0000
  Se  Se2       1.0  0.7109496742477633  0.7109496853133679  0.28905041324393416  1.0000
  Se  Se3       1.0  0.7109496585974556  0.2890503186995577  0.2890503166586985  1.0000
  Se  Se4       1.0  0.28905040181392505  0.7109496377603368  0.7109496517869224  1.0000
  Se  Se5       1.0  0.28905035087535547  0.7109495746110265  0.28905040182224945  1.0000
  Se  Se6       1.0  0.7109497245012733  0.2890503476886407  0.7109497032830996  1.0000
