data_image0
_chemical_formula_structural       Cu2GeTe6
_chemical_formula_sum              "Cu2 Ge1 Te6"
_cell_length_a       7.113313592820504
_cell_length_b       7.113313918604271
_cell_length_c       7.113311869193324
_cell_angle_alpha    59.99999700826682
_cell_angle_beta     60.00000234743029
_cell_angle_gamma    60.000010343528565

_space_group_name_H-M_alt    "P 1"
_space_group_IT_number       1

loop_
  _space_group_symop_operation_xyz
  'x, y, z'

loop_
  _atom_site_type_symbol
  _atom_site_label
  _atom_site_symmetry_multiplicity
  _atom_site_fract_x
  _atom_site_fract_y
  _atom_site_fract_z
  _atom_site_occupancy
  Cu  Cu1       1.0  0.25000007070383934  0.24999975018860818  0.2500004805009814  1.0000
  Cu  Cu2       1.0  0.7499996936950876  0.7499999341063385  0.7499994878011933  1.0000
  Ge  Ge1       1.0  4.370094836283575e-07  6.714880559389482e-08  1.4295482455930525e-07  1.0000
  Te  Te1       1.0  0.27723147435587525  0.27723140017983783  0.7227684530368399  1.0000
  Te  Te2       1.0  0.7227682239971915  0.7227682290185778  0.2772321690904373  1.0000
  Te  Te3       1.0  0.7227675235773451  0.2772318632587229  0.27723182753917175  1.0000
  Te  Te4       1.0  0.27723287873975405  0.722768050030886  0.7227680517311937  1.0000
  Te  Te5       1.0  0.2772321774657283  0.7227679608283536  0.27723112366929953  1.0000
  Te  Te6       1.0  0.7227675805212193  0.2772327410291969  0.7227682055050487  1.0000
