data_image0
_chemical_formula_structural       Cu2GeSe6
_chemical_formula_sum              "Cu2 Ge1 Se6"
_cell_length_a       6.453490124316962
_cell_length_b       6.453490251039736
_cell_length_c       6.453490393317852
_cell_angle_alpha    59.99999961759362
_cell_angle_beta     60.00000014545732
_cell_angle_gamma    59.99999994577724

_space_group_name_H-M_alt    "P 1"
_space_group_IT_number       1

loop_
  _space_group_symop_operation_xyz
  'x, y, z'

loop_
  _atom_site_type_symbol
  _atom_site_label
  _atom_site_symmetry_multiplicity
  _atom_site_fract_x
  _atom_site_fract_y
  _atom_site_fract_z
  _atom_site_occupancy
  Cu  Cu1       1.0  0.2499997661156211  0.24999986801477636  0.2500002164293668  1.0000
  Cu  Cu2       1.0  0.7500000344509935  0.750000004480616  0.7500001337025697  1.0000
  Ge  Ge1       1.0  1.198217128945405e-08  2.8467034675877063e-08  4.568182257722093e-09  1.0000
  Se  Se1       1.0  0.2890570840842343  0.28905711882807866  0.7109429455048534  1.0000
  Se  Se2       1.0  0.710942976012554  0.7109429681189752  0.28905700338396817  1.0000
  Se  Se3       1.0  0.7109430378013666  0.2890570346961661  0.28905697281066695  1.0000
  Se  Se4       1.0  0.28905697685989473  0.7109429953168186  0.7109428614612022  1.0000
  Se  Se5       1.0  0.28905707782283824  0.7109429467449839  0.28905700386825434  1.0000
  Se  Se6       1.0  0.7109430362248446  0.2890570320273379  0.7109428497181102  1.0000
