data_image0
_chemical_formula_structural       Cu2GeO6
_chemical_formula_sum              "Cu2 Ge1 O6"
_cell_length_a       5.2290732068580965
_cell_length_b       5.2290735168605575
_cell_length_c       5.229073455539642
_cell_angle_alpha    59.99999869883346
_cell_angle_beta     59.99999722010883
_cell_angle_gamma    59.99999828182039

_space_group_name_H-M_alt    "P 1"
_space_group_IT_number       1

loop_
  _space_group_symop_operation_xyz
  'x, y, z'

loop_
  _atom_site_type_symbol
  _atom_site_label
  _atom_site_symmetry_multiplicity
  _atom_site_fract_x
  _atom_site_fract_y
  _atom_site_fract_z
  _atom_site_occupancy
  Cu  Cu1       1.0  0.24999977691244496  0.2500001822654944  0.25000017026944815  1.0000
  Cu  Cu2       1.0  0.7499999910485513  0.7500002352860903  0.7500001910666945  1.0000
  Ge  Ge1       1.0  0.999999981955273  0.9999999812625341  0.9999999858805572  1.0000
  O   O1        1.0  0.25265218444256915  0.25265185436155796  0.7473478879519566  1.0000
  O   O2        1.0  0.7473481335139255  0.7473478605350257  0.2526519721737658  1.0000
  O   O3        1.0  0.74734803577106  0.25265205987864064  0.2526519680551036  1.0000
  O   O4        1.0  0.2526518447946626  0.7473479337377678  0.7473479350707839  1.0000
  O   O5        1.0  0.25265206753214564  0.7473479526653563  0.25265198867864075  1.0000
  O   O6        1.0  0.7473479850537182  0.2526519753699148  0.7473479262488233  1.0000
