data_image0
_chemical_formula_structural       Cu2GeS6
_chemical_formula_sum              "Cu2 Ge1 S6"
_cell_length_a       6.345703757201644
_cell_length_b       6.345703667557744
_cell_length_c       6.34570374979898
_cell_angle_alpha    60.00000026962241
_cell_angle_beta     60.000000828780514
_cell_angle_gamma    59.99999927743424

_space_group_name_H-M_alt    "P 1"
_space_group_IT_number       1

loop_
  _space_group_symop_operation_xyz
  'x, y, z'

loop_
  _atom_site_type_symbol
  _atom_site_label
  _atom_site_symmetry_multiplicity
  _atom_site_fract_x
  _atom_site_fract_y
  _atom_site_fract_z
  _atom_site_occupancy
  Cu  Cu1       1.0  0.250000086247572  0.25000003048695585  0.24999994840064252  1.0000
  Cu  Cu2       1.0  0.7499999009325392  0.7500000567201882  0.7500000966327804  1.0000
  Ge  Ge1       1.0  3.381975969779536e-08  7.720151668708275e-09  3.123373288330486e-08  1.0000
  S   S1        1.0  0.259264649821601  0.25926460671521456  0.7407353920144496  1.0000
  S   S2        1.0  0.7407353565138832  0.7407353029284399  0.2592646439743475  1.0000
  S   S3        1.0  0.740735367131365  0.25926464190078674  0.25926453047049336  1.0000
  S   S4        1.0  0.2592646785553529  0.7407353352941944  0.7407354047909439  1.0000
  S   S5        1.0  0.2592646177979617  0.7407353695909626  0.2592645267750659  1.0000
  S   S6        1.0  0.7407353023134727  0.25926464041466435  0.7407354312306494  1.0000
