data_image0
_chemical_formula_structural       Cu2GeTe6
_chemical_formula_sum              "Cu2 Ge1 Te6"
_cell_length_a       7.1145888351155415
_cell_length_b       7.114589050494283
_cell_length_c       7.114588423867872
_cell_angle_alpha    60.00000060673621
_cell_angle_beta     60.00000137755683
_cell_angle_gamma    60.00000019770546

_space_group_name_H-M_alt    "P 1"
_space_group_IT_number       1

loop_
  _space_group_symop_operation_xyz
  'x, y, z'

loop_
  _atom_site_type_symbol
  _atom_site_label
  _atom_site_symmetry_multiplicity
  _atom_site_fract_x
  _atom_site_fract_y
  _atom_site_fract_z
  _atom_site_occupancy
  Cu  Cu1       1.0  0.2500001440791  0.24999972958764008  0.2500001601324752  1.0000
  Cu  Cu2       1.0  0.7499999945378023  0.7499999565320995  0.7499998922882055  1.0000
  Ge  Ge1       1.0  9.27664982508685e-09  1.377164416646745e-07  0.999999943370204  1.0000
  Te  Te1       1.0  0.27735930647070134  0.2773591903953229  0.7226407113339203  1.0000
  Te  Te2       1.0  0.7226406190037532  0.7226407504998342  0.27735942709303596  1.0000
  Te  Te3       1.0  0.7226406955687245  0.27735928622801614  0.27735921884503895  1.0000
  Te  Te4       1.0  0.2773593206279283  0.7226407768904867  0.722640644441621  1.0000
  Te  Te5       1.0  0.2773592476389016  0.7226408082928146  0.2773592404694725  1.0000
  Te  Te6       1.0  0.7226406685362147  0.2773593649988395  0.7226407597032093  1.0000
