data_image0
_chemical_formula_structural       Cu2HgS6
_chemical_formula_sum              "Cu2 Hg1 S6"
_cell_length_a       6.461027587763239
_cell_length_b       6.461027357600428
_cell_length_c       6.46102746646626
_cell_angle_alpha    59.99999976286629
_cell_angle_beta     60.0000010286615
_cell_angle_gamma    59.99999943303611

_space_group_name_H-M_alt    "P 1"
_space_group_IT_number       1

loop_
  _space_group_symop_operation_xyz
  'x, y, z'

loop_
  _atom_site_type_symbol
  _atom_site_label
  _atom_site_symmetry_multiplicity
  _atom_site_fract_x
  _atom_site_fract_y
  _atom_site_fract_z
  _atom_site_occupancy
  Cu  Cu1       1.0  0.24999990959227  0.2500001174590286  0.2499999579420985  1.0000
  Cu  Cu2       1.0  0.7500000642677807  0.7499999410343927  0.7500000077121265  1.0000
  Hg  Hg1       1.0  0.9999999055644109  2.3505296793247347e-07  1.2006350882754563e-07  1.0000
  S   S1        1.0  0.2793449366918559  0.27934498776276495  0.7206549996150095  1.0000
  S   S2        1.0  0.7206551790461037  0.7206547844968006  0.27934497630753125  1.0000
  S   S3        1.0  0.7206552421905605  0.2793449321762488  0.2793447669975798  1.0000
  S   S4        1.0  0.2793449182794523  0.7206549310715622  0.7206550776074123  1.0000
  S   S5        1.0  0.27934479611017915  0.7206550723183343  0.2793449908713783  1.0000
  S   S6        1.0  0.7206550464372061  0.2793449994442065  0.7206551003575017  1.0000
