data_image0
_chemical_formula_structural       Cu2HgO6
_chemical_formula_sum              "Cu2 Hg1 O6"
_cell_length_a       5.414340576231511
_cell_length_b       5.414340506658419
_cell_length_c       5.41434061423837
_cell_angle_alpha    59.99999918111156
_cell_angle_beta     59.9999979250487
_cell_angle_gamma    59.999998234792145

_space_group_name_H-M_alt    "P 1"
_space_group_IT_number       1

loop_
  _space_group_symop_operation_xyz
  'x, y, z'

loop_
  _atom_site_type_symbol
  _atom_site_label
  _atom_site_symmetry_multiplicity
  _atom_site_fract_x
  _atom_site_fract_y
  _atom_site_fract_z
  _atom_site_occupancy
  Cu  Cu1       1.0  0.24999974968293084  0.25000011443919296  0.24999998895921  1.0000
  Cu  Cu2       1.0  0.7499999093453462  0.7499998275727044  0.7500000959190019  1.0000
  Hg  Hg1       1.0  0.9999999707672539  4.5240782378929336e-09  4.5599379827896106e-08  1.0000
  O   O1        1.0  0.2683105561888652  0.26831070873458535  0.7316893922422782  1.0000
  O   O2        1.0  0.731689511839108  0.7316891835124533  0.2683106903254184  1.0000
  O   O3        1.0  0.7316895058545668  0.2683107056190329  0.26831052697711466  1.0000
  O   O4        1.0  0.26831069394429885  0.7316893223503383  0.7316893498130356  1.0000
  O   O5        1.0  0.26831067632609995  0.7316893946199408  0.26831058281176895  1.0000
  O   O6        1.0  0.731689426940716  0.2683107374032211  0.7316893493198151  1.0000
