data_image0
_chemical_formula_structural       Cu2HfS6
_chemical_formula_sum              "Cu2 Hf1 S6"
_cell_length_a       6.3338428108891405
_cell_length_b       6.333843031903593
_cell_length_c       6.333843022802646
_cell_angle_alpha    60.000000482667666
_cell_angle_beta     60.000000532468846
_cell_angle_gamma    60.00000162345249

_space_group_name_H-M_alt    "P 1"
_space_group_IT_number       1

loop_
  _space_group_symop_operation_xyz
  'x, y, z'

loop_
  _atom_site_type_symbol
  _atom_site_label
  _atom_site_symmetry_multiplicity
  _atom_site_fract_x
  _atom_site_fract_y
  _atom_site_fract_z
  _atom_site_occupancy
  Cu  Cu1       1.0  0.24999994947326665  0.25000000908227993  0.2500000228414141  1.0000
  Cu  Cu2       1.0  0.7499999971559675  0.7500000349814494  0.7499999808159336  1.0000
  Hf  Hf1       1.0  0.9999999371500751  1.3535563819921642e-08  4.518184385807197e-08  1.0000
  S   S1        1.0  0.272160601714099  0.2721605119414069  0.7278394106835561  1.0000
  S   S2        1.0  0.7278394618503968  0.7278394547762413  0.27216053686633546  1.0000
  S   S3        1.0  0.7278394302495287  0.2721605584689653  0.27216054469621176  1.0000
  S   S4        1.0  0.2721605944966454  0.7278394043813785  0.7278394494576172  1.0000
  S   S5        1.0  0.27216058825049116  0.7278394552311354  0.27216053685030706  1.0000
  S   S6        1.0  0.7278394239174586  0.2721605617614657  0.7278394680979117  1.0000
