data_image0
_chemical_formula_structural       Cu2HgTe6
_chemical_formula_sum              "Cu2 Hg1 Te6"
_cell_length_a       7.280405378216643
_cell_length_b       7.280405247492565
_cell_length_c       7.280405323629754
_cell_angle_alpha    59.99999583400024
_cell_angle_beta     59.99999691150624
_cell_angle_gamma    59.99999694054926

_space_group_name_H-M_alt    "P 1"
_space_group_IT_number       1

loop_
  _space_group_symop_operation_xyz
  'x, y, z'

loop_
  _atom_site_type_symbol
  _atom_site_label
  _atom_site_symmetry_multiplicity
  _atom_site_fract_x
  _atom_site_fract_y
  _atom_site_fract_z
  _atom_site_occupancy
  Cu  Cu1       1.0  0.24999993547939262  0.2500003240957262  0.24999993336049725  1.0000
  Cu  Cu2       1.0  0.7500000301361893  0.7499998872370401  0.7499999313237026  1.0000
  Hg  Hg1       1.0  1.4705874455592666e-08  6.056093766193618e-08  0.99999998709049  1.0000
  Te  Te1       1.0  0.2836120576250463  0.2836121123284303  0.7163877329857754  1.0000
  Te  Te2       1.0  0.716388046190513  0.7163877272274676  0.28361212074673664  1.0000
  Te  Te3       1.0  0.7163878144000279  0.28361221068648274  0.28361208256320847  1.0000
  Te  Te4       1.0  0.2836120832908341  0.716387847561683  0.7163881014052428  1.0000
  Te  Te5       1.0  0.28361208611225724  0.7163875782290133  0.2836121871826365  1.0000
  Te  Te6       1.0  0.716387933274908  0.283612252915637  0.7163879203757338  1.0000
