data_image0
_chemical_formula_structural       Cu2HfO6
_chemical_formula_sum              "Cu2 Hf1 O6"
_cell_length_a       5.363518266885321
_cell_length_b       5.363517521841763
_cell_length_c       5.36351806547673
_cell_angle_alpha    60.000000481584216
_cell_angle_beta     60.00000198017698
_cell_angle_gamma    60.00000091859738

_space_group_name_H-M_alt    "P 1"
_space_group_IT_number       1

loop_
  _space_group_symop_operation_xyz
  'x, y, z'

loop_
  _atom_site_type_symbol
  _atom_site_label
  _atom_site_symmetry_multiplicity
  _atom_site_fract_x
  _atom_site_fract_y
  _atom_site_fract_z
  _atom_site_occupancy
  Cu  Cu1       1.0  0.25000032122298566  0.24999994682792517  0.24999995427433525  1.0000
  Cu  Cu2       1.0  0.7499999012286747  0.7500001601699823  0.7499998426659875  1.0000
  Hf  Hf1       1.0  0.9999999368053556  2.2834721856411393e-09  5.096451276050728e-08  1.0000
  O   O1        1.0  0.26911075515071825  0.26911046494698326  0.7308893702627971  1.0000
  O   O2        1.0  0.7308893606607881  0.7308894388218069  0.2691106990723728  1.0000
  O   O3        1.0  0.730889192415109  0.26911053333948304  0.26911067303078673  1.0000
  O   O4        1.0  0.26911059722212366  0.7308895028707385  0.7308893197771517  1.0000
  O   O5        1.0  0.2691105695850044  0.730889388179732  0.2691106125789052  1.0000
  O   O6        1.0  0.7308893553590352  0.269110552124621  0.730889451886509  1.0000
