data_image0
_chemical_formula_structural       Cu2IrS6
_chemical_formula_sum              "Cu2 Ir1 S6"
_cell_length_a       6.144069364483252
_cell_length_b       6.144069734258355
_cell_length_c       6.144069490934942
_cell_angle_alpha    59.99999940047563
_cell_angle_beta     59.99999985371064
_cell_angle_gamma    59.999999497544415

_space_group_name_H-M_alt    "P 1"
_space_group_IT_number       1

loop_
  _space_group_symop_operation_xyz
  'x, y, z'

loop_
  _atom_site_type_symbol
  _atom_site_label
  _atom_site_symmetry_multiplicity
  _atom_site_fract_x
  _atom_site_fract_y
  _atom_site_fract_z
  _atom_site_occupancy
  Cu  Cu1       1.0  0.250000238735612  0.24999998317923233  0.24999981882369696  1.0000
  Cu  Cu2       1.0  0.7499999625582251  0.7499999834251141  0.750000073510234  1.0000
  Ir  Ir1       1.0  3.369584358940707e-07  3.986753651961575e-09  0.9999996749067596  1.0000
  S   S1        1.0  0.2633897098982623  0.2633896315917351  0.7366103166001846  1.0000
  S   S2        1.0  0.7366100978474629  0.736610309098715  0.26338967641650335  1.0000
  S   S3        1.0  0.7366101872344599  0.26338973455065606  0.26338982528229543  1.0000
  S   S4        1.0  0.2633896755440177  0.7366102440139535  0.7366104288946447  1.0000
  S   S5        1.0  0.2633896995011565  0.7366103449157917  0.26338972267364613  1.0000
  S   S6        1.0  0.7366101170876329  0.263389789132244  0.7366104377943644  1.0000
