data_image0
_chemical_formula_structural       Cu2IrO6
_chemical_formula_sum              "Cu2 Ir1 O6"
_cell_length_a       5.576493132679981
_cell_length_b       5.576493164619003
_cell_length_c       5.576493250992914
_cell_angle_alpha    59.999999366430146
_cell_angle_beta     59.999998512764634
_cell_angle_gamma    60.00000096863724

_space_group_name_H-M_alt    "P 1"
_space_group_IT_number       1

loop_
  _space_group_symop_operation_xyz
  'x, y, z'

loop_
  _atom_site_type_symbol
  _atom_site_label
  _atom_site_symmetry_multiplicity
  _atom_site_fract_x
  _atom_site_fract_y
  _atom_site_fract_z
  _atom_site_occupancy
  Cu  Cu1       1.0  0.25000015297766975  0.249999868358786  0.25000002429128504  1.0000
  Cu  Cu2       1.0  0.7499999644153809  0.7500000201701614  0.7499998453927632  1.0000
  Ir  Ir1       1.0  0.9999999490697151  2.855142535919254e-08  0.9999999932570135  1.0000
  O   O1        1.0  0.23702908777371917  0.2370288264336545  0.7629710787522934  1.0000
  O   O2        1.0  0.7629710756762129  0.7629710357401313  0.23702896219830205  1.0000
  O   O3        1.0  0.7629709719843247  0.23702895099349092  0.23702896306020688  1.0000
  O   O4        1.0  0.23702895776827376  0.7629712581899325  0.7629710050950628  1.0000
  O   O5        1.0  0.23702889852588516  0.7629710135663865  0.23702897652278493  1.0000
  O   O6        1.0  0.7629709185356749  0.23702902430847794  0.7629711569444259  1.0000
