data_image0
_chemical_formula_structural       Cu2InTe6
_chemical_formula_sum              "Cu2 In1 Te6"
_cell_length_a       7.355240101710887
_cell_length_b       7.355240127776143
_cell_length_c       7.355240218460647
_cell_angle_alpha    59.999999733762365
_cell_angle_beta     60.00000013474745
_cell_angle_gamma    60.000000346358966

_space_group_name_H-M_alt    "P 1"
_space_group_IT_number       1

loop_
  _space_group_symop_operation_xyz
  'x, y, z'

loop_
  _atom_site_type_symbol
  _atom_site_label
  _atom_site_symmetry_multiplicity
  _atom_site_fract_x
  _atom_site_fract_y
  _atom_site_fract_z
  _atom_site_occupancy
  Cu  Cu1       1.0  0.2500000024228904  0.25000012853447334  0.2499999483763418  1.0000
  Cu  Cu2       1.0  0.7499999506327022  0.749999952668993  0.7500000164971782  1.0000
  In  In1       1.0  0.9999999847607951  3.3302647053304332e-09  6.033746611332335e-08  1.0000
  Te  Te1       1.0  0.2792579631658232  0.27925797333461977  0.7207420309313318  1.0000
  Te  Te2       1.0  0.7207420692909552  0.7207419779885188  0.27925799181155714  1.0000
  Te  Te3       1.0  0.7207420068453279  0.2792579855153603  0.27925794623841954  1.0000
  Te  Te4       1.0  0.2792580390277397  0.7207419208492033  0.7207420542075149  1.0000
  Te  Te5       1.0  0.2792580077660404  0.7207419728603349  0.2792579530957051  1.0000
  Te  Te6       1.0  0.7207419729138503  0.2792580866964101  0.7207420074294517  1.0000
