data_image0
_chemical_formula_structural       Cu2InO6
_chemical_formula_sum              "Cu2 In1 O6"
_cell_length_a       5.383257256276177
_cell_length_b       5.383257197377677
_cell_length_c       5.383257433494385
_cell_angle_alpha    59.99999757507253
_cell_angle_beta     59.999999004348915
_cell_angle_gamma    59.99999962617303

_space_group_name_H-M_alt    "P 1"
_space_group_IT_number       1

loop_
  _space_group_symop_operation_xyz
  'x, y, z'

loop_
  _atom_site_type_symbol
  _atom_site_label
  _atom_site_symmetry_multiplicity
  _atom_site_fract_x
  _atom_site_fract_y
  _atom_site_fract_z
  _atom_site_occupancy
  Cu  Cu1       1.0  0.25000012746484207  0.24999997068704521  0.24999990156650043  1.0000
  Cu  Cu2       1.0  0.7499998588657762  0.7499999575631277  0.7500002130665225  1.0000
  In  In1       1.0  7.015625026528405e-08  0.9999999954497993  9.351454573056083e-08  1.0000
  O   O1        1.0  0.2743506577192325  0.2743506233419387  0.7256492882626987  1.0000
  O   O2        1.0  0.7256493048417875  0.7256493890869411  0.27435046736856383  1.0000
  O   O3        1.0  0.7256493011945728  0.27435066382972595  0.2743506914771198  1.0000
  O   O4        1.0  0.27435065014338766  0.7256493372236498  0.7256493856745165  1.0000
  O   O5        1.0  0.27435075876335197  0.7256493833176832  0.27435058630507436  1.0000
  O   O6        1.0  0.7256492758163494  0.2743506768882967  0.725649384354774  1.0000
