data_image0
_chemical_formula_structural       Cu2MnTe6
_chemical_formula_sum              "Cu2 Mn1 Te6"
_cell_length_a       6.828544182449781
_cell_length_b       6.8285454095221505
_cell_length_c       6.828544033323725
_cell_angle_alpha    59.999999373423
_cell_angle_beta     60.00000263548585
_cell_angle_gamma    60.00000874922958

_space_group_name_H-M_alt    "P 1"
_space_group_IT_number       1

loop_
  _space_group_symop_operation_xyz
  'x, y, z'

loop_
  _atom_site_type_symbol
  _atom_site_label
  _atom_site_symmetry_multiplicity
  _atom_site_fract_x
  _atom_site_fract_y
  _atom_site_fract_z
  _atom_site_occupancy
  Cu  Cu1       1.0  0.24999959952457493  0.2499998560145306  0.2500003855670029  1.0000
  Cu  Cu2       1.0  0.7500005683345448  0.7499999303441426  0.7499993892030796  1.0000
  Mn  Mn1       1.0  1.8383730272654e-07  1.4348531325791826e-07  0.99999978361881  1.0000
  Te  Te1       1.0  0.2603231201351817  0.2603226443743672  0.7396772780130175  1.0000
  Te  Te2       1.0  0.7396772418977707  0.7396771276357341  0.26032301458746204  1.0000
  Te  Te3       1.0  0.739676995432977  0.2603227755486646  0.26032307496865975  1.0000
  Te  Te4       1.0  0.26032250051656836  0.7396773372390203  0.7396768198217994  1.0000
  Te  Te5       1.0  0.2603223767166334  0.7396772547871274  0.26032327830163055  1.0000
  Te  Te6       1.0  0.7396774145760521  0.26032282930347317  0.7396769708246668  1.0000
