data_image0
_chemical_formula_structural       Cu2MoO6
_chemical_formula_sum              "Cu2 Mo1 O6"
_cell_length_a       5.306438320151881
_cell_length_b       5.3064378755571315
_cell_length_c       5.306438641785197
_cell_angle_alpha    59.999994395141385
_cell_angle_beta     59.99999625825836
_cell_angle_gamma    59.999992980700284

_space_group_name_H-M_alt    "P 1"
_space_group_IT_number       1

loop_
  _space_group_symop_operation_xyz
  'x, y, z'

loop_
  _atom_site_type_symbol
  _atom_site_label
  _atom_site_symmetry_multiplicity
  _atom_site_fract_x
  _atom_site_fract_y
  _atom_site_fract_z
  _atom_site_occupancy
  Cu  Cu1       1.0  0.2500000160843644  0.2500001904804982  0.24999983705253112  1.0000
  Cu  Cu2       1.0  0.7500002004327256  0.749999932115517  0.7500001259778762  1.0000
  Mo  Mo1       1.0  1.623014302384533e-07  9.232140424891459e-09  0.9999997465124377  1.0000
  O   O1        1.0  0.25614374659302436  0.2561441369007433  0.743856128331484  1.0000
  O   O2        1.0  0.7438560073295396  0.7438559764631397  0.256143946235055  1.0000
  O   O3        1.0  0.7438560144201104  0.25614410461307285  0.2561438254023549  1.0000
  O   O4        1.0  0.2561437627562149  0.743856082607962  0.7438561591496587  1.0000
  O   O5        1.0  0.2561439384998418  0.7438558878036402  0.2561440052676457  1.0000
  O   O6        1.0  0.7438561460787916  0.2561437362566019  0.7438561297776467  1.0000
