data_image0
_chemical_formula_structural       Cu2MnSe6
_chemical_formula_sum              "Cu2 Mn1 Se6"
_cell_length_a       6.506604175558732
_cell_length_b       6.506604540456481
_cell_length_c       6.506604553798877
_cell_angle_alpha    60.0000008627094
_cell_angle_beta     59.999999573865104
_cell_angle_gamma    60.000000407584565

_space_group_name_H-M_alt    "P 1"
_space_group_IT_number       1

loop_
  _space_group_symop_operation_xyz
  'x, y, z'

loop_
  _atom_site_type_symbol
  _atom_site_label
  _atom_site_symmetry_multiplicity
  _atom_site_fract_x
  _atom_site_fract_y
  _atom_site_fract_z
  _atom_site_occupancy
  Cu  Cu1       1.0  0.24999996606225366  0.24999996441767053  0.25000005058110986  1.0000
  Cu  Cu2       1.0  0.7500000077296236  0.7500000118385574  0.7500000376791275  1.0000
  Mn  Mn1       1.0  1.4178803130579037e-08  3.199927385152039e-08  0.9999998585696682  1.0000
  Se  Se1       1.0  0.2538716396782847  0.253871613642822  0.7461283159368735  1.0000
  Se  Se2       1.0  0.7461282948557842  0.746128373907267  0.253871620320146  1.0000
  Se  Se3       1.0  0.7461284094274283  0.25387160564379163  0.2538716141340881  1.0000
  Se  Se4       1.0  0.25387150000917186  0.7461284571987093  0.7461284799165502  1.0000
  Se  Se5       1.0  0.2538716421725283  0.746128407732513  0.25387159614729593  1.0000
  Se  Se6       1.0  0.7461285225659327  0.2538715440536796  0.7461284119484689  1.0000
