data_image0
_chemical_formula_structural       Cu2MgTe6
_chemical_formula_sum              "Cu2 Mg1 Te6"
_cell_length_a       7.197742454640379
_cell_length_b       7.1977420105632595
_cell_length_c       7.197742027447964
_cell_angle_alpha    59.99999816395548
_cell_angle_beta     59.99999754008532
_cell_angle_gamma    59.99999524458864

_space_group_name_H-M_alt    "P 1"
_space_group_IT_number       1

loop_
  _space_group_symop_operation_xyz
  'x, y, z'

loop_
  _atom_site_type_symbol
  _atom_site_label
  _atom_site_symmetry_multiplicity
  _atom_site_fract_x
  _atom_site_fract_y
  _atom_site_fract_z
  _atom_site_occupancy
  Cu  Cu1       1.0  0.2500000098670114  0.2500001643144984  0.249999927109535  1.0000
  Cu  Cu2       1.0  0.7500001223701941  0.7499996659813339  0.7499997232917884  1.0000
  Mg  Mg1       1.0  1.0553871587196947e-07  1.0209409106845505e-07  0.9999998600611523  1.0000
  Te  Te1       1.0  0.28217187750077344  0.2821723079102424  0.7178278277789693  1.0000
  Te  Te2       1.0  0.7178279334128992  0.7178276874377154  0.2821724217547881  1.0000
  Te  Te3       1.0  0.7178279199261618  0.2821722814103099  0.282171965074542  1.0000
  Te  Te4       1.0  0.28217205325899564  0.7178277854035091  0.717828174537159  1.0000
  Te  Te5       1.0  0.2821719512452193  0.7178275962306384  0.28217223825896115  1.0000
  Te  Te6       1.0  0.717828034807367  0.2821724127298607  0.7178278599367546  1.0000
