data_image0
_chemical_formula_structural       Cu2MnO6
_chemical_formula_sum              "Cu2 Mn1 O6"
_cell_length_a       5.284908585461344
_cell_length_b       5.284908323965381
_cell_length_c       5.284908249507921
_cell_angle_alpha    59.99999980285223
_cell_angle_beta     59.99999954361069
_cell_angle_gamma    60.000000003697835

_space_group_name_H-M_alt    "P 1"
_space_group_IT_number       1

loop_
  _space_group_symop_operation_xyz
  'x, y, z'

loop_
  _atom_site_type_symbol
  _atom_site_label
  _atom_site_symmetry_multiplicity
  _atom_site_fract_x
  _atom_site_fract_y
  _atom_site_fract_z
  _atom_site_occupancy
  Cu  Cu1       1.0  0.24999997810686758  0.2500000016163417  0.2499999899052501  1.0000
  Cu  Cu2       1.0  0.749999998720302  0.7499999886269582  0.7499999721174592  1.0000
  Mn  Mn1       1.0  0.9999999119412519  3.4761572942816644e-08  2.6648589077643064e-08  1.0000
  O   O1        1.0  0.2516719876001391  0.25167214565490925  0.7483279689644889  1.0000
  O   O2        1.0  0.7483280300319967  0.7483279581428661  0.25167199345789604  1.0000
  O   O3        1.0  0.7483279332027488  0.2516720209556269  0.251672065138711  1.0000
  O   O4        1.0  0.25167204053450176  0.7483279785574262  0.7483279392064117  1.0000
  O   O5        1.0  0.2516721106615067  0.7483279311396296  0.25167204357143225  1.0000
  O   O6        1.0  0.7483279986078637  0.25167195018407373  0.7483279994068144  1.0000
