data_image0
_chemical_formula_structural       Cu2MoSe6
_chemical_formula_sum              "Cu2 Mo1 Se6"
_cell_length_a       6.647077327709274
_cell_length_b       6.647077373786754
_cell_length_c       6.647077259370221
_cell_angle_alpha    60.00000135483067
_cell_angle_beta     60.00000090500576
_cell_angle_gamma    60.00000089584348

_space_group_name_H-M_alt    "P 1"
_space_group_IT_number       1

loop_
  _space_group_symop_operation_xyz
  'x, y, z'

loop_
  _atom_site_type_symbol
  _atom_site_label
  _atom_site_symmetry_multiplicity
  _atom_site_fract_x
  _atom_site_fract_y
  _atom_site_fract_z
  _atom_site_occupancy
  Cu  Cu1       1.0  0.24999986684114645  0.25000002214791145  0.2500000912013907  1.0000
  Cu  Cu2       1.0  0.7499999781364654  0.7500000019551368  0.750000183236466  1.0000
  Mo  Mo1       1.0  0.9999999705225991  0.9999999060308999  0.9999999834933783  1.0000
  Se  Se1       1.0  0.2565002334914827  0.2565001684737981  0.7434998348269881  1.0000
  Se  Se2       1.0  0.743499888431446  0.7434998169360898  0.2565000872995974  1.0000
  Se  Se3       1.0  0.7434998156824073  0.25650019973127014  0.25650012686453355  1.0000
  Se  Se4       1.0  0.25650012253854737  0.7434999146558133  0.7434998120934969  1.0000
  Se  Se5       1.0  0.2565002215690664  0.7434998229177384  0.25650009959979525  1.0000
  Se  Se6       1.0  0.7434999007753664  0.256500140381773  0.74349979275187  1.0000
