data_image0
_chemical_formula_structural       Cu2MnS6
_chemical_formula_sum              "Cu2 Mn1 S6"
_cell_length_a       6.210137116469392
_cell_length_b       6.210136987393489
_cell_length_c       6.210137676063795
_cell_angle_alpha    59.99999727201223
_cell_angle_beta     59.99999831064492
_cell_angle_gamma    60.00000013244688

_space_group_name_H-M_alt    "P 1"
_space_group_IT_number       1

loop_
  _space_group_symop_operation_xyz
  'x, y, z'

loop_
  _atom_site_type_symbol
  _atom_site_label
  _atom_site_symmetry_multiplicity
  _atom_site_fract_x
  _atom_site_fract_y
  _atom_site_fract_z
  _atom_site_occupancy
  Cu  Cu1       1.0  0.250000100102888  0.2500000434773974  0.2499999214716445  1.0000
  Cu  Cu2       1.0  0.7500000160136996  0.7499999904080785  0.7499998219885239  1.0000
  Mn  Mn1       1.0  0.9999999907031012  6.885396602371935e-16  1.6245493430447537e-07  1.0000
  S   S1        1.0  0.2526874005773777  0.25268748373627326  0.7473125562980182  1.0000
  S   S2        1.0  0.7473125945473637  0.7473125895926115  0.2526875032925823  1.0000
  S   S3        1.0  0.7473124972824562  0.2526874054562829  0.25268746560446464  1.0000
  S   S4        1.0  0.2526876297875018  0.7473124114904384  0.7473124710235289  1.0000
  S   S5        1.0  0.2526873875597617  0.747312505267741  0.25268752238662073  1.0000
  S   S6        1.0  0.747312397886835  0.25268757792199076  0.7473125517683029  1.0000
