data_image0
_chemical_formula_structural       Cu2MnTe6
_chemical_formula_sum              "Cu2 Mn1 Te6"
_cell_length_a       6.828950102507978
_cell_length_b       6.828951561151061
_cell_length_c       6.828949535284992
_cell_angle_alpha    60.00000182262787
_cell_angle_beta     59.99999621257822
_cell_angle_gamma    60.00000168481911

_space_group_name_H-M_alt    "P 1"
_space_group_IT_number       1

loop_
  _space_group_symop_operation_xyz
  'x, y, z'

loop_
  _atom_site_type_symbol
  _atom_site_label
  _atom_site_symmetry_multiplicity
  _atom_site_fract_x
  _atom_site_fract_y
  _atom_site_fract_z
  _atom_site_occupancy
  Cu  Cu1       1.0  0.25000010353514307  0.2500000844654117  0.2499998203260417  1.0000
  Cu  Cu2       1.0  0.7499999305743905  0.7499996992172513  0.7499999573702699  1.0000
  Mn  Mn1       1.0  1.4440846043845682e-07  2.3314949599221872e-08  2.2951005598516222e-07  1.0000
  Te  Te1       1.0  0.2603131590517866  0.26031339761903705  0.7396866000594616  1.0000
  Te  Te2       1.0  0.7396869650646106  0.7396865725834117  0.2603130686605908  1.0000
  Te  Te3       1.0  0.7396866494446944  0.26031333548933216  0.26031305661059534  1.0000
  Te  Te4       1.0  0.26031333666928935  0.7396865414532087  0.739686976680821  1.0000
  Te  Te5       1.0  0.2603131138770026  0.7396866501582579  0.2603134209769321  1.0000
  Te  Te6       1.0  0.739686629970569  0.2603136948772014  0.739686827416525  1.0000
