data_image0
_chemical_formula_structural       Cu2MnS6
_chemical_formula_sum              "Cu2 Mn1 S6"
_cell_length_a       6.210339195773466
_cell_length_b       6.210338902500966
_cell_length_c       6.210338520336208
_cell_angle_alpha    60.00000282496088
_cell_angle_beta     60.00000350850135
_cell_angle_gamma    60.00000223174674

_space_group_name_H-M_alt    "P 1"
_space_group_IT_number       1

loop_
  _space_group_symop_operation_xyz
  'x, y, z'

loop_
  _atom_site_type_symbol
  _atom_site_label
  _atom_site_symmetry_multiplicity
  _atom_site_fract_x
  _atom_site_fract_y
  _atom_site_fract_z
  _atom_site_occupancy
  Cu  Cu1       1.0  0.25000007210273656  0.24999988673925838  0.24999994136374348  1.0000
  Cu  Cu2       1.0  0.7499999021893524  0.7500000447784984  0.7499998822629544  1.0000
  Mn  Mn1       1.0  0.9999999725773842  1.3804743817967744e-07  0.9999997643431533  1.0000
  S   S1        1.0  0.2526613013353618  0.252661207434214  0.7473387243548198  1.0000
  S   S2        1.0  0.7473385953164531  0.7473387004182688  0.2526614011186884  1.0000
  S   S3        1.0  0.7473386217361395  0.252661358740713  0.2526613229771798  1.0000
  S   S4        1.0  0.25266133114308575  0.7473387206850179  0.7473387369025457  1.0000
  S   S5        1.0  0.25266143018076276  0.7473386312911712  0.25266140492042133  1.0000
  S   S6        1.0  0.7473387775026427  0.25266131403133674  0.7473387636817336  1.0000
