data_image0
_chemical_formula_structural       Cu2NbO6
_chemical_formula_sum              "Cu2 Nb1 O6"
_cell_length_a       5.327064838622451
_cell_length_b       5.327064458718442
_cell_length_c       5.32706456125348
_cell_angle_alpha    59.999999338793046
_cell_angle_beta     60.00000103360186
_cell_angle_gamma    60.00000007752178

_space_group_name_H-M_alt    "P 1"
_space_group_IT_number       1

loop_
  _space_group_symop_operation_xyz
  'x, y, z'

loop_
  _atom_site_type_symbol
  _atom_site_label
  _atom_site_symmetry_multiplicity
  _atom_site_fract_x
  _atom_site_fract_y
  _atom_site_fract_z
  _atom_site_occupancy
  Cu  Cu1       1.0  0.2499999464764945  0.24999988429018985  0.25000021643301346  1.0000
  Cu  Cu2       1.0  0.749999932606456  0.7500001471768674  0.7500001040117391  1.0000
  Nb  Nb1       1.0  1.0792934645497928e-08  7.816936817617551e-08  6.203422901907899e-09  1.0000
  O   O1        1.0  0.26335665190541396  0.2633567522314786  0.7366432118023073  1.0000
  O   O2        1.0  0.7366432816082344  0.7366433045256681  0.26335658070837187  1.0000
  O   O3        1.0  0.7366433946158671  0.26335658224473035  0.26335665809704334  1.0000
  O   O4        1.0  0.26335673442236857  0.7366433756511604  0.736643273802615  1.0000
  O   O5        1.0  0.2633567131785051  0.7366434297290827  0.2633564892209542  1.0000
  O   O6        1.0  0.7366433046992433  0.26335648448392424  0.7366434919422935  1.0000
