data_image0
_chemical_formula_structural       Cu2NiSe6
_chemical_formula_sum              "Cu2 Ni1 Se6"
_cell_length_a       6.219538540129297
_cell_length_b       6.21953861283575
_cell_length_c       6.219539189931808
_cell_angle_alpha    59.99999608996435
_cell_angle_beta     59.999996953148596
_cell_angle_gamma    59.99999745966434

_space_group_name_H-M_alt    "P 1"
_space_group_IT_number       1

loop_
  _space_group_symop_operation_xyz
  'x, y, z'

loop_
  _atom_site_type_symbol
  _atom_site_label
  _atom_site_symmetry_multiplicity
  _atom_site_fract_x
  _atom_site_fract_y
  _atom_site_fract_z
  _atom_site_occupancy
  Cu  Cu1       1.0  0.2499999605963699  0.2499999775002896  0.2500001788669092  1.0000
  Cu  Cu2       1.0  0.7499997419992969  0.7500001235122443  0.749999787463673  1.0000
  Ni  Ni1       1.0  1.6052729523176337e-08  1.969189016752794e-09  1.6714419306311285e-08  1.0000
  Se  Se1       1.0  0.268406095285733  0.26840591978606526  0.7315938726200922  1.0000
  Se  Se2       1.0  0.7315939788137512  0.7315940414140221  0.268406112923044  1.0000
  Se  Se3       1.0  0.7315939666128901  0.26840596228198194  0.26840605045534516  1.0000
  Se  Se4       1.0  0.26840619782142827  0.731593967411074  0.7315940423399638  1.0000
  Se  Se5       1.0  0.2684059645303789  0.731593976479815  0.26840601590486174  1.0000
  Se  Se6       1.0  0.7315940641104776  0.2684060319808171  0.7315939478354455  1.0000
