data_image0
_chemical_formula_structural       Cu2NbO6
_chemical_formula_sum              "Cu2 Nb1 O6"
_cell_length_a       5.3266890671201015
_cell_length_b       5.326689214027509
_cell_length_c       5.326689478679125
_cell_angle_alpha    59.999999018399144
_cell_angle_beta     59.99999981772593
_cell_angle_gamma    60.0000013782987

_space_group_name_H-M_alt    "P 1"
_space_group_IT_number       1

loop_
  _space_group_symop_operation_xyz
  'x, y, z'

loop_
  _atom_site_type_symbol
  _atom_site_label
  _atom_site_symmetry_multiplicity
  _atom_site_fract_x
  _atom_site_fract_y
  _atom_site_fract_z
  _atom_site_occupancy
  Cu  Cu1       1.0  0.24999966853658365  0.2500000653094223  0.2500002421898377  1.0000
  Cu  Cu2       1.0  0.750000087681118  0.7499997981561337  0.7499995583909104  1.0000
  Nb  Nb1       1.0  1.3468752662180042e-08  0.9999998620443408  0.9999999214430546  1.0000
  O   O1        1.0  0.2633966118583202  0.2633967388694227  0.7366033027665877  1.0000
  O   O2        1.0  0.7366033713358378  0.7366033476244526  0.2633968679281277  1.0000
  O   O3        1.0  0.7366033676946724  0.26339659290814826  0.26339653336416846  1.0000
  O   O4        1.0  0.26339684819410186  0.736603530373907  0.7366033918261733  1.0000
  O   O5        1.0  0.2633965066864496  0.7366034413961215  0.2633966686713714  1.0000
  O   O6        1.0  0.7366035600436555  0.26339662210514514  0.7366034942797399  1.0000
