data_image0
_chemical_formula_structural       Cu2NbS6
_chemical_formula_sum              "Cu2 Nb1 S6"
_cell_length_a       6.247329871664967
_cell_length_b       6.247329872173254
_cell_length_c       6.247329994893192
_cell_angle_alpha    59.99999990049591
_cell_angle_beta     59.99999817084371
_cell_angle_gamma    59.999998442413045

_space_group_name_H-M_alt    "P 1"
_space_group_IT_number       1

loop_
  _space_group_symop_operation_xyz
  'x, y, z'

loop_
  _atom_site_type_symbol
  _atom_site_label
  _atom_site_symmetry_multiplicity
  _atom_site_fract_x
  _atom_site_fract_y
  _atom_site_fract_z
  _atom_site_occupancy
  Cu  Cu1       1.0  0.250000089569875  0.2500000380307924  0.24999993862632436  1.0000
  Cu  Cu2       1.0  0.7499998443445591  0.7500001395779644  0.7500000265235031  1.0000
  Nb  Nb1       1.0  0.9999999585908117  0.9999999745144177  0.99999989258721  1.0000
  S   S1        1.0  0.2663914276875336  0.26639132809999094  0.7336086472735964  1.0000
  S   S2        1.0  0.7336086498378296  0.7336086848327  0.2663913604224735  1.0000
  S   S3        1.0  0.7336086755278584  0.2663912662936952  0.2663913146591414  1.0000
  S   S4        1.0  0.2663912827350345  0.7336087329159918  0.7336087307173581  1.0000
  S   S5        1.0  0.26639133945237975  0.7336086514671959  0.2663913170169088  1.0000
  S   S6        1.0  0.7336087283862572  0.26639119090814284  0.7336087743984647  1.0000
