data_image0
_chemical_formula_structural       Cu2NiS6
_chemical_formula_sum              "Cu2 Ni1 S6"
_cell_length_a       6.086149813263105
_cell_length_b       6.086149554832909
_cell_length_c       6.086150024876913
_cell_angle_alpha    60.000000236258686
_cell_angle_beta     59.99999965088281
_cell_angle_gamma    59.99999963027247

_space_group_name_H-M_alt    "P 1"
_space_group_IT_number       1

loop_
  _space_group_symop_operation_xyz
  'x, y, z'

loop_
  _atom_site_type_symbol
  _atom_site_label
  _atom_site_symmetry_multiplicity
  _atom_site_fract_x
  _atom_site_fract_y
  _atom_site_fract_z
  _atom_site_occupancy
  Cu  Cu1       1.0  0.25000002007858385  0.24999988544515822  0.2500000700550811  1.0000
  Cu  Cu2       1.0  0.7499997885000061  0.7500000105086619  0.7500002609587194  1.0000
  Ni  Ni1       1.0  1.820647048443595e-08  0.9999999738394797  0.9999999711155276  1.0000
  S   S1        1.0  0.2500003658863721  0.2500002659990311  0.7499997557658495  1.0000
  S   S2        1.0  0.7499996587101295  0.74999971044869  0.25000022489384216  1.0000
  S   S3        1.0  0.749999680261977  0.2500004012554539  0.25000017301697824  1.0000
  S   S4        1.0  0.25000034960205336  0.7499997301430334  0.7499996470229019  1.0000
  S   S5        1.0  0.2500003714349628  0.749999703762365  0.2500002132721087  1.0000
  S   S6        1.0  0.7499997121672661  0.2500003290310888  0.7499996587765343  1.0000
