data_image0
_chemical_formula_structural       Cu2NiTe6
_chemical_formula_sum              "Cu2 Ni1 Te6"
_cell_length_a       6.803458933227303
_cell_length_b       6.803459739635253
_cell_length_c       6.803459263513288
_cell_angle_alpha    60.00000088230196
_cell_angle_beta     59.99999890530394
_cell_angle_gamma    60.000000153587415

_space_group_name_H-M_alt    "P 1"
_space_group_IT_number       1

loop_
  _space_group_symop_operation_xyz
  'x, y, z'

loop_
  _atom_site_type_symbol
  _atom_site_label
  _atom_site_symmetry_multiplicity
  _atom_site_fract_x
  _atom_site_fract_y
  _atom_site_fract_z
  _atom_site_occupancy
  Cu  Cu1       1.0  0.24999963652819954  0.25000019576789434  0.2500001362368356  1.0000
  Cu  Cu2       1.0  0.7500002036356868  0.7499999536404883  0.7499997536818203  1.0000
  Ni  Ni1       1.0  1.0045073739831359e-08  6.660664039160866e-08  0.9999999308074916  1.0000
  Te  Te1       1.0  0.2628625735046682  0.2628627386576031  0.7371374121242199  1.0000
  Te  Te2       1.0  0.7371374871840024  0.7371370903188234  0.2628629010875145  1.0000
  Te  Te3       1.0  0.7371374829990803  0.2628626346519158  0.26286268187561873  1.0000
  Te  Te4       1.0  0.2628625482689908  0.7371373131363607  0.7371373191295173  1.0000
  Te  Te5       1.0  0.26286246839548816  0.7371372857518355  0.2628627699392386  1.0000
  Te  Te6       1.0  0.7371375800154201  0.26286271244146747  0.7371370914634485  1.0000
