data_image0
_chemical_formula_structural       Cu2NbTe6
_chemical_formula_sum              "Cu2 Nb1 Te6"
_cell_length_a       7.206550469739312
_cell_length_b       7.206550598656982
_cell_length_c       7.206550654599618
_cell_angle_alpha    59.99999796105617
_cell_angle_beta     60.00000071151503
_cell_angle_gamma    60.000000136862994

_space_group_name_H-M_alt    "P 1"
_space_group_IT_number       1

loop_
  _space_group_symop_operation_xyz
  'x, y, z'

loop_
  _atom_site_type_symbol
  _atom_site_label
  _atom_site_symmetry_multiplicity
  _atom_site_fract_x
  _atom_site_fract_y
  _atom_site_fract_z
  _atom_site_occupancy
  Cu  Cu1       1.0  0.24999989783122573  0.2499999647312529  0.250000117240763  1.0000
  Cu  Cu2       1.0  0.7500000276258342  0.7500000454482328  0.7499998661943539  1.0000
  Nb  Nb1       1.0  0.9999999726776391  1.444565118075869e-07  0.9999999261690318  1.0000
  Te  Te1       1.0  0.26656513810522364  0.2665651572976122  0.7334348664768071  1.0000
  Te  Te2       1.0  0.733434765066961  0.7334347611094979  0.2665653058114452  1.0000
  Te  Te3       1.0  0.7334348119831491  0.26656523869468796  0.26656522358750845  1.0000
  Te  Te4       1.0  0.2665653264345153  0.7334346950078224  0.7334347054820615  1.0000
  Te  Te5       1.0  0.266565196252996  0.7334347462804315  0.2665652769681488  1.0000
  Te  Te6       1.0  0.7334348704974345  0.2665652486036585  0.7334347156245561  1.0000
