data_image0
_chemical_formula_structural       Cu2NiTe6
_chemical_formula_sum              "Cu2 Ni1 Te6"
_cell_length_a       6.805288675587365
_cell_length_b       6.805287471275769
_cell_length_c       6.805287411110284
_cell_angle_alpha    59.9999953778144
_cell_angle_beta     60.00000241150172
_cell_angle_gamma    60.00000203424805

_space_group_name_H-M_alt    "P 1"
_space_group_IT_number       1

loop_
  _space_group_symop_operation_xyz
  'x, y, z'

loop_
  _atom_site_type_symbol
  _atom_site_label
  _atom_site_symmetry_multiplicity
  _atom_site_fract_x
  _atom_site_fract_y
  _atom_site_fract_z
  _atom_site_occupancy
  Cu  Cu1       1.0  0.2500007183292162  0.24999958537825642  0.24999985009038028  1.0000
  Cu  Cu2       1.0  0.749999397472126  0.7500002534817107  0.7500002259082691  1.0000
  Ni  Ni1       1.0  0.9999998623381744  4.1392998193545974e-08  8.340111170083522e-08  1.0000
  Te  Te1       1.0  0.262743925297269  0.26274290593217053  0.7372567007662847  1.0000
  Te  Te2       1.0  0.7372561537720109  0.7372571092980048  0.26274347586898167  1.0000
  Te  Te3       1.0  0.7372561316974122  0.26274347467129944  0.2627434049116523  1.0000
  Te  Te4       1.0  0.2627438141828038  0.7372566143464253  0.737256329732318  1.0000
  Te  Te5       1.0  0.2627438051680835  0.7372566898767827  0.26274302393761234  1.0000
  Te  Te6       1.0  0.7372561874688957  0.26274331995430894  0.7372569282353489  1.0000
