data_image0
_chemical_formula_structural       Cu2NiS6
_chemical_formula_sum              "Cu2 Ni1 S6"
_cell_length_a       6.087741174386005
_cell_length_b       6.087741439368041
_cell_length_c       6.087741188278772
_cell_angle_alpha    59.99999951591002
_cell_angle_beta     60.000000663831464
_cell_angle_gamma    59.999998509168755

_space_group_name_H-M_alt    "P 1"
_space_group_IT_number       1

loop_
  _space_group_symop_operation_xyz
  'x, y, z'

loop_
  _atom_site_type_symbol
  _atom_site_label
  _atom_site_symmetry_multiplicity
  _atom_site_fract_x
  _atom_site_fract_y
  _atom_site_fract_z
  _atom_site_occupancy
  Cu  Cu1       1.0  0.24999994667873993  0.2500001015654405  0.2500000075979187  1.0000
  Cu  Cu2       1.0  0.7500001156489966  0.7499998761783503  0.7499999086994954  1.0000
  Ni  Ni1       1.0  1.8412086153908918e-08  0.9999999959763566  0.9999999960910696  1.0000
  S   S1        1.0  0.24990614519666687  0.24990621408088207  0.7500937939094791  1.0000
  S   S2        1.0  0.7500938646364658  0.7500936650836563  0.24990630633946007  1.0000
  S   S3        1.0  0.7500937800927643  0.24990625450161433  0.24990617993914874  1.0000
  S   S4        1.0  0.24990616925092082  0.7500938459632854  0.7500938251205215  1.0000
  S   S5        1.0  0.24990607019494  0.750093841747358  0.2499062166991102  1.0000
  S   S6        1.0  0.7500938930211214  0.24990619433925473  0.7500938185414525  1.0000
