data_image0
_chemical_formula_structural       Cu2NiSe6
_chemical_formula_sum              "Cu2 Ni1 Se6"
_cell_length_a       6.218215919303786
_cell_length_b       6.218215967962378
_cell_length_c       6.218215901957112
_cell_angle_alpha    59.99999961536452
_cell_angle_beta     59.99999825638291
_cell_angle_gamma    60.0000013966942

_space_group_name_H-M_alt    "P 1"
_space_group_IT_number       1

loop_
  _space_group_symop_operation_xyz
  'x, y, z'

loop_
  _atom_site_type_symbol
  _atom_site_label
  _atom_site_symmetry_multiplicity
  _atom_site_fract_x
  _atom_site_fract_y
  _atom_site_fract_z
  _atom_site_occupancy
  Cu  Cu1       1.0  0.25000002780558  0.2500001606025379  0.2499997978563131  1.0000
  Cu  Cu2       1.0  0.7500000255614877  0.749999847593798  0.7500001947179419  1.0000
  Ni  Ni1       1.0  3.879029042843577e-08  0.9999999783343114  0.9999999994785902  1.0000
  Se  Se1       1.0  0.2685377452103815  0.2685378262781959  0.7314622231954441  1.0000
  Se  Se2       1.0  0.7314621838527181  0.7314621760093133  0.26853771708819274  1.0000
  Se  Se3       1.0  0.731462221030809  0.2685378416965572  0.26853768475239687  1.0000
  Se  Se4       1.0  0.26853780309472947  0.7314621093811429  0.7314623124056617  1.0000
  Se  Se5       1.0  0.26853775959511855  0.7314622321465544  0.268537762690375  1.0000
  Se  Se6       1.0  0.7314621750002198  0.2685378371076307  0.7314623102025276  1.0000
