data_image0
_chemical_formula_structural       Cu2NbSe6
_chemical_formula_sum              "Cu2 Nb1 Se6"
_cell_length_a       6.530693175210734
_cell_length_b       6.530692988591223
_cell_length_c       6.530693166757737
_cell_angle_alpha    59.99999986478097
_cell_angle_beta     60.00000040608003
_cell_angle_gamma    60.00000070166916

_space_group_name_H-M_alt    "P 1"
_space_group_IT_number       1

loop_
  _space_group_symop_operation_xyz
  'x, y, z'

loop_
  _atom_site_type_symbol
  _atom_site_label
  _atom_site_symmetry_multiplicity
  _atom_site_fract_x
  _atom_site_fract_y
  _atom_site_fract_z
  _atom_site_occupancy
  Cu  Cu1       1.0  0.2500000180521297  0.24999985461742238  0.2500000744711748  1.0000
  Cu  Cu2       1.0  0.7500000282319391  0.7500001508422637  0.7500000592543122  1.0000
  Nb  Nb1       1.0  1.880572163318153e-08  3.3756613086300516e-08  0.99999992471944  1.0000
  Se  Se1       1.0  0.26961236899145596  0.26961238704471646  0.7303876416254329  1.0000
  Se  Se2       1.0  0.7303875251644206  0.7303875602785769  0.26961241501585376  1.0000
  Se  Se3       1.0  0.7303876096658195  0.2696124139951296  0.2696123501295811  1.0000
  Se  Se4       1.0  0.26961234265693357  0.7303876664792496  0.7303875587908699  1.0000
  Se  Se5       1.0  0.2696124517367532  0.7303876312228393  0.26961235863658517  1.0000
  Se  Se6       1.0  0.7303876378584682  0.2696122973467826  0.7303876173180199  1.0000
