data_image0
_chemical_formula_structural       Cu2NbTe6
_chemical_formula_sum              "Cu2 Nb1 Te6"
_cell_length_a       7.2076308489394805
_cell_length_b       7.207630975531992
_cell_length_c       7.207630347811441
_cell_angle_alpha    60.000000891869334
_cell_angle_beta     60.00000266890064
_cell_angle_gamma    59.999999263591654

_space_group_name_H-M_alt    "P 1"
_space_group_IT_number       1

loop_
  _space_group_symop_operation_xyz
  'x, y, z'

loop_
  _atom_site_type_symbol
  _atom_site_label
  _atom_site_symmetry_multiplicity
  _atom_site_fract_x
  _atom_site_fract_y
  _atom_site_fract_z
  _atom_site_occupancy
  Cu  Cu1       1.0  0.25000003036065405  0.24999985608149355  0.25000001432828994  1.0000
  Cu  Cu2       1.0  0.749999918315592  0.7499997789494461  0.750000198830305  1.0000
  Nb  Nb1       1.0  0.9999999753056147  6.796937440981952e-09  0.9999999035049144  1.0000
  Te  Te1       1.0  0.26658767681624934  0.26658773491493215  0.7334122578758742  1.0000
  Te  Te2       1.0  0.7334122223016203  0.7334123708037175  0.2665876184629594  1.0000
  Te  Te3       1.0  0.7334123292776545  0.26658783230917454  0.2665876129737886  1.0000
  Te  Te4       1.0  0.26658771391111424  0.7334123073941387  0.7334123893871378  1.0000
  Te  Te5       1.0  0.2665877712852744  0.7334123559544077  0.26658757465592975  1.0000
  Te  Te6       1.0  0.7334123698397514  0.26658774466653  0.7334124260264278  1.0000
