data_image0
_chemical_formula_structural       Cu2OsSe6
_chemical_formula_sum              "Cu2 Os1 Se6"
_cell_length_a       6.36269627637168
_cell_length_b       6.3626964023118155
_cell_length_c       6.362696597931252
_cell_angle_alpha    60.00000005373548
_cell_angle_beta     59.999997243011485
_cell_angle_gamma    59.9999994975766

_space_group_name_H-M_alt    "P 1"
_space_group_IT_number       1

loop_
  _space_group_symop_operation_xyz
  'x, y, z'

loop_
  _atom_site_type_symbol
  _atom_site_label
  _atom_site_symmetry_multiplicity
  _atom_site_fract_x
  _atom_site_fract_y
  _atom_site_fract_z
  _atom_site_occupancy
  Cu  Cu1       1.0  0.2500001326948464  0.2499998585743148  0.2499999793541452  1.0000
  Cu  Cu2       1.0  0.7499999109951371  0.7500000896668142  0.7500000000749221  1.0000
  Os  Os1       1.0  0.9999999555830595  1.3474183301147284e-08  0.9999999746082017  1.0000
  Se  Se1       1.0  0.27573026720584176  0.2757302160172643  0.7242697618268287  1.0000
  Se  Se2       1.0  0.7242696807369755  0.724269899688721  0.2757302100332878  1.0000
  Se  Se3       1.0  0.7242697251414119  0.2757301988064847  0.27573033420383325  1.0000
  Se  Se4       1.0  0.27573032392065217  0.7242696897632601  0.7242697273830089  1.0000
  Se  Se5       1.0  0.2757303123159999  0.7242697556249437  0.2757302710873203  1.0000
  Se  Se6       1.0  0.7242696885138925  0.27573028308570596  0.7242697395451568  1.0000
