data_image0
_chemical_formula_structural       Cu2OsO6
_chemical_formula_sum              "Cu2 Os1 O6"
_cell_length_a       5.45074870204498
_cell_length_b       5.450748571412255
_cell_length_c       5.450748671520615
_cell_angle_alpha    59.99999968445623
_cell_angle_beta     60.00000132246368
_cell_angle_gamma    59.99999806342135

_space_group_name_H-M_alt    "P 1"
_space_group_IT_number       1

loop_
  _space_group_symop_operation_xyz
  'x, y, z'

loop_
  _atom_site_type_symbol
  _atom_site_label
  _atom_site_symmetry_multiplicity
  _atom_site_fract_x
  _atom_site_fract_y
  _atom_site_fract_z
  _atom_site_occupancy
  Cu  Cu1       1.0  0.250000015753535  0.25000008099700904  0.24999998445663374  1.0000
  Cu  Cu2       1.0  0.7500000589689618  0.750000036273494  0.7499999316248154  1.0000
  Os  Os1       1.0  0.9999999680107055  0.9999999370859689  0.9999999630595857  1.0000
  O   O1        1.0  0.24018579701658807  0.2401858871824381  0.7598142170887501  1.0000
  O   O2        1.0  0.7598141685134577  0.7598140683091279  0.2401858436514435  1.0000
  O   O3        1.0  0.7598141065230736  0.24018581957708493  0.24018588143102254  1.0000
  O   O4        1.0  0.2401859292564301  0.7598141920877226  0.7598141216016533  1.0000
  O   O5        1.0  0.24018579632643047  0.7598141027234593  0.24018591732145594  1.0000
  O   O6        1.0  0.7598141484892785  0.24018590220056057  0.7598140997059132  1.0000
