data_image0
_chemical_formula_structural       Cu2PS6
_chemical_formula_sum              "Cu2 P1 S6"
_cell_length_a       6.352635379156706
_cell_length_b       6.352635166192716
_cell_length_c       6.352635278806948
_cell_angle_alpha    59.999999184744226
_cell_angle_beta     60.00000096134354
_cell_angle_gamma    60.000000524942095

_space_group_name_H-M_alt    "P 1"
_space_group_IT_number       1

loop_
  _space_group_symop_operation_xyz
  'x, y, z'

loop_
  _atom_site_type_symbol
  _atom_site_label
  _atom_site_symmetry_multiplicity
  _atom_site_fract_x
  _atom_site_fract_y
  _atom_site_fract_z
  _atom_site_occupancy
  Cu  Cu1       1.0  0.2499999729158069  0.25000002654637876  0.2500000369649339  1.0000
  Cu  Cu2       1.0  0.7499999690374177  0.7500000160173803  0.7500000199633896  1.0000
  P   P1        1.0  4.5259106270660705e-08  0.9999999460179037  1.5380544347233997e-08  1.0000
  S   S1        1.0  0.24080228501809225  0.24080237338159127  0.7591976587768469  1.0000
  S   S2        1.0  0.759197658201502  0.7591976981011488  0.24080229333225842  1.0000
  S   S3        1.0  0.7591976206362524  0.24080237071348973  0.24080234962078476  1.0000
  S   S4        1.0  0.24080243917268376  0.7591976236519704  0.7591976205318871  1.0000
  S   S5        1.0  0.24080236334752936  0.7591975988653233  0.24080235842525577  1.0000
  S   S6        1.0  0.7591976444104906  0.24080236079735962  0.7591976299178647  1.0000
