data_image0
_chemical_formula_structural       Cu2PtSe6
_chemical_formula_sum              "Cu2 Pt1 Se6"
_cell_length_a       6.375756211795795
_cell_length_b       6.3757562246548245
_cell_length_c       6.3757563118146185
_cell_angle_alpha    60.00000032835125
_cell_angle_beta     59.999999385470495
_cell_angle_gamma    60.00000003243105

_space_group_name_H-M_alt    "P 1"
_space_group_IT_number       1

loop_
  _space_group_symop_operation_xyz
  'x, y, z'

loop_
  _atom_site_type_symbol
  _atom_site_label
  _atom_site_symmetry_multiplicity
  _atom_site_fract_x
  _atom_site_fract_y
  _atom_site_fract_z
  _atom_site_occupancy
  Cu  Cu1       1.0  0.2499999668778483  0.25000024350059263  0.24999982459856204  1.0000
  Cu  Cu2       1.0  0.7499996739507274  0.7499999544417989  0.7500002370967898  1.0000
  Pt  Pt1       1.0  1.1307484044599969e-07  0.9999999270042593  9.760835723086746e-09  1.0000
  Se  Se1       1.0  0.28329742585857914  0.28329739165250023  0.7167025861526223  1.0000
  Se  Se2       1.0  0.7167026675989402  0.7167024970184624  0.2832973442631979  1.0000
  Se  Se3       1.0  0.7167025952131294  0.28329744121411315  0.28329731203401787  1.0000
  Se  Se4       1.0  0.2832975294878092  0.7167025819226888  0.7167026390443043  1.0000
  Se  Se5       1.0  0.2832974728606886  0.7167025683263519  0.28329735330343364  1.0000
  Se  Se6       1.0  0.7167025534393066  0.2832973914194121  0.7167026959237338  1.0000
