data_image0
_chemical_formula_structural       Cu2PtS6
_chemical_formula_sum              "Cu2 Pt1 S6"
_cell_length_a       6.207145047787163
_cell_length_b       6.207145013065493
_cell_length_c       6.207145077968965
_cell_angle_alpha    59.99999999560087
_cell_angle_beta     60.00000229776744
_cell_angle_gamma    60.000002290929665

_space_group_name_H-M_alt    "P 1"
_space_group_IT_number       1

loop_
  _space_group_symop_operation_xyz
  'x, y, z'

loop_
  _atom_site_type_symbol
  _atom_site_label
  _atom_site_symmetry_multiplicity
  _atom_site_fract_x
  _atom_site_fract_y
  _atom_site_fract_z
  _atom_site_occupancy
  Cu  Cu1       1.0  0.25000000652586146  0.2499999190897427  0.25000001364741303  1.0000
  Cu  Cu2       1.0  0.7500000707592486  0.7499999999631213  0.750000013221911  1.0000
  Pt  Pt1       1.0  0.9999999884063234  0.9999999901343944  0.9999999817308018  1.0000
  S   S1        1.0  0.25972598837888616  0.25972605982506075  0.7402740042761574  1.0000
  S   S2        1.0  0.7402739547760406  0.7402739993193966  0.25972602283455243  1.0000
  S   S3        1.0  0.7402739077807281  0.25972615490812484  0.25972599089365517  1.0000
  S   S4        1.0  0.2597259266495363  0.7402740127579899  0.7402739895982038  1.0000
  S   S5        1.0  0.25972607587166796  0.7402739423567328  0.25972599415771447  1.0000
  S   S6        1.0  0.7402740724618366  0.2597259253949848  0.7402739954501941  1.0000
