data_image0
_chemical_formula_structural       Cu2PdS6
_chemical_formula_sum              "Cu2 Pd1 S6"
_cell_length_a       6.275648611671382
_cell_length_b       6.275648595731302
_cell_length_c       6.275648830916032
_cell_angle_alpha    59.99999922043061
_cell_angle_beta     59.9999997891416
_cell_angle_gamma    60.00000001357823

_space_group_name_H-M_alt    "P 1"
_space_group_IT_number       1

loop_
  _space_group_symop_operation_xyz
  'x, y, z'

loop_
  _atom_site_type_symbol
  _atom_site_label
  _atom_site_symmetry_multiplicity
  _atom_site_fract_x
  _atom_site_fract_y
  _atom_site_fract_z
  _atom_site_occupancy
  Cu  Cu1       1.0  0.2499999988614788  0.24999987019559902  0.2500000561019533  1.0000
  Cu  Cu2       1.0  0.7499998769606645  0.7500000301771307  0.7500000406310301  1.0000
  Pd  Pd1       1.0  2.898650189822099e-09  4.098324202659191e-08  1.3115190229513824e-08  1.0000
  S   S1        1.0  0.2635410458761824  0.26354096647195463  0.7364589805435642  1.0000
  S   S2        1.0  0.7364589439666538  0.7364590334315061  0.26354099029217953  1.0000
  S   S3        1.0  0.7364590119901395  0.2635409530462265  0.2635410262053452  1.0000
  S   S4        1.0  0.2635410779732194  0.736459039050903  0.7364589287490575  1.0000
  S   S5        1.0  0.2635410604040046  0.7364590616915541  0.2635409555041988  1.0000
  S   S6        1.0  0.7364589709577032  0.26354101237205907  0.7364590052958558  1.0000
