data_image0
_chemical_formula_structural       Cu2PbTe6
_chemical_formula_sum              "Cu2 Pb1 Te6"
_cell_length_a       7.552588829244095
_cell_length_b       7.552589142770669
_cell_length_c       7.552589237612082
_cell_angle_alpha    60.00000017299385
_cell_angle_beta     59.999999460553276
_cell_angle_gamma    60.00000149814776

_space_group_name_H-M_alt    "P 1"
_space_group_IT_number       1

loop_
  _space_group_symop_operation_xyz
  'x, y, z'

loop_
  _atom_site_type_symbol
  _atom_site_label
  _atom_site_symmetry_multiplicity
  _atom_site_fract_x
  _atom_site_fract_y
  _atom_site_fract_z
  _atom_site_occupancy
  Cu  Cu1       1.0  0.2500000959790877  0.2499999870887051  0.24999994091124733  1.0000
  Cu  Cu2       1.0  0.7499999452348255  0.7500000536985953  0.7500000445243122  1.0000
  Pb  Pb1       1.0  0.9999999971277233  0.9999999902702649  1.159720281529961e-08  1.0000
  Te  Te1       1.0  0.2916827217824279  0.29168261134375756  0.7083173285354426  1.0000
  Te  Te2       1.0  0.7083173124362764  0.7083173953894699  0.291682595333705  1.0000
  Te  Te3       1.0  0.7083172627605673  0.2916826926245097  0.2916827078324455  1.0000
  Te  Te4       1.0  0.291682692033185  0.7083173368114324  0.7083173092762326  1.0000
  Te  Te5       1.0  0.2916827198921047  0.7083173246477013  0.2916826598504226  1.0000
  Te  Te6       1.0  0.7083172498831293  0.2916826139773803  0.7083174031172401  1.0000
