data_image0
_chemical_formula_structural       Cu2PtO6
_chemical_formula_sum              "Cu2 Pt1 O6"
_cell_length_a       5.348075035555857
_cell_length_b       5.34807502343397
_cell_length_c       5.348075027492634
_cell_angle_alpha    60.000000086054776
_cell_angle_beta     60.000000001751715
_cell_angle_gamma    60.00000010305445

_space_group_name_H-M_alt    "P 1"
_space_group_IT_number       1

loop_
  _space_group_symop_operation_xyz
  'x, y, z'

loop_
  _atom_site_type_symbol
  _atom_site_label
  _atom_site_symmetry_multiplicity
  _atom_site_fract_x
  _atom_site_fract_y
  _atom_site_fract_z
  _atom_site_occupancy
  Cu  Cu1       1.0  0.24999998659556474  0.25000001383257003  0.24999999733470302  1.0000
  Cu  Cu2       1.0  0.7500000001995974  0.7499999979864423  0.7499999898136281  1.0000
  Pt  Pt1       1.0  1.77741782858825e-08  1.1450333728970605e-08  1.3435218877606778e-08  1.0000
  O   O1        1.0  0.25095196778691414  0.25095195636470413  0.7490480366427482  1.0000
  O   O2        1.0  0.7490480244827084  0.7490480325536407  0.2509519704376762  1.0000
  O   O3        1.0  0.7490480317463557  0.2509519565545652  0.2509519650170786  1.0000
  O   O4        1.0  0.2509519831395206  0.7490480163333125  0.7490480387704526  1.0000
  O   O5        1.0  0.25095196087324056  0.7490480385157414  0.25095196381230306  1.0000
  O   O6        1.0  0.749048025158566  0.2509519755933376  0.7490480244425042  1.0000
