data_image0
_chemical_formula_structural       Cu2PbSe6
_chemical_formula_sum              "Cu2 Pb1 Se6"
_cell_length_a       6.842661472365854
_cell_length_b       6.842661100400929
_cell_length_c       6.842661717577752
_cell_angle_alpha    60.00000305589337
_cell_angle_beta     60.000000699788295
_cell_angle_gamma    60.00000007517275

_space_group_name_H-M_alt    "P 1"
_space_group_IT_number       1

loop_
  _space_group_symop_operation_xyz
  'x, y, z'

loop_
  _atom_site_type_symbol
  _atom_site_label
  _atom_site_symmetry_multiplicity
  _atom_site_fract_x
  _atom_site_fract_y
  _atom_site_fract_z
  _atom_site_occupancy
  Cu  Cu1       1.0  0.2499999167326643  0.24999986547136083  0.25000018104317856  1.0000
  Cu  Cu2       1.0  0.7500000293960233  0.7499999991339834  0.7500000151088826  1.0000
  Pb  Pb1       1.0  4.745478625308875e-08  0.9999999892608005  0.9999999582594931  1.0000
  Se  Se1       1.0  0.30432119877276004  0.30432120096466203  0.6956787339491521  1.0000
  Se  Se2       1.0  0.6956789719251602  0.6956789518091272  0.3043207922523378  1.0000
  Se  Se3       1.0  0.6956788899488867  0.30432113766115376  0.30432114512814895  1.0000
  Se  Se4       1.0  0.30432093834116924  0.6956789184598886  0.6956790872563665  1.0000
  Se  Se5       1.0  0.30432101886772894  0.6956789785769777  0.3043210278174148  1.0000
  Se  Se6       1.0  0.6956789865779333  0.3043209612027479  0.6956790660149019  1.0000
