data_image0
_chemical_formula_structural       Cu2PbS6
_chemical_formula_sum              "Cu2 Pb1 S6"
_cell_length_a       6.499582100863111
_cell_length_b       6.49958211640429
_cell_length_c       6.49958198337548
_cell_angle_alpha    60.00000200035158
_cell_angle_beta     60.00000166378615
_cell_angle_gamma    60.00000129483774

_space_group_name_H-M_alt    "P 1"
_space_group_IT_number       1

loop_
  _space_group_symop_operation_xyz
  'x, y, z'

loop_
  _atom_site_type_symbol
  _atom_site_label
  _atom_site_symmetry_multiplicity
  _atom_site_fract_x
  _atom_site_fract_y
  _atom_site_fract_z
  _atom_site_occupancy
  Cu  Cu1       1.0  0.2500000703114408  0.24999999195732675  0.24999993927157768  1.0000
  Cu  Cu2       1.0  0.7499999890408084  0.7500000286336131  0.7500000177727084  1.0000
  Pb  Pb1       1.0  0.9999999697612189  6.40676957150786e-08  6.1639503560669625e-09  1.0000
  S   S1        1.0  0.2777205068362424  0.27772048379919007  0.7222794630206089  1.0000
  S   S2        1.0  0.7222795240199935  0.7222794783770854  0.277720437472584  1.0000
  S   S3        1.0  0.7222794934611766  0.2777204529829924  0.2777205138485875  1.0000
  S   S4        1.0  0.277720550603958  0.7222794375882131  0.7222795450817711  1.0000
  S   S5        1.0  0.27772050682513544  0.7222795759198816  0.27772048195008636  1.0000
  S   S6        1.0  0.7222793870714698  0.2777204880109707  0.7222795915402422  1.0000
