data_image0
_chemical_formula_structural       Cu2PO6
_chemical_formula_sum              "Cu2 P1 O6"
_cell_length_a       5.111856295430809
_cell_length_b       5.11185636284562
_cell_length_c       5.111856360488428
_cell_angle_alpha    60.000003831744685
_cell_angle_beta     60.00000381639431
_cell_angle_gamma    60.00000419448752

_space_group_name_H-M_alt    "P 1"
_space_group_IT_number       1

loop_
  _space_group_symop_operation_xyz
  'x, y, z'

loop_
  _atom_site_type_symbol
  _atom_site_label
  _atom_site_symmetry_multiplicity
  _atom_site_fract_x
  _atom_site_fract_y
  _atom_site_fract_z
  _atom_site_occupancy
  Cu  Cu1       1.0  0.2499998355916305  0.24999982880475796  0.2500002455703921  1.0000
  Cu  Cu2       1.0  0.7500003018880974  0.7499999608005951  0.7499996265959822  1.0000
  P   P1        1.0  3.107604876331923e-08  2.8750686210452102e-08  0.9999999544367423  1.0000
  O   O1        1.0  0.23326732828378477  0.2332672758590073  0.7667326631254738  1.0000
  O   O2        1.0  0.7667325624743141  0.766732698229917  0.2332674592584149  1.0000
  O   O3        1.0  0.7667326810273464  0.2332672843917004  0.2332673874149607  1.0000
  O   O4        1.0  0.23326732102984016  0.7667327759492855  0.7667326831430356  1.0000
  O   O5        1.0  0.23326727314127083  0.7667326344287494  0.23326739116769482  1.0000
  O   O6        1.0  0.7667326844236857  0.23326738997387772  0.7667327117806473  1.0000
