data_image0
_chemical_formula_structural       Cu2ReTe6
_chemical_formula_sum              "Cu2 Re1 Te6"
_cell_length_a       7.078392422819556
_cell_length_b       7.078392274850309
_cell_length_c       7.078392621766412
_cell_angle_alpha    60.000000283365715
_cell_angle_beta     60.00000006590128
_cell_angle_gamma    60.00000353239535

_space_group_name_H-M_alt    "P 1"
_space_group_IT_number       1

loop_
  _space_group_symop_operation_xyz
  'x, y, z'

loop_
  _atom_site_type_symbol
  _atom_site_label
  _atom_site_symmetry_multiplicity
  _atom_site_fract_x
  _atom_site_fract_y
  _atom_site_fract_z
  _atom_site_occupancy
  Cu  Cu1       1.0  0.2500000191611773  0.2499999530642979  0.24999996838318006  1.0000
  Cu  Cu2       1.0  0.7499999590426498  0.7500000028043509  0.7500001213190239  1.0000
  Re  Re1       1.0  0.9999999080702601  1.7302547122059271e-09  4.933799226980244e-08  1.0000
  Te  Te1       1.0  0.2636845866378522  0.26368450970429774  0.7363154389932695  1.0000
  Te  Te2       1.0  0.7363155232717714  0.7363155257562463  0.26368442638908085  1.0000
  Te  Te3       1.0  0.7363154567151698  0.263684594662005  0.2636845641519448  1.0000
  Te  Te4       1.0  0.26368458575124104  0.7363154131144007  0.7363153940020839  1.0000
  Te  Te5       1.0  0.26368462343036975  0.736315437562796  0.2636845724799741  1.0000
  Te  Te6       1.0  0.7363153285566719  0.2636845529110214  0.7363154890112866  1.0000
