data_image0
_chemical_formula_structural       Cu2ReS6
_chemical_formula_sum              "Cu2 Re1 S6"
_cell_length_a       6.226185542641557
_cell_length_b       6.226185771194494
_cell_length_c       6.2261858449280405
_cell_angle_alpha    59.99999710448881
_cell_angle_beta     59.99999800117912
_cell_angle_gamma    59.99999899856078

_space_group_name_H-M_alt    "P 1"
_space_group_IT_number       1

loop_
  _space_group_symop_operation_xyz
  'x, y, z'

loop_
  _atom_site_type_symbol
  _atom_site_label
  _atom_site_symmetry_multiplicity
  _atom_site_fract_x
  _atom_site_fract_y
  _atom_site_fract_z
  _atom_site_occupancy
  Cu  Cu1       1.0  0.2500000668896386  0.25000011554021734  0.2499998595514429  1.0000
  Cu  Cu2       1.0  0.7499998215521969  0.7499999984462532  0.7499999744222903  1.0000
  Re  Re1       1.0  7.942244328609695e-09  3.737465371166899e-08  0.9999999436130357  1.0000
  S   S1        1.0  0.26188164537929487  0.2618815553797155  0.7381184075513334  1.0000
  S   S2        1.0  0.7381184316905752  0.7381183599309643  0.26188162096841044  1.0000
  S   S3        1.0  0.7381183634420535  0.26188159812266815  0.26188168861391775  1.0000
  S   S4        1.0  0.26188169180346416  0.7381183270234448  0.7381184133573148  1.0000
  S   S5        1.0  0.26188163857615554  0.7381183477021396  0.2618816847205371  1.0000
  S   S6        1.0  0.7381183471110271  0.2618816915350188  0.7381183901659791  1.0000
