data_image0
_chemical_formula_structural       Cu2RuS6
_chemical_formula_sum              "Cu2 Ru1 S6"
_cell_length_a       6.086073104964154
_cell_length_b       6.086073126774746
_cell_length_c       6.086072937070269
_cell_angle_alpha    60.00000265255954
_cell_angle_beta     60.00000253370573
_cell_angle_gamma    60.00000267576439

_space_group_name_H-M_alt    "P 1"
_space_group_IT_number       1

loop_
  _space_group_symop_operation_xyz
  'x, y, z'

loop_
  _atom_site_type_symbol
  _atom_site_label
  _atom_site_symmetry_multiplicity
  _atom_site_fract_x
  _atom_site_fract_y
  _atom_site_fract_z
  _atom_site_occupancy
  Cu  Cu1       1.0  0.24999996394760068  0.2500000039902307  0.2499999796777833  1.0000
  Cu  Cu2       1.0  0.7500000275659784  0.7499999918469653  0.7499999255972093  1.0000
  Ru  Ru1       1.0  0.9999996586334198  5.232169332346073e-07  0.9999994950147206  1.0000
  S   S1        1.0  0.2650169573228162  0.2650169462404747  0.7349830781975768  1.0000
  S   S2        1.0  0.7349830501944037  0.734982973126555  0.2650170298357218  1.0000
  S   S3        1.0  0.7349830725694523  0.26501689566300357  0.26501705276643744  1.0000
  S   S4        1.0  0.26501698630925336  0.7349829834565702  0.7349830875010464  1.0000
  S   S5        1.0  0.26501709211019625  0.7349828650041165  0.26501717005710157  1.0000
  S   S6        1.0  0.7349832024756427  0.2650168249524141  0.7349831654700598  1.0000
