data_image0
_chemical_formula_structural       Cu2RhSe6
_chemical_formula_sum              "Cu2 Rh1 Se6"
_cell_length_a       6.328209518663773
_cell_length_b       6.328209505424801
_cell_length_c       6.328209597276834
_cell_angle_alpha    59.99999957536043
_cell_angle_beta     60.000000294059944
_cell_angle_gamma    59.999998383855406

_space_group_name_H-M_alt    "P 1"
_space_group_IT_number       1

loop_
  _space_group_symop_operation_xyz
  'x, y, z'

loop_
  _atom_site_type_symbol
  _atom_site_label
  _atom_site_symmetry_multiplicity
  _atom_site_fract_x
  _atom_site_fract_y
  _atom_site_fract_z
  _atom_site_occupancy
  Cu  Cu1       1.0  0.24999998109028754  0.2499999964754693  0.2500000112889238  1.0000
  Cu  Cu2       1.0  0.7499999666787348  0.7499999739434197  0.7500000299043297  1.0000
  Rh  Rh1       1.0  1.2997657133400696e-07  9.67686544349015e-09  0.9999998622235734  1.0000
  Se  Se1       1.0  0.2777967839565755  0.2777967346711057  0.7222032569351416  1.0000
  Se  Se2       1.0  0.7222031847157858  0.7222030964008926  0.2777967929126624  1.0000
  Se  Se3       1.0  0.7222032942146849  0.27779670668922146  0.27779672695192836  1.0000
  Se  Se4       1.0  0.2777966933464158  0.7222033140493773  0.7222033276537854  1.0000
  Se  Se5       1.0  0.27779671036423575  0.722203357531877  0.2777967102371397  1.0000
  Se  Se6       1.0  0.7222032679974616  0.2777967948121184  0.7222032958073835  1.0000
