data_image0
_chemical_formula_structural       Cu2ReO6
_chemical_formula_sum              "Cu2 Re1 O6"
_cell_length_a       5.471261856945867
_cell_length_b       5.471262355031501
_cell_length_c       5.471262935778922
_cell_angle_alpha    59.99999846308811
_cell_angle_beta     59.99999498689427
_cell_angle_gamma    60.00000617894666

_space_group_name_H-M_alt    "P 1"
_space_group_IT_number       1

loop_
  _space_group_symop_operation_xyz
  'x, y, z'

loop_
  _atom_site_type_symbol
  _atom_site_label
  _atom_site_symmetry_multiplicity
  _atom_site_fract_x
  _atom_site_fract_y
  _atom_site_fract_z
  _atom_site_occupancy
  Cu  Cu1       1.0  0.24999990272757447  0.249999733252763  0.2500003918562708  1.0000
  Cu  Cu2       1.0  0.7499999467364354  0.7500001555999474  0.74999964257258  1.0000
  Re  Re1       1.0  0.9999997617677099  2.0818095244522856e-07  0.9999999912651588  1.0000
  O   O1        1.0  0.24473911365205953  0.24473859398683906  0.7552611077027249  1.0000
  O   O2        1.0  0.7552610592059911  0.7552613060584208  0.24473883071436603  1.0000
  O   O3        1.0  0.7552611261429009  0.24473887900948596  0.24473876157240138  1.0000
  O   O4        1.0  0.2447388518629336  0.7552613523345088  0.7552611671088432  1.0000
  O   O5        1.0  0.24473875098669595  0.7552610998234008  0.2447389099903727  1.0000
  O   O6        1.0  0.7552613176274139  0.24473873306669958  0.7552610830548295  1.0000
