data_image0
_chemical_formula_structural       Cu2RuSe6
_chemical_formula_sum              "Cu2 Ru1 Se6"
_cell_length_a       6.331728825665152
_cell_length_b       6.33172861847877
_cell_length_c       6.33172865518247
_cell_angle_alpha    60.00000037605274
_cell_angle_beta     60.000001062645744
_cell_angle_gamma    59.99999653610789

_space_group_name_H-M_alt    "P 1"
_space_group_IT_number       1

loop_
  _space_group_symop_operation_xyz
  'x, y, z'

loop_
  _atom_site_type_symbol
  _atom_site_label
  _atom_site_symmetry_multiplicity
  _atom_site_fract_x
  _atom_site_fract_y
  _atom_site_fract_z
  _atom_site_occupancy
  Cu  Cu1       1.0  0.2500000353714517  0.24999997529194973  0.24999994590732308  1.0000
  Cu  Cu2       1.0  0.7500000517170453  0.7499999413502351  0.7500000877681704  1.0000
  Ru  Ru1       1.0  0.9999999359122181  7.73719151759444e-08  0.9999999728264157  1.0000
  Se  Se1       1.0  0.27393541357664536  0.27393555497160005  0.7260645732954336  1.0000
  Se  Se2       1.0  0.7260644517758218  0.726064545428886  0.2739354351471939  1.0000
  Se  Se3       1.0  0.7260644754098449  0.2739355696949354  0.2739354380910439  1.0000
  Se  Se4       1.0  0.273935599096224  0.7260644011075884  0.7260644721379051  1.0000
  Se  Se5       1.0  0.27393551956904894  0.7260644294398896  0.27393559014912455  1.0000
  Se  Se6       1.0  0.7260645094747915  0.2739355026766803  0.7260645027158454  1.0000
