data_image0
_chemical_formula_structural       Cu2RuO6
_chemical_formula_sum              "Cu2 Ru1 O6"
_cell_length_a       5.371132049860892
_cell_length_b       5.3711327246526395
_cell_length_c       5.371131744538894
_cell_angle_alpha    59.999997470896716
_cell_angle_beta     59.99999986109206
_cell_angle_gamma    59.999998110668976

_space_group_name_H-M_alt    "P 1"
_space_group_IT_number       1

loop_
  _space_group_symop_operation_xyz
  'x, y, z'

loop_
  _atom_site_type_symbol
  _atom_site_label
  _atom_site_symmetry_multiplicity
  _atom_site_fract_x
  _atom_site_fract_y
  _atom_site_fract_z
  _atom_site_occupancy
  Cu  Cu1       1.0  0.2500000565666656  0.25000029854910116  0.24999946317249638  1.0000
  Cu  Cu2       1.0  0.7500000145180357  0.7499998262166451  0.7499999457590114  1.0000
  Ru  Ru1       1.0  3.3376337205257926e-08  1.5961657911081367e-08  0.9999998803789453  1.0000
  O   O1        1.0  0.24339081649592575  0.24339095185542237  0.7566092463156063  1.0000
  O   O2        1.0  0.7566090945477993  0.7566090725798925  0.24339098725488328  1.0000
  O   O3        1.0  0.7566091863987172  0.24339089537771763  0.24339101769389285  1.0000
  O   O4        1.0  0.2433911964409766  0.7566087391372625  0.756609204727678  1.0000
  O   O5        1.0  0.24339079659111232  0.7566090928863465  0.2433911610637605  1.0000
  O   O6        1.0  0.7566087941245309  0.24339115729231245  0.7566092035803139  1.0000
