data_image0
_chemical_formula_structural       Cu2SnO6
_chemical_formula_sum              "Cu2 Sn1 O6"
_cell_length_a       5.341885433815554
_cell_length_b       5.341884857074771
_cell_length_c       5.341884801964418
_cell_angle_alpha    60.00000135740323
_cell_angle_beta     60.00000147781851
_cell_angle_gamma    59.99999799541434

_space_group_name_H-M_alt    "P 1"
_space_group_IT_number       1

loop_
  _space_group_symop_operation_xyz
  'x, y, z'

loop_
  _atom_site_type_symbol
  _atom_site_label
  _atom_site_symmetry_multiplicity
  _atom_site_fract_x
  _atom_site_fract_y
  _atom_site_fract_z
  _atom_site_occupancy
  Cu  Cu1       1.0  0.2500000457619903  0.24999988888314034  0.24999999611694407  1.0000
  Cu  Cu2       1.0  0.7500000090472364  0.7500000059720561  0.7500000606487385  1.0000
  Sn  Sn1       1.0  0.999999954538958  1.1692874500731941e-07  0.9999999829861347  1.0000
  O   O1        1.0  0.26878433573563737  0.2687843916774539  0.7312156461476409  1.0000
  O   O2        1.0  0.7312155158795703  0.7312157301570706  0.26878433882144254  1.0000
  O   O3        1.0  0.7312157480020082  0.268784293766923  0.26878433733241286  1.0000
  O   O4        1.0  0.2687843742101063  0.7312155804537874  0.7312156548651015  1.0000
  O   O5        1.0  0.2687843960853515  0.7312156396537693  0.2687843074802133  1.0000
  O   O6        1.0  0.7312156768670206  0.2687843239830396  0.7312156403031449  1.0000
