data_image0
_chemical_formula_structural       Cu2SiO6
_chemical_formula_sum              "Cu2 Si1 O6"
_cell_length_a       5.162019920950595
_cell_length_b       5.162020120384356
_cell_length_c       5.162020119445198
_cell_angle_alpha    60.00000084878582
_cell_angle_beta     60.00000021504451
_cell_angle_gamma    59.99999804464372

_space_group_name_H-M_alt    "P 1"
_space_group_IT_number       1

loop_
  _space_group_symop_operation_xyz
  'x, y, z'

loop_
  _atom_site_type_symbol
  _atom_site_label
  _atom_site_symmetry_multiplicity
  _atom_site_fract_x
  _atom_site_fract_y
  _atom_site_fract_z
  _atom_site_occupancy
  Cu  Cu1       1.0  0.25000001497956875  0.2500000627036663  0.25000000823300417  1.0000
  Cu  Cu2       1.0  0.7499999905782563  0.7499999888119531  0.749999946182794  1.0000
  Si  Si1       1.0  0.9999999988253365  0.999999983391746  0.9999999817702935  1.0000
  O   O1        1.0  0.2379338555700295  0.23793383646888414  0.7620661311563081  1.0000
  O   O2        1.0  0.7620660864508662  0.7620661842028376  0.23793392275500708  1.0000
  O   O3        1.0  0.7620661621626923  0.23793383389648803  0.23793389100800405  1.0000
  O   O4        1.0  0.23793378925950584  0.7620660847531021  0.762066160783073  1.0000
  O   O5        1.0  0.2379338847197894  0.7620660969264902  0.2379338898506664  1.0000
  O   O6        1.0  0.7620662458805171  0.23793388815610908  0.7620660023275588  1.0000
