data_image0
_chemical_formula_structural       Cu2SO6
_chemical_formula_sum              "Cu2 S1 O6"
_cell_length_a       5.123869578239918
_cell_length_b       5.123869806033045
_cell_length_c       5.123870364020011
_cell_angle_alpha    60.000000085885134
_cell_angle_beta     59.99999945445698
_cell_angle_gamma    60.000001743345834

_space_group_name_H-M_alt    "P 1"
_space_group_IT_number       1

loop_
  _space_group_symop_operation_xyz
  'x, y, z'

loop_
  _atom_site_type_symbol
  _atom_site_label
  _atom_site_symmetry_multiplicity
  _atom_site_fract_x
  _atom_site_fract_y
  _atom_site_fract_z
  _atom_site_occupancy
  Cu  Cu1       1.0  0.24999993794466144  0.25000000431093206  0.2500001181651584  1.0000
  Cu  Cu2       1.0  0.7499998737000297  0.7500001037631682  0.7499999024788812  1.0000
  S   S1        1.0  4.605179144915897e-08  0.9999999091696196  1.8485994140295826e-08  1.0000
  O   O1        1.0  0.22401242328683338  0.22401233291276326  0.7759876350246121  1.0000
  O   O2        1.0  0.7759876257601667  0.7759875767686668  0.2240124051476045  1.0000
  O   O3        1.0  0.7759875443781338  0.22401239484999244  0.22401234617164145  1.0000
  O   O4        1.0  0.22401248770643697  0.7759877347365679  0.7759875047049941  1.0000
  O   O5        1.0  0.22401243146938715  0.7759876183194799  0.22401236935977165  1.0000
  O   O6        1.0  0.7759876684997453  0.2240122602883988  0.7759876355167094  1.0000
