data_image0
_chemical_formula_structural       Cu2SnSe6
_chemical_formula_sum              "Cu2 Sn1 Se6"
_cell_length_a       6.632031934478681
_cell_length_b       6.6320318521294235
_cell_length_c       6.632031826610863
_cell_angle_alpha    60.000004323377034
_cell_angle_beta     59.999998141636716
_cell_angle_gamma    59.99999888510342

_space_group_name_H-M_alt    "P 1"
_space_group_IT_number       1

loop_
  _space_group_symop_operation_xyz
  'x, y, z'

loop_
  _atom_site_type_symbol
  _atom_site_label
  _atom_site_symmetry_multiplicity
  _atom_site_fract_x
  _atom_site_fract_y
  _atom_site_fract_z
  _atom_site_occupancy
  Cu  Cu1       1.0  0.2500000111533771  0.25000020954123797  0.24999995286794155  1.0000
  Cu  Cu2       1.0  0.7499998413845692  0.7500001706393062  0.7500000298347776  1.0000
  Sn  Sn1       1.0  1.762218778349288e-08  0.9999999889197381  1.1132438513635561e-07  1.0000
  Se  Se1       1.0  0.29197524494169036  0.2919748710557682  0.7080250188595143  1.0000
  Se  Se2       1.0  0.7080246621076531  0.70802493295084  0.2919751281731086  1.0000
  Se  Se3       1.0  0.7080250572212214  0.291975060470825  0.2919749351957584  1.0000
  Se  Se4       1.0  0.2919752142453096  0.7080247158351  0.7080250057827664  1.0000
  Se  Se5       1.0  0.29197509190330906  0.708024924962594  0.29197495959472325  1.0000
  Se  Se6       1.0  0.7080248596540047  0.29197513204345193  0.7080248532206781  1.0000
