data_image0
_chemical_formula_structural       Cu2SnS6
_chemical_formula_sum              "Cu2 Sn1 S6"
_cell_length_a       6.408834002310322
_cell_length_b       6.408834258395439
_cell_length_c       6.4088341846272625
_cell_angle_alpha    60.000001287055504
_cell_angle_beta     60.00000119170587
_cell_angle_gamma    60.00000047799346

_space_group_name_H-M_alt    "P 1"
_space_group_IT_number       1

loop_
  _space_group_symop_operation_xyz
  'x, y, z'

loop_
  _atom_site_type_symbol
  _atom_site_label
  _atom_site_symmetry_multiplicity
  _atom_site_fract_x
  _atom_site_fract_y
  _atom_site_fract_z
  _atom_site_occupancy
  Cu  Cu1       1.0  0.2500000569377599  0.24999996695355975  0.24999999499557385  1.0000
  Cu  Cu2       1.0  0.7499999652689656  0.7499999715686417  0.7500001335428963  1.0000
  Sn  Sn1       1.0  2.8518597040318023e-08  0.9999999847117925  1.66583232635222e-07  1.0000
  S   S1        1.0  0.2746002778650619  0.2746002110834697  0.7253997548692377  1.0000
  S   S2        1.0  0.7253997292532846  0.7253997943246393  0.27460005754607697  1.0000
  S   S3        1.0  0.7253997796166205  0.2746001805024924  0.27460023957084756  1.0000
  S   S4        1.0  0.27460038882403776  0.725399616603787  0.7253997305239996  1.0000
  S   S5        1.0  0.2746002240605752  0.7253998602166527  0.27460015302885943  1.0000
  S   S6        1.0  0.72539956478882  0.2746004108240653  0.7253997589719738  1.0000
