data_image0
_chemical_formula_structural       Cu2ScS6
_chemical_formula_sum              "Cu2 Sc1 S6"
_cell_length_a       6.3671000126810045
_cell_length_b       6.367100191702043
_cell_length_c       6.367100072828208
_cell_angle_alpha    60.00000005323809
_cell_angle_beta     59.9999982141182
_cell_angle_gamma    59.99999905848195

_space_group_name_H-M_alt    "P 1"
_space_group_IT_number       1

loop_
  _space_group_symop_operation_xyz
  'x, y, z'

loop_
  _atom_site_type_symbol
  _atom_site_label
  _atom_site_symmetry_multiplicity
  _atom_site_fract_x
  _atom_site_fract_y
  _atom_site_fract_z
  _atom_site_occupancy
  Cu  Cu1       1.0  0.24999999332170805  0.24999992386110015  0.2500000428334307  1.0000
  Cu  Cu2       1.0  0.749999928723786  0.7500000177979649  0.7500000781308399  1.0000
  Sc  Sc1       1.0  0.9999999612933014  0.9999999692231676  0.9999999954774234  1.0000
  S   S1        1.0  0.27138621683249486  0.2713861577086433  0.7286138395172819  1.0000
  S   S2        1.0  0.7286138236778144  0.7286138801280232  0.27138612229684583  1.0000
  S   S3        1.0  0.7286138219434769  0.2713862443431733  0.27138615912531183  1.0000
  S   S4        1.0  0.27138617405172727  0.7286138454293993  0.7286138209664478  1.0000
  S   S5        1.0  0.2713862417517374  0.7286138150321353  0.27138615288269036  1.0000
  S   S6        1.0  0.7286138407278154  0.27138614586244825  0.7286137934358091  1.0000
