data_image0
_chemical_formula_structural       Cu2ScTe6
_chemical_formula_sum              "Cu2 Sc1 Te6"
_cell_length_a       7.2962055327016495
_cell_length_b       7.296205464982651
_cell_length_c       7.296205454105188
_cell_angle_alpha    60.00000147417195
_cell_angle_beta     60.00000035304258
_cell_angle_gamma    59.999999195932325

_space_group_name_H-M_alt    "P 1"
_space_group_IT_number       1

loop_
  _space_group_symop_operation_xyz
  'x, y, z'

loop_
  _atom_site_type_symbol
  _atom_site_label
  _atom_site_symmetry_multiplicity
  _atom_site_fract_x
  _atom_site_fract_y
  _atom_site_fract_z
  _atom_site_occupancy
  Cu  Cu1       1.0  0.24999989788936794  0.25000007140685554  0.2500000568178145  1.0000
  Cu  Cu2       1.0  0.7500000434594004  0.7499999909660658  0.750000075661808  1.0000
  Sc  Sc1       1.0  3.8539207684837204e-08  1.645033088626729e-07  0.9999997573094732  1.0000
  Te  Te1       1.0  0.2735119202095885  0.2735119214079211  0.7264880706024416  1.0000
  Te  Te2       1.0  0.7264880711298076  0.7264879814974998  0.27351189595297004  1.0000
  Te  Te3       1.0  0.7264881310199761  0.2735119472483078  0.2735118811177289  1.0000
  Te  Te4       1.0  0.27351177456796105  0.7264881369464813  0.726488199396632  1.0000
  Te  Te5       1.0  0.27351199934276005  0.7264879516919701  0.2735119345472736  1.0000
  Te  Te6       1.0  0.7264881188628589  0.27351182699666376  0.7264881156590961  1.0000
