data_image0
_chemical_formula_structural       Cu2SeO6
_chemical_formula_sum              "Cu2 Se1 O6"
_cell_length_a       5.209942916319353
_cell_length_b       5.209942977305395
_cell_length_c       5.20994269079549
_cell_angle_alpha    60.00000071768405
_cell_angle_beta     60.00000035289993
_cell_angle_gamma    60.00000004021325

_space_group_name_H-M_alt    "P 1"
_space_group_IT_number       1

loop_
  _space_group_symop_operation_xyz
  'x, y, z'

loop_
  _atom_site_type_symbol
  _atom_site_label
  _atom_site_symmetry_multiplicity
  _atom_site_fract_x
  _atom_site_fract_y
  _atom_site_fract_z
  _atom_site_occupancy
  Cu  Cu1       1.0  0.24999991285773407  0.24999969694622365  0.25000034349475625  1.0000
  Cu  Cu2       1.0  0.7499996731928086  0.7499996526759577  0.7500007438676797  1.0000
  Se  Se1       1.0  0.9999979838502175  0.9999971720073045  3.6005871215142566e-06  1.0000
  O   O1        1.0  0.2547472911156674  0.25474715430577083  0.7452525905949337  1.0000
  O   O2        1.0  0.7452536517528232  0.7452539560533449  0.25474582473402774  1.0000
  O   O3        1.0  0.7452536607179394  0.2547474094281903  0.25474589510094237  1.0000
  O   O4        1.0  0.25474708688591247  0.7452538678365643  0.745252474905905  1.0000
  O   O5        1.0  0.25474726900429373  0.7452537497205385  0.2547457633370466  1.0000
  O   O6        1.0  0.7452536007711085  0.2547472807119351  0.7452526478866911  1.0000
