data_image0
_chemical_formula_structural       Cu2SnTe6
_chemical_formula_sum              "Cu2 Sn1 Te6"
_cell_length_a       7.33991579532709
_cell_length_b       7.339915937209274
_cell_length_c       7.339915965499843
_cell_angle_alpha    59.999999386603704
_cell_angle_beta     59.99999895983037
_cell_angle_gamma    60.00000029562193

_space_group_name_H-M_alt    "P 1"
_space_group_IT_number       1

loop_
  _space_group_symop_operation_xyz
  'x, y, z'

loop_
  _atom_site_type_symbol
  _atom_site_label
  _atom_site_symmetry_multiplicity
  _atom_site_fract_x
  _atom_site_fract_y
  _atom_site_fract_z
  _atom_site_occupancy
  Cu  Cu1       1.0  0.25000004080385596  0.2500000383495116  0.24999995861439006  1.0000
  Cu  Cu2       1.0  0.7499999663996835  0.7499999365073863  0.7500000826296768  1.0000
  Sn  Sn1       1.0  5.06116610668715e-08  1.3348871429757194e-08  0.9999998958118225  1.0000
  Te  Te1       1.0  0.27905054021736114  0.27905051643814416  0.7209494802213102  1.0000
  Te  Te2       1.0  0.7209494780938644  0.7209494534129276  0.2790505062001168  1.0000
  Te  Te3       1.0  0.7209493962612993  0.2790505897927654  0.2790505067919007  1.0000
  Te  Te4       1.0  0.27905052789632245  0.7209494501398775  0.7209495420748391  1.0000
  Te  Te5       1.0  0.2790505763007221  0.7209494454432778  0.2790504977735996  1.0000
  Te  Te6       1.0  0.7209494219081409  0.27905056111718846  0.7209495362032614  1.0000
