data_image0
_chemical_formula_structural       Cu2SnS6
_chemical_formula_sum              "Cu2 Sn1 S6"
_cell_length_a       6.409272593492363
_cell_length_b       6.409272833669999
_cell_length_c       6.409272674513658
_cell_angle_alpha    60.00000214660516
_cell_angle_beta     60.00000151862996
_cell_angle_gamma    60.00000156432827

_space_group_name_H-M_alt    "P 1"
_space_group_IT_number       1

loop_
  _space_group_symop_operation_xyz
  'x, y, z'

loop_
  _atom_site_type_symbol
  _atom_site_label
  _atom_site_symmetry_multiplicity
  _atom_site_fract_x
  _atom_site_fract_y
  _atom_site_fract_z
  _atom_site_occupancy
  Cu  Cu1       1.0  0.24999996401379748  0.24999991442785094  0.25000010325574995  1.0000
  Cu  Cu2       1.0  0.7500001046248578  0.7500001216407904  0.7499997506164402  1.0000
  Sn  Sn1       1.0  2.3511457331858282e-08  2.675253226092736e-08  1.3920762731568702e-09  1.0000
  S   S1        1.0  0.27456695445122303  0.2745669270586785  0.7254330294240025  1.0000
  S   S2        1.0  0.7254330286937614  0.7254330574157958  0.2745671036244291  1.0000
  S   S3        1.0  0.7254330496937341  0.274566892795824  0.27456701128059186  1.0000
  S   S4        1.0  0.27456691583479764  0.7254331337183424  0.7254329457310791  1.0000
  S   S5        1.0  0.27456682768602086  0.7254330690963658  0.2745670523331857  1.0000
  S   S6        1.0  0.7254331340769716  0.27456687142751884  0.7254329901226203  1.0000
