data_image0
_chemical_formula_structural       Cu2SeO6
_chemical_formula_sum              "Cu2 Se1 O6"
_cell_length_a       5.207712538081538
_cell_length_b       5.207711967672014
_cell_length_c       5.207711937253846
_cell_angle_alpha    59.99999819352504
_cell_angle_beta     60.00000085784464
_cell_angle_gamma    59.99999762182422

_space_group_name_H-M_alt    "P 1"
_space_group_IT_number       1

loop_
  _space_group_symop_operation_xyz
  'x, y, z'

loop_
  _atom_site_type_symbol
  _atom_site_label
  _atom_site_symmetry_multiplicity
  _atom_site_fract_x
  _atom_site_fract_y
  _atom_site_fract_z
  _atom_site_occupancy
  Cu  Cu1       1.0  0.2500001658641885  0.249999990730948  0.24999955159484907  1.0000
  Cu  Cu2       1.0  0.7499997721967226  0.7500003390721941  0.750000091792864  1.0000
  Se  Se1       1.0  7.294774759369694e-08  0.999999934149878  0.9999982125583537  1.0000
  O   O1        1.0  0.25498234224362193  0.2549820539220692  0.7450179772316043  1.0000
  O   O2        1.0  0.7450178962814393  0.7450176738226197  0.25498242758611583  1.0000
  O   O3        1.0  0.7450176883374525  0.2549822530119025  0.25498255918705814  1.0000
  O   O4        1.0  0.2549822191119351  0.7450177828173766  0.745018289177754  1.0000
  O   O5        1.0  0.25498218955480934  0.7450180683105055  0.25498267523282775  1.0000
  O   O6        1.0  0.7450176369730716  0.25498206394219597  0.7450182153069835  1.0000
