data_image0
_chemical_formula_structural       Cu2SeS6
_chemical_formula_sum              "Cu2 Se1 S6"
_cell_length_a       6.349988349900322
_cell_length_b       6.349988268235593
_cell_length_c       6.349988041942504
_cell_angle_alpha    60.00000151845807
_cell_angle_beta     60.00000089387388
_cell_angle_gamma    59.999998000918275

_space_group_name_H-M_alt    "P 1"
_space_group_IT_number       1

loop_
  _space_group_symop_operation_xyz
  'x, y, z'

loop_
  _atom_site_type_symbol
  _atom_site_label
  _atom_site_symmetry_multiplicity
  _atom_site_fract_x
  _atom_site_fract_y
  _atom_site_fract_z
  _atom_site_occupancy
  Cu  Cu1       1.0  0.24999994040427143  0.24999997961096607  0.2500000706349633  1.0000
  Cu  Cu2       1.0  0.7499999517898838  0.7499999889800208  0.7500001420152727  1.0000
  Se  Se1       1.0  4.591764013670139e-09  1.3501148848842275e-08  0.9999999200872683  1.0000
  S   S1        1.0  0.24389831109206292  0.2438982311488899  0.7561017152916796  1.0000
  S   S2        1.0  0.7561017101916542  0.7561017702305973  0.2438981786238016  1.0000
  S   S3        1.0  0.7561018339680972  0.2438982389030461  0.24389811219032204  1.0000
  S   S4        1.0  0.24389815164346995  0.7561018531270177  0.7561018518739255  1.0000
  S   S5        1.0  0.2438982159202107  0.7561018131341601  0.2438981287144362  1.0000
  S   S6        1.0  0.7561018918413709  0.24389810338095705  0.7561018588826639  1.0000
