data_image0
_chemical_formula_structural       Cu2SnO6
_chemical_formula_sum              "Cu2 Sn1 O6"
_cell_length_a       5.340756163442455
_cell_length_b       5.340755834646496
_cell_length_c       5.340756203404894
_cell_angle_alpha    59.999997677955314
_cell_angle_beta     59.99999832657217
_cell_angle_gamma    59.99999735071404

_space_group_name_H-M_alt    "P 1"
_space_group_IT_number       1

loop_
  _space_group_symop_operation_xyz
  'x, y, z'

loop_
  _atom_site_type_symbol
  _atom_site_label
  _atom_site_symmetry_multiplicity
  _atom_site_fract_x
  _atom_site_fract_y
  _atom_site_fract_z
  _atom_site_occupancy
  Cu  Cu1       1.0  0.25000017554852316  0.24999991844965777  0.2499998637861163  1.0000
  Cu  Cu2       1.0  0.750000085537582  0.7500000603452702  0.7500001761949497  1.0000
  Sn  Sn1       1.0  9.401754830169869e-08  0.9999999449630744  0.9999999168482908  1.0000
  O   O1        1.0  0.26876236965779104  0.26876240766405624  0.7312376526655222  1.0000
  O   O2        1.0  0.7312376509606785  0.7312375206803562  0.2687622519155184  1.0000
  O   O3        1.0  0.731237537149928  0.26876231378764814  0.26876246531114206  1.0000
  O   O4        1.0  0.26876221941309203  0.7312376673004856  0.7312377302927738  1.0000
  O   O5        1.0  0.26876233070570155  0.7312379241401082  0.26876218582257716  1.0000
  O   O6        1.0  0.7312375497463097  0.2687622495772626  0.7312377784988561  1.0000
