data_image0
_chemical_formula_structural       Cu2ScO6
_chemical_formula_sum              "Cu2 Sc1 O6"
_cell_length_a       5.287477078473748
_cell_length_b       5.2874764943609085
_cell_length_c       5.287476713854123
_cell_angle_alpha    60.00000356274122
_cell_angle_beta     60.00000207405287
_cell_angle_gamma    60.00000212524985

_space_group_name_H-M_alt    "P 1"
_space_group_IT_number       1

loop_
  _space_group_symop_operation_xyz
  'x, y, z'

loop_
  _atom_site_type_symbol
  _atom_site_label
  _atom_site_symmetry_multiplicity
  _atom_site_fract_x
  _atom_site_fract_y
  _atom_site_fract_z
  _atom_site_occupancy
  Cu  Cu1       1.0  0.24999972563471637  0.25000018568732557  0.2499999574003985  1.0000
  Cu  Cu2       1.0  0.7499999601196763  0.7499999108107412  0.7499990812572137  1.0000
  Sc  Sc1       1.0  2.9604905909403056e-08  0.9999998980822364  0.9999998508128192  1.0000
  O   O1        1.0  0.27111035167543196  0.2711103577354694  0.7288895937342855  1.0000
  O   O2        1.0  0.7288897794310342  0.7288895557739972  0.27111080405547455  1.0000
  O   O3        1.0  0.7288897807577797  0.2711101967123808  0.2711105991865561  1.0000
  O   O4        1.0  0.2711106098964429  0.7288896195119623  0.7288897099068383  1.0000
  O   O5        1.0  0.2711101965068822  0.7288895587939487  0.2711106429576633  1.0000
  O   O6        1.0  0.7288895705982827  0.2711106998460835  0.7288897358985589  1.0000
