data_image0
_chemical_formula_structural       Cu2SO6
_chemical_formula_sum              "Cu2 S1 O6"
_cell_length_a       5.1240232386782765
_cell_length_b       5.124023677597915
_cell_length_c       5.124023254389368
_cell_angle_alpha    59.99999818570573
_cell_angle_beta     59.99999853439655
_cell_angle_gamma    59.999997073308336

_space_group_name_H-M_alt    "P 1"
_space_group_IT_number       1

loop_
  _space_group_symop_operation_xyz
  'x, y, z'

loop_
  _atom_site_type_symbol
  _atom_site_label
  _atom_site_symmetry_multiplicity
  _atom_site_fract_x
  _atom_site_fract_y
  _atom_site_fract_z
  _atom_site_occupancy
  Cu  Cu1       1.0  0.2500000751662582  0.2500000365176781  0.2499999023126668  1.0000
  Cu  Cu2       1.0  0.7499999691930446  0.7499999996037717  0.7499999739839358  1.0000
  S   S1        1.0  0.9999999246774898  5.019423355098977e-08  1.6467320289013568e-08  1.0000
  O   O1        1.0  0.2240245666807975  0.22402468615513063  0.7759753939437981  1.0000
  O   O2        1.0  0.7759754347252358  0.7759753571369205  0.22402460367848612  1.0000
  O   O3        1.0  0.7759753141354948  0.22402471483628028  0.22402461135619142  1.0000
  O   O4        1.0  0.22402470475177663  0.7759753571381872  0.7759753768454044  1.0000
  O   O5        1.0  0.22402456158435816  0.7759753564480908  0.22402477064691478  1.0000
  O   O6        1.0  0.7759754202470848  0.22402461035751114  0.7759753335536355  1.0000
