data_image0
_chemical_formula_structural       Cu2SiSe6
_chemical_formula_sum              "Cu2 Si1 Se6"
_cell_length_a       6.296239105319377
_cell_length_b       6.296239592793966
_cell_length_c       6.296239124969977
_cell_angle_alpha    60.00000161976852
_cell_angle_beta     60.000001279145565
_cell_angle_gamma    60.00000175354448

_space_group_name_H-M_alt    "P 1"
_space_group_IT_number       1

loop_
  _space_group_symop_operation_xyz
  'x, y, z'

loop_
  _atom_site_type_symbol
  _atom_site_label
  _atom_site_symmetry_multiplicity
  _atom_site_fract_x
  _atom_site_fract_y
  _atom_site_fract_z
  _atom_site_occupancy
  Cu  Cu1       1.0  0.25000021531686595  0.2500002485550729  0.2499997512269191  1.0000
  Cu  Cu2       1.0  0.7499999554916338  0.7499998625441942  0.7500001135302371  1.0000
  Si  Si1       1.0  0.99999998242012  0.9999999922191981  1.109209107540025e-08  1.0000
  Se  Se1       1.0  0.28073911756338354  0.2807390871374171  0.7192609218387399  1.0000
  Se  Se2       1.0  0.719260893046095  0.7192608333322007  0.2807391929804875  1.0000
  Se  Se3       1.0  0.7192608022938018  0.2807392140693999  0.2807390407247808  1.0000
  Se  Se4       1.0  0.2807390864387968  0.7192608464546568  0.7192609315926889  1.0000
  Se  Se5       1.0  0.2807391538339945  0.7192607965010311  0.2807390933800537  1.0000
  Se  Se6       1.0  0.7192607779155121  0.2807391239685887  0.719260952868177  1.0000
