data_image0
_chemical_formula_structural       Cu2SeS6
_chemical_formula_sum              "Cu2 Se1 S6"
_cell_length_a       6.349338795424968
_cell_length_b       6.3493389015560915
_cell_length_c       6.349338848558741
_cell_angle_alpha    60.00000059364983
_cell_angle_beta     60.000000461349096
_cell_angle_gamma    60.0000012193055

_space_group_name_H-M_alt    "P 1"
_space_group_IT_number       1

loop_
  _space_group_symop_operation_xyz
  'x, y, z'

loop_
  _atom_site_type_symbol
  _atom_site_label
  _atom_site_symmetry_multiplicity
  _atom_site_fract_x
  _atom_site_fract_y
  _atom_site_fract_z
  _atom_site_occupancy
  Cu  Cu1       1.0  0.24999992775944602  0.25000001946869854  0.24999997100775495  1.0000
  Cu  Cu2       1.0  0.7500000037531455  0.7500000680507616  0.7499999995593224  1.0000
  Se  Se1       1.0  0.9999999742273586  0.9999999845685367  0.9999999450036298  1.0000
  S   S1        1.0  0.24393899564379937  0.24393895586666295  0.756060913020402  1.0000
  S   S2        1.0  0.7560611183576257  0.7560609715513689  0.24393878963333082  1.0000
  S   S3        1.0  0.756061086772818  0.24393897439469342  0.24393904451692175  1.0000
  S   S4        1.0  0.2439389434430577  0.7560609916019959  0.7560611815798047  1.0000
  S   S5        1.0  0.2439389830689401  0.7560610413392822  0.2439390927678937  1.0000
  S   S6        1.0  0.7560609552043813  0.24393900953045325  0.7560610722899342  1.0000
