data_image0
_chemical_formula_structural       Cu2SiTe6
_chemical_formula_sum              "Cu2 Si1 Te6"
_cell_length_a       7.0553064598158315
_cell_length_b       7.055305711455435
_cell_length_c       7.055305909422921
_cell_angle_alpha    59.99999803873366
_cell_angle_beta     60.000000359608485
_cell_angle_gamma    59.999999457372674

_space_group_name_H-M_alt    "P 1"
_space_group_IT_number       1

loop_
  _space_group_symop_operation_xyz
  'x, y, z'

loop_
  _atom_site_type_symbol
  _atom_site_label
  _atom_site_symmetry_multiplicity
  _atom_site_fract_x
  _atom_site_fract_y
  _atom_site_fract_z
  _atom_site_occupancy
  Cu  Cu1       1.0  0.25000005924039703  0.24999980518061055  0.2500001290074923  1.0000
  Cu  Cu2       1.0  0.7499997572513313  0.7500004952843051  0.7500000687251526  1.0000
  Si  Si1       1.0  0.999999954588195  0.9999999496583073  1.3575387512725334e-07  1.0000
  Te  Te1       1.0  0.26496196006127726  0.2649614535039922  0.7350383363911478  1.0000
  Te  Te2       1.0  0.7350381796318276  0.7350384910972521  0.2649614992340546  1.0000
  Te  Te3       1.0  0.7350382716971876  0.26496152119714034  0.26496180438437533  1.0000
  Te  Te4       1.0  0.2649616985283599  0.7350384702739504  0.7350381789994372  1.0000
  Te  Te5       1.0  0.2649618360392695  0.7350383937175383  0.2649615122177983  1.0000
  Te  Te6       1.0  0.7350382859174788  0.26496142242559695  0.735038331305481  1.0000
