data_image0
_chemical_formula_structural       Cu2ScSe6
_chemical_formula_sum              "Cu2 Sc1 Se6"
_cell_length_a       6.512731399032665
_cell_length_b       6.512730924459322
_cell_length_c       6.512731008672322
_cell_angle_alpha    59.999998918154574
_cell_angle_beta     59.9999970596382
_cell_angle_gamma    59.99999498725475

_space_group_name_H-M_alt    "P 1"
_space_group_IT_number       1

loop_
  _space_group_symop_operation_xyz
  'x, y, z'

loop_
  _atom_site_type_symbol
  _atom_site_label
  _atom_site_symmetry_multiplicity
  _atom_site_fract_x
  _atom_site_fract_y
  _atom_site_fract_z
  _atom_site_occupancy
  Cu  Cu1       1.0  0.2500000459076081  0.2499999703362926  0.2500000129193624  1.0000
  Cu  Cu2       1.0  0.7499999777941904  0.7499999918720898  0.7500000736844413  1.0000
  Sc  Sc1       1.0  0.9999999339691896  2.2566476365272984e-08  0.9999998328713061  1.0000
  Se  Se1       1.0  0.28137926335988617  0.28137968903192345  0.7186206365196881  1.0000
  Se  Se2       1.0  0.7186206958441634  0.7186207113422136  0.28137949356823894  1.0000
  Se  Se3       1.0  0.718620595327075  0.2813793268043457  0.28137927600585905  1.0000
  Se  Se4       1.0  0.2813794436004273  0.7186204567527612  0.7186205652589924  1.0000
  Se  Se5       1.0  0.28137940932580524  0.7186204969938484  0.28137935636565864  1.0000
  Se  Se6       1.0  0.7186206405253613  0.2813793335767538  0.718620755344176  1.0000
