data_image0
_chemical_formula_structural       Cu2TiO6
_chemical_formula_sum              "Cu2 Ti1 O6"
_cell_length_a       5.290337428305658
_cell_length_b       5.2903372641782225
_cell_length_c       5.290337447440022
_cell_angle_alpha    60.00000096370368
_cell_angle_beta     59.999999341203356
_cell_angle_gamma    59.99999729105033

_space_group_name_H-M_alt    "P 1"
_space_group_IT_number       1

loop_
  _space_group_symop_operation_xyz
  'x, y, z'

loop_
  _atom_site_type_symbol
  _atom_site_label
  _atom_site_symmetry_multiplicity
  _atom_site_fract_x
  _atom_site_fract_y
  _atom_site_fract_z
  _atom_site_occupancy
  Cu  Cu1       1.0  0.25000009754260316  0.24999970009541034  0.24999977076301652  1.0000
  Cu  Cu2       1.0  0.7499995914034168  0.7500001235428418  0.7500000982824934  1.0000
  Ti  Ti1       1.0  2.3105167053342983e-08  9.260240871162681e-09  2.729278367309653e-08  1.0000
  O   O1        1.0  0.25376626573525085  0.2537662393540051  0.7462338152192728  1.0000
  O   O2        1.0  0.7462337322631462  0.7462337833794169  0.2537661891416152  1.0000
  O   O3        1.0  0.7462339112658142  0.25376613528574743  0.2537663016394298  1.0000
  O   O4        1.0  0.2537664274961784  0.7462336443663592  0.7462338561358421  1.0000
  O   O5        1.0  0.2537663862089598  0.7462339857898278  0.2537661185302382  1.0000
  O   O6        1.0  0.7462336181783913  0.25376631243574777  0.7462337902558265  1.0000
