data_image0
_chemical_formula_structural       Cu2TiSe6
_chemical_formula_sum              "Cu2 Ti1 Se6"
_cell_length_a       6.424250687767504
_cell_length_b       6.424250740299118
_cell_length_c       6.424250237039105
_cell_angle_alpha    60.000000271785304
_cell_angle_beta     60.00000038310582
_cell_angle_gamma    60.00000062313802

_space_group_name_H-M_alt    "P 1"
_space_group_IT_number       1

loop_
  _space_group_symop_operation_xyz
  'x, y, z'

loop_
  _atom_site_type_symbol
  _atom_site_label
  _atom_site_symmetry_multiplicity
  _atom_site_fract_x
  _atom_site_fract_y
  _atom_site_fract_z
  _atom_site_occupancy
  Cu  Cu1       1.0  0.25000006764149546  0.24999998612644775  0.24999998865171083  1.0000
  Cu  Cu2       1.0  0.7500000374164252  0.7500000289176252  0.7499999075910954  1.0000
  Ti  Ti1       1.0  0.9999999976574355  2.8596600019567308e-08  0.9999999946559912  1.0000
  Se  Se1       1.0  0.27106558398363373  0.2710655020865519  0.7289344424778145  1.0000
  Se  Se2       1.0  0.7289344014111087  0.7289344729222801  0.2710655460670192  1.0000
  Se  Se3       1.0  0.7289344343425483  0.27106540879090896  0.2710656717897821  1.0000
  Se  Se4       1.0  0.27106555650053993  0.7289344689894821  0.7289343891073325  1.0000
  Se  Se5       1.0  0.27106548767092586  0.728934508179737  0.27106560967598053  1.0000
  Se  Se6       1.0  0.728934438860944  0.2710656002798938  0.728934436527603  1.0000
