data_image0
_chemical_formula_structural       Cu2TeS6
_chemical_formula_sum              "Cu2 Te1 S6"
_cell_length_a       6.607756178695379
_cell_length_b       6.607756201752224
_cell_length_c       6.607756265941199
_cell_angle_alpha    59.99999673085819
_cell_angle_beta     59.99999892908823
_cell_angle_gamma    59.99999792872299

_space_group_name_H-M_alt    "P 1"
_space_group_IT_number       1

loop_
  _space_group_symop_operation_xyz
  'x, y, z'

loop_
  _atom_site_type_symbol
  _atom_site_label
  _atom_site_symmetry_multiplicity
  _atom_site_fract_x
  _atom_site_fract_y
  _atom_site_fract_z
  _atom_site_occupancy
  Cu  Cu1       1.0  0.25000002010973504  0.24999997295616752  0.2500000250039467  1.0000
  Cu  Cu2       1.0  0.7499999683117367  0.7499999485244447  0.7499998791866511  1.0000
  Te  Te1       1.0  2.067008998896917e-08  0.999999985172032  1.5239415374645923e-08  1.0000
  S   S1        1.0  0.252609462616366  0.25260950917025665  0.7473905109094151  1.0000
  S   S2        1.0  0.7473905300057399  0.7473904364057945  0.25260963791993074  1.0000
  S   S3        1.0  0.7473904355357003  0.2526094965374683  0.25260945825146436  1.0000
  S   S4        1.0  0.25260951662750425  0.7473905546878555  0.7473904975651546  1.0000
  S   S5        1.0  0.2526094212260687  0.7473905830107889  0.25260946951294666  1.0000
  S   S6        1.0  0.7473906037836245  0.2526095275264008  0.7473905246472311  1.0000
