data_image0
_chemical_formula_structural       Cu2TaS6
_chemical_formula_sum              "Cu2 Ta1 S6"
_cell_length_a       6.219786470527988
_cell_length_b       6.219786905806779
_cell_length_c       6.219786833226998
_cell_angle_alpha    59.99999727451843
_cell_angle_beta     59.99999831452764
_cell_angle_gamma    59.99999847381512

_space_group_name_H-M_alt    "P 1"
_space_group_IT_number       1

loop_
  _space_group_symop_operation_xyz
  'x, y, z'

loop_
  _atom_site_type_symbol
  _atom_site_label
  _atom_site_symmetry_multiplicity
  _atom_site_fract_x
  _atom_site_fract_y
  _atom_site_fract_z
  _atom_site_occupancy
  Cu  Cu1       1.0  0.2500001432789944  0.24999985780490921  0.25000000905381475  1.0000
  Cu  Cu2       1.0  0.7499999746317894  0.7500000144955367  0.7499999007785376  1.0000
  Ta  Ta1       1.0  3.799218947867123e-08  1.9691106763900897e-08  0.9999999679428072  1.0000
  S   S1        1.0  0.2693252724980308  0.26932525318064143  0.7306747195499051  1.0000
  S   S2        1.0  0.730674697678108  0.7306747727104375  0.26932530632958807  1.0000
  S   S3        1.0  0.7306746809090761  0.2693252915340422  0.2693252940936293  1.0000
  S   S4        1.0  0.26932532746516125  0.7306747757083614  0.7306746807567461  1.0000
  S   S5        1.0  0.2693252065653615  0.7306747451472836  0.26932531848542884  1.0000
  S   S6        1.0  0.7306746573593944  0.26932527089824126  0.7306748104601527  1.0000
