data_image0
_chemical_formula_structural       Cu2TiTe6
_chemical_formula_sum              "Cu2 Ti1 Te6"
_cell_length_a       7.079185827285589
_cell_length_b       7.079185526761043
_cell_length_c       7.079185931863362
_cell_angle_alpha    60.00000193515291
_cell_angle_beta     60.000001945055885
_cell_angle_gamma    60.00000243046235

_space_group_name_H-M_alt    "P 1"
_space_group_IT_number       1

loop_
  _space_group_symop_operation_xyz
  'x, y, z'

loop_
  _atom_site_type_symbol
  _atom_site_label
  _atom_site_symmetry_multiplicity
  _atom_site_fract_x
  _atom_site_fract_y
  _atom_site_fract_z
  _atom_site_occupancy
  Cu  Cu1       1.0  0.2499999875443381  0.24999966157582032  0.2500002669507179  1.0000
  Cu  Cu2       1.0  0.7500001104538419  0.7500000435270088  0.7500000195554327  1.0000
  Ti  Ti1       1.0  0.9999999778229673  2.24908344954818e-08  0.9999998486957767  1.0000
  Te  Te1       1.0  0.26673660366936425  0.2667364435837237  0.7332635155724995  1.0000
  Te  Te2       1.0  0.7332632401310738  0.7332636473235076  0.2667365921229834  1.0000
  Te  Te3       1.0  0.7332634241070324  0.26673657163648257  0.266736457753013  1.0000
  Te  Te4       1.0  0.2667364174996586  0.7332636628661063  0.7332633941921427  1.0000
  Te  Te5       1.0  0.2667365652310376  0.7332635621376815  0.2667364759618682  1.0000
  Te  Te6       1.0  0.7332636750165591  0.26673638171406205  0.7332634251074577  1.0000
