data_image0
_chemical_formula_structural       Cu2TaO6
_chemical_formula_sum              "Cu2 Ta1 O6"
_cell_length_a       5.329379604500852
_cell_length_b       5.329379211162939
_cell_length_c       5.329378842054496
_cell_angle_alpha    60.00000387497033
_cell_angle_beta     60.000001141528
_cell_angle_gamma    60.00000185978792

_space_group_name_H-M_alt    "P 1"
_space_group_IT_number       1

loop_
  _space_group_symop_operation_xyz
  'x, y, z'

loop_
  _atom_site_type_symbol
  _atom_site_label
  _atom_site_symmetry_multiplicity
  _atom_site_fract_x
  _atom_site_fract_y
  _atom_site_fract_z
  _atom_site_occupancy
  Cu  Cu1       1.0  0.25000007721863876  0.2500001227508501  0.2499999185469972  1.0000
  Cu  Cu2       1.0  0.7500001830356746  0.7499998121122673  0.7500001743575081  1.0000
  Ta  Ta1       1.0  0.9999998359902642  0.9999999655284881  0.9999999491293252  1.0000
  O   O1        1.0  0.2607041519690869  0.2607044832581525  0.7392956986866145  1.0000
  O   O2        1.0  0.7392958200279691  0.7392956078757783  0.2607042181566471  1.0000
  O   O3        1.0  0.7392956199796223  0.2607044785855193  0.2607042203619027  1.0000
  O   O4        1.0  0.26070426447573253  0.7392955826731061  0.739295760819038  1.0000
  O   O5        1.0  0.2607043497652709  0.7392955997589368  0.260704353003993  1.0000
  O   O6        1.0  0.7392956503347078  0.26070438106617955  0.7392956781214727  1.0000
