data_image0
_chemical_formula_structural       Cu2TiTe6
_chemical_formula_sum              "Cu2 Ti1 Te6"
_cell_length_a       7.07795851449625
_cell_length_b       7.077958850776336
_cell_length_c       7.077958424489547
_cell_angle_alpha    60.00000004726701
_cell_angle_beta     60.000000245463475
_cell_angle_gamma    60.00000138069951

_space_group_name_H-M_alt    "P 1"
_space_group_IT_number       1

loop_
  _space_group_symop_operation_xyz
  'x, y, z'

loop_
  _atom_site_type_symbol
  _atom_site_label
  _atom_site_symmetry_multiplicity
  _atom_site_fract_x
  _atom_site_fract_y
  _atom_site_fract_z
  _atom_site_occupancy
  Cu  Cu1       1.0  0.2499999612823241  0.2500000284958169  0.24999997959531492  1.0000
  Cu  Cu2       1.0  0.7500000130955455  0.7499997809432964  0.7500002991112384  1.0000
  Ti  Ti1       1.0  3.628671882829514e-08  0.9999999792356246  7.842187223004901e-08  1.0000
  Te  Te1       1.0  0.2667057260042811  0.2667059861969421  0.7332940923678718  1.0000
  Te  Te2       1.0  0.7332942175210003  0.733294072414665  0.26670569429995733  1.0000
  Te  Te3       1.0  0.7332941614487613  0.26670598187906536  0.2667057706030783  1.0000
  Te  Te4       1.0  0.26670584032921535  0.7332940732718091  0.7332941808145718  1.0000
  Te  Te5       1.0  0.2667059249157356  0.7332941645780601  0.2667057729123253  1.0000
  Te  Te6       1.0  0.7332941216508854  0.2667059372926556  0.7332941355767547  1.0000
