data_image0
_chemical_formula_structural       Cu2TaTe6
_chemical_formula_sum              "Cu2 Ta1 Te6"
_cell_length_a       7.208370457352346
_cell_length_b       7.208370282753689
_cell_length_c       7.208370215333266
_cell_angle_alpha    59.99999998118721
_cell_angle_beta     60.00000219948059
_cell_angle_gamma    59.99999886415647

_space_group_name_H-M_alt    "P 1"
_space_group_IT_number       1

loop_
  _space_group_symop_operation_xyz
  'x, y, z'

loop_
  _atom_site_type_symbol
  _atom_site_label
  _atom_site_symmetry_multiplicity
  _atom_site_fract_x
  _atom_site_fract_y
  _atom_site_fract_z
  _atom_site_occupancy
  Cu  Cu1       1.0  0.2500000649764651  0.24999999679864648  0.24999994728956218  1.0000
  Cu  Cu2       1.0  0.7500000063590704  0.7500000226780694  0.7499998825563264  1.0000
  Ta  Ta1       1.0  6.142144098625018e-08  2.7184948315572016e-08  0.9999999973150899  1.0000
  Te  Te1       1.0  0.26709056770361783  0.26709052471611344  0.7329094629092733  1.0000
  Te  Te2       1.0  0.7329093744619836  0.732909464177535  0.2670906077371472  1.0000
  Te  Te3       1.0  0.7329094239557706  0.2670905156752667  0.2670905920616041  1.0000
  Te  Te4       1.0  0.2670906158778712  0.7329093916635325  0.732909441395423  1.0000
  Te  Te5       1.0  0.2670904969156801  0.7329094496831733  0.2670906154964351  1.0000
  Te  Te6       1.0  0.732909384150474  0.2670906071728492  0.7329094628167305  1.0000
