data_image0
_chemical_formula_structural       Cu2TeSe6
_chemical_formula_sum              "Cu2 Te1 Se6"
_cell_length_a       6.652624821805684
_cell_length_b       6.65262475717671
_cell_length_c       6.65262469235902
_cell_angle_alpha    59.999999797603856
_cell_angle_beta     60.00000201795931
_cell_angle_gamma    60.000002016416744

_space_group_name_H-M_alt    "P 1"
_space_group_IT_number       1

loop_
  _space_group_symop_operation_xyz
  'x, y, z'

loop_
  _atom_site_type_symbol
  _atom_site_label
  _atom_site_symmetry_multiplicity
  _atom_site_fract_x
  _atom_site_fract_y
  _atom_site_fract_z
  _atom_site_occupancy
  Cu  Cu1       1.0  0.25000006622381316  0.2500000581349855  0.24999993849692606  1.0000
  Cu  Cu2       1.0  0.750000022140838  0.7499999958284398  0.750000086240635  1.0000
  Te  Te1       1.0  1.0124852242144333e-07  6.075283548416996e-08  0.9999999791259664  1.0000
  Se  Se1       1.0  0.30155700292310467  0.3015570128254709  0.6984430162548507  1.0000
  Se  Se2       1.0  0.6984426495056371  0.6984426305960686  0.3015572889208244  1.0000
  Se  Se3       1.0  0.6984428584790048  0.3015572888769438  0.301557141240356  1.0000
  Se  Se4       1.0  0.30155722197716095  0.6984428460902604  0.6984427943387441  1.0000
  Se  Se5       1.0  0.3015572281737374  0.6984428578760339  0.30155708352335603  1.0000
  Se  Se6       1.0  0.698442843919756  0.30155726052221776  0.6984426555814668  1.0000
