data_image0
_chemical_formula_structural       Cu2TeO6
_chemical_formula_sum              "Cu2 Te1 O6"
_cell_length_a       5.442067188278417
_cell_length_b       5.442067285917828
_cell_length_c       5.442067376249038
_cell_angle_alpha    59.999998013870005
_cell_angle_beta     59.999999364284555
_cell_angle_gamma    59.999998023239094

_space_group_name_H-M_alt    "P 1"
_space_group_IT_number       1

loop_
  _space_group_symop_operation_xyz
  'x, y, z'

loop_
  _atom_site_type_symbol
  _atom_site_label
  _atom_site_symmetry_multiplicity
  _atom_site_fract_x
  _atom_site_fract_y
  _atom_site_fract_z
  _atom_site_occupancy
  Cu  Cu1       1.0  0.24999999725651237  0.25000004012415356  0.25000001848510933  1.0000
  Cu  Cu2       1.0  0.7500000388795374  0.7500000236003623  0.7499996723531706  1.0000
  Te  Te1       1.0  0.99999996740067  4.0509253492626766e-08  8.907796510457648e-09  1.0000
  O   O1        1.0  0.2499363191719848  0.2499363572273286  0.7500637250463774  1.0000
  O   O2        1.0  0.7500636268406691  0.7500637222507793  0.24993643296045512  1.0000
  O   O3        1.0  0.7500636733523447  0.24993623359337055  0.24993641789143992  1.0000
  O   O4        1.0  0.24993637901176832  0.7500636095807615  0.7500636360382528  1.0000
  O   O5        1.0  0.24993624512842055  0.7500635961809786  0.24993639007357646  1.0000
  O   O6        1.0  0.7500637262834339  0.24993637527245474  0.7500637265568306  1.0000
