data_image0
_chemical_formula_structural       Cu2VS6
_chemical_formula_sum              "Cu2 V1 S6"
_cell_length_a       6.147006488077173
_cell_length_b       6.147006927741396
_cell_length_c       6.147006205520453
_cell_angle_alpha    60.00000256237089
_cell_angle_beta     60.00000194283004
_cell_angle_gamma    60.000002996899994

_space_group_name_H-M_alt    "P 1"
_space_group_IT_number       1

loop_
  _space_group_symop_operation_xyz
  'x, y, z'

loop_
  _atom_site_type_symbol
  _atom_site_label
  _atom_site_symmetry_multiplicity
  _atom_site_fract_x
  _atom_site_fract_y
  _atom_site_fract_z
  _atom_site_occupancy
  Cu  Cu1       1.0  0.24999997336752805  0.25000008783595395  0.25000000791530996  1.0000
  Cu  Cu2       1.0  0.7499999812427032  0.7500000124623576  0.7499998437680421  1.0000
  V   V1        1.0  0.9999998584467984  1.9924246671131225e-07  0.9999999874234469  1.0000
  S   S1        1.0  0.2580594240206863  0.2580594532937558  0.7419405700733107  1.0000
  S   S2        1.0  0.7419406184059312  0.7419405075348255  0.2580595124145463  1.0000
  S   S3        1.0  0.7419405628936232  0.25805936282122593  0.25805954983584434  1.0000
  S   S4        1.0  0.25805957046173805  0.741940426658835  0.74194049477511  1.0000
  S   S5        1.0  0.2580594784222031  0.7419404486417563  0.25805953464047693  1.0000
  S   S6        1.0  0.7419405544036853  0.25805949027015446  0.7419405017873687  1.0000
