data_image0
_chemical_formula_structural       Cu2VO6
_chemical_formula_sum              "Cu2 V1 O6"
_cell_length_a       5.127302412529036
_cell_length_b       5.1273006460512605
_cell_length_c       5.12730155529712
_cell_angle_alpha    60.00000538502541
_cell_angle_beta     60.00000592475661
_cell_angle_gamma    60.000001195045236

_space_group_name_H-M_alt    "P 1"
_space_group_IT_number       1

loop_
  _space_group_symop_operation_xyz
  'x, y, z'

loop_
  _atom_site_type_symbol
  _atom_site_label
  _atom_site_symmetry_multiplicity
  _atom_site_fract_x
  _atom_site_fract_y
  _atom_site_fract_z
  _atom_site_occupancy
  Cu  Cu1       1.0  0.24999980005490677  0.24999985824439602  0.25000040979954297  1.0000
  Cu  Cu2       1.0  0.7500003414912306  0.7500003247766596  0.7499994416977244  1.0000
  V   V1        1.0  0.999999813941336  1.1226765850360716e-07  3.104448080221265e-08  1.0000
  O   O1        1.0  0.25659666620047633  0.25659643993140685  0.7434034606825688  1.0000
  O   O2        1.0  0.7434033885927605  0.7434032534115446  0.2565968116535268  1.0000
  O   O3        1.0  0.743403372295835  0.2565964174276681  0.25659658018222103  1.0000
  O   O4        1.0  0.25659671534146344  0.7434035219486588  0.74340338303528  1.0000
  O   O5        1.0  0.2565964016038147  0.7434034844700412  0.25659666751734705  1.0000
  O   O6        1.0  0.7434036644457009  0.25659644535157433  0.7434031883997505  1.0000
