data_image0
_chemical_formula_structural       Cu2VO6
_chemical_formula_sum              "Cu2 V1 O6"
_cell_length_a       5.127478761867836
_cell_length_b       5.1274792086919865
_cell_length_c       5.1274794310851055
_cell_angle_alpha    59.999995680542284
_cell_angle_beta     59.99999598032053
_cell_angle_gamma    60.0000008370524

_space_group_name_H-M_alt    "P 1"
_space_group_IT_number       1

loop_
  _space_group_symop_operation_xyz
  'x, y, z'

loop_
  _atom_site_type_symbol
  _atom_site_label
  _atom_site_symmetry_multiplicity
  _atom_site_fract_x
  _atom_site_fract_y
  _atom_site_fract_z
  _atom_site_occupancy
  Cu  Cu1       1.0  0.24999985529311797  0.2500001434767035  0.25000021502761216  1.0000
  Cu  Cu2       1.0  0.7499997361168298  0.7500006358489526  0.7499992812382545  1.0000
  V   V1        1.0  6.508122843100451e-08  0.999999933119462  2.4302968214185773e-08  1.0000
  O   O1        1.0  0.2566039163461099  0.25660327099381136  0.7433963250408433  1.0000
  O   O2        1.0  0.7433962400080544  0.7433966579935609  0.2566038599993525  1.0000
  O   O3        1.0  0.743396372360358  0.2566035112580766  0.25660364910407923  1.0000
  O   O4        1.0  0.25660363227174243  0.7433962648594945  0.7433965205083173  1.0000
  O   O5        1.0  0.2566036383152625  0.7433960329126895  0.2566038684089738  1.0000
  O   O6        1.0  0.7433966054410805  0.25660348523709897  0.743396191658364  1.0000
