data_image0
_chemical_formula_structural       Cu2VSe6
_chemical_formula_sum              "Cu2 V1 Se6"
_cell_length_a       6.308785084354138
_cell_length_b       6.308785325064087
_cell_length_c       6.308785123700015
_cell_angle_alpha    60.00000041495439
_cell_angle_beta     59.99999793287236
_cell_angle_gamma    60.00000104890622

_space_group_name_H-M_alt    "P 1"
_space_group_IT_number       1

loop_
  _space_group_symop_operation_xyz
  'x, y, z'

loop_
  _atom_site_type_symbol
  _atom_site_label
  _atom_site_symmetry_multiplicity
  _atom_site_fract_x
  _atom_site_fract_y
  _atom_site_fract_z
  _atom_site_occupancy
  Cu  Cu1       1.0  0.24999986727924772  0.2500000033614917  0.25000025304086054  1.0000
  Cu  Cu2       1.0  0.7500001485315146  0.7499996878233216  0.7500001967403559  1.0000
  V   V1        1.0  1.5974763137459918e-08  0.9999999301120384  6.341369776511482e-08  1.0000
  Se  Se1       1.0  0.27144464230592336  0.2714447982969916  0.7285552359377608  1.0000
  Se  Se2       1.0  0.7285552910235361  0.7285552830956077  0.27144466370740467  1.0000
  Se  Se3       1.0  0.7285552307747132  0.2714448769376795  0.27144463028495885  1.0000
  Se  Se4       1.0  0.27144464795634327  0.7285554121774723  0.7285551610963071  1.0000
  Se  Se5       1.0  0.27144477827558267  0.7285552006790692  0.27144471789932273  1.0000
  Se  Se6       1.0  0.7285553737675211  0.27144480111890834  0.7285550899950514  1.0000
