data_image0
_chemical_formula_structural       Cu2VTe6
_chemical_formula_sum              "Cu2 V1 Te6"
_cell_length_a       6.9232634005530995
_cell_length_b       6.923263327568122
_cell_length_c       6.923263785462725
_cell_angle_alpha    59.99999938312788
_cell_angle_beta     59.99999878509696
_cell_angle_gamma    60.000001521984146

_space_group_name_H-M_alt    "P 1"
_space_group_IT_number       1

loop_
  _space_group_symop_operation_xyz
  'x, y, z'

loop_
  _atom_site_type_symbol
  _atom_site_label
  _atom_site_symmetry_multiplicity
  _atom_site_fract_x
  _atom_site_fract_y
  _atom_site_fract_z
  _atom_site_occupancy
  Cu  Cu1       1.0  0.24999994537887305  0.25000009515065136  0.2500000210427995  1.0000
  Cu  Cu2       1.0  0.750000064777682  0.7499996945965102  0.7500002225695013  1.0000
  V   V1        1.0  0.9999998642301848  0.9999999770026292  1.0682729576720636e-07  1.0000
  Te  Te1       1.0  0.2674624049588584  0.2674625459962484  0.7325375252818408  1.0000
  Te  Te2       1.0  0.732537585111021  0.7325375391786346  0.2674624015536638  1.0000
  Te  Te3       1.0  0.7325375105103595  0.26746266195139246  0.2674623477538973  1.0000
  Te  Te4       1.0  0.26746248041799725  0.7325374656801688  0.7325375112030553  1.0000
  Te  Te5       1.0  0.26746260265303246  0.7325374054238332  0.26746243760722205  1.0000
  Te  Te6       1.0  0.7325375398161217  0.2674626178350633  0.7325374223205566  1.0000
