data_image0
_chemical_formula_structural       Cu2VS6
_chemical_formula_sum              "Cu2 V1 S6"
_cell_length_a       6.144148475013579
_cell_length_b       6.144148404820239
_cell_length_c       6.144148412562882
_cell_angle_alpha    60.00000079540464
_cell_angle_beta     60.00000184889605
_cell_angle_gamma    59.999999106137444

_space_group_name_H-M_alt    "P 1"
_space_group_IT_number       1

loop_
  _space_group_symop_operation_xyz
  'x, y, z'

loop_
  _atom_site_type_symbol
  _atom_site_label
  _atom_site_symmetry_multiplicity
  _atom_site_fract_x
  _atom_site_fract_y
  _atom_site_fract_z
  _atom_site_occupancy
  Cu  Cu1       1.0  0.2500000583993345  0.24999997173117866  0.24999996231092925  1.0000
  Cu  Cu2       1.0  0.7499999909239067  0.7500000846284346  0.7500000229300093  1.0000
  V   V1        1.0  6.142897733015944e-08  6.378725313410823e-08  0.9999997974213086  1.0000
  S   S1        1.0  0.25808956062811894  0.25808954687660174  0.7419104422759145  1.0000
  S   S2        1.0  0.7419103935518435  0.7419104397157028  0.25808951149077636  1.0000
  S   S3        1.0  0.7419104956019008  0.2580894465319868  0.2580895426270367  1.0000
  S   S4        1.0  0.25808945504736736  0.7419105281002081  0.7419105458351144  1.0000
  S   S5        1.0  0.25808950621863724  0.7419105103277029  0.25808955340509854  1.0000
  S   S6        1.0  0.7419104810502958  0.25808941646405054  0.7419105976322109  1.0000
