data_image0
_chemical_formula_structural       Cu2WSe6
_chemical_formula_sum              "Cu2 W1 Se6"
_cell_length_a       6.591002839139708
_cell_length_b       6.591002910849071
_cell_length_c       6.5910026129126535
_cell_angle_alpha    60.00000058985793
_cell_angle_beta     59.99999982886782
_cell_angle_gamma    60.00000030170558

_space_group_name_H-M_alt    "P 1"
_space_group_IT_number       1

loop_
  _space_group_symop_operation_xyz
  'x, y, z'

loop_
  _atom_site_type_symbol
  _atom_site_label
  _atom_site_symmetry_multiplicity
  _atom_site_fract_x
  _atom_site_fract_y
  _atom_site_fract_z
  _atom_site_occupancy
  Cu  Cu1       1.0  0.2500000856877378  0.2500000330166511  0.24999992942004345  1.0000
  Cu  Cu2       1.0  0.7499998710697874  0.7500001901021026  0.7500000616600195  1.0000
  W   W1        1.0  0.999999967293052  2.452833413364862e-07  0.9999999331595181  1.0000
  Se  Se1       1.0  0.25747947897028345  0.2574793809445374  0.742520559227446  1.0000
  Se  Se2       1.0  0.7425204064075063  0.7425204203611979  0.25747956465750865  1.0000
  Se  Se3       1.0  0.7425206075606154  0.2574794297545472  0.2574794231320386  1.0000
  Se  Se4       1.0  0.25747961399429176  0.7425203511109099  0.7425204290930045  1.0000
  Se  Se5       1.0  0.2574795479354001  0.7425204633291468  0.25747954383299587  1.0000
  Se  Se6       1.0  0.7425204140294835  0.25747948663315856  0.7425205584633161  1.0000
