data_image0
_chemical_formula_structural       Cu2WTe6
_chemical_formula_sum              "Cu2 W1 Te6"
_cell_length_a       7.08196825197847
_cell_length_b       7.081968209146592
_cell_length_c       7.081967410815552
_cell_angle_alpha    60.00000426963352
_cell_angle_beta     60.00000021930624
_cell_angle_gamma    59.99999177476551

_space_group_name_H-M_alt    "P 1"
_space_group_IT_number       1

loop_
  _space_group_symop_operation_xyz
  'x, y, z'

loop_
  _atom_site_type_symbol
  _atom_site_label
  _atom_site_symmetry_multiplicity
  _atom_site_fract_x
  _atom_site_fract_y
  _atom_site_fract_z
  _atom_site_occupancy
  Cu  Cu1       1.0  0.250000024929063  0.25000014700273143  0.24999977172733087  1.0000
  Cu  Cu2       1.0  0.750000001724015  0.7499997406073426  0.7500001424695477  1.0000
  W   W1        1.0  1.410376787841511e-07  4.13322957434017e-07  0.9999993260372833  1.0000
  Te  Te1       1.0  0.2659381053295116  0.26593805368917905  0.7340619563672582  1.0000
  Te  Te2       1.0  0.7340616165426533  0.7340616281241356  0.265938382562904  1.0000
  Te  Te3       1.0  0.7340621449817243  0.26593793899167567  0.2659377684105926  1.0000
  Te  Te4       1.0  0.26593781557604246  0.7340621371213619  0.734062381110232  1.0000
  Te  Te5       1.0  0.26593802273824124  0.7340620083624396  0.26593803157400736  1.0000
  Te  Te6       1.0  0.7340621233834496  0.2659379415054846  0.7340622393753649  1.0000
