data_image0
_chemical_formula_structural       Cu2WS6
_chemical_formula_sum              "Cu2 W1 S6"
_cell_length_a       6.257254107331322
_cell_length_b       6.257254101481615
_cell_length_c       6.257254291135135
_cell_angle_alpha    59.99999963595956
_cell_angle_beta     59.99999822988206
_cell_angle_gamma    59.99999921928743

_space_group_name_H-M_alt    "P 1"
_space_group_IT_number       1

loop_
  _space_group_symop_operation_xyz
  'x, y, z'

loop_
  _atom_site_type_symbol
  _atom_site_label
  _atom_site_symmetry_multiplicity
  _atom_site_fract_x
  _atom_site_fract_y
  _atom_site_fract_z
  _atom_site_occupancy
  Cu  Cu1       1.0  0.25000011328573485  0.25000000607279516  0.24999994871784628  1.0000
  Cu  Cu2       1.0  0.7500000094992391  0.7499998909925846  0.7500000365899423  1.0000
  W   W1        1.0  0.9999999857774664  3.914640325166263e-09  2.7527977501514122e-08  1.0000
  S   S1        1.0  0.25753474751480454  0.2575349103430172  0.7424652073359335  1.0000
  S   S2        1.0  0.7424652009441278  0.7424651609238458  0.2575348291747779  1.0000
  S   S3        1.0  0.742465103815312  0.25753491605847506  0.2575348542701856  1.0000
  S   S4        1.0  0.2575348532756951  0.7424650573423853  0.7424651006040298  1.0000
  S   S5        1.0  0.2575348619660353  0.7424650817286559  0.25753493438348446  1.0000
  S   S6        1.0  0.7424651211265414  0.25753497975160644  0.7424650529463686  1.0000
