data_image0
_chemical_formula_structural       Cu2WO6
_chemical_formula_sum              "Cu2 W1 O6"
_cell_length_a       5.385992954476984
_cell_length_b       5.385992587996118
_cell_length_c       5.385992572177183
_cell_angle_alpha    60.0000012696226
_cell_angle_beta     60.000000025029905
_cell_angle_gamma    59.99999387735496

_space_group_name_H-M_alt    "P 1"
_space_group_IT_number       1

loop_
  _space_group_symop_operation_xyz
  'x, y, z'

loop_
  _atom_site_type_symbol
  _atom_site_label
  _atom_site_symmetry_multiplicity
  _atom_site_fract_x
  _atom_site_fract_y
  _atom_site_fract_z
  _atom_site_occupancy
  Cu  Cu1       1.0  0.2500003957027268  0.24999982763685738  0.24999986831598459  1.0000
  Cu  Cu2       1.0  0.7500001410542014  0.7499998490157247  0.7499999801990801  1.0000
  W   W1        1.0  0.9999999769819786  0.9999998953985505  1.492164623909739e-07  1.0000
  O   O1        1.0  0.2534158565004133  0.25341571941394003  0.7465843022685364  1.0000
  O   O2        1.0  0.7465840035358424  0.7465844052057815  0.2534158834234694  1.0000
  O   O3        1.0  0.7465839787942029  0.25341600308801293  0.25341564361849134  1.0000
  O   O4        1.0  0.25341578740470166  0.746584358021947  0.746584071563457  1.0000
  O   O5        1.0  0.2534157319843699  0.7465840765386507  0.2534159048561509  1.0000
  O   O6        1.0  0.746584270526287  0.2534158843570434  0.7465840500938257  1.0000
