data_image0
_chemical_formula_structural       Cu2YS6
_chemical_formula_sum              "Cu2 Y1 S6"
_cell_length_a       6.629814355923368
_cell_length_b       6.629814226556897
_cell_length_c       6.629814176964351
_cell_angle_alpha    60.00000082243522
_cell_angle_beta     60.000000927966006
_cell_angle_gamma    59.99999932951344

_space_group_name_H-M_alt    "P 1"
_space_group_IT_number       1

loop_
  _space_group_symop_operation_xyz
  'x, y, z'

loop_
  _atom_site_type_symbol
  _atom_site_label
  _atom_site_symmetry_multiplicity
  _atom_site_fract_x
  _atom_site_fract_y
  _atom_site_fract_z
  _atom_site_occupancy
  Cu  Cu1       1.0  0.2500000037167423  0.2500000088972303  0.24999999809121057  1.0000
  Cu  Cu2       1.0  0.75000004684713  0.7499999509511974  0.7499999645202757  1.0000
  Y   Y1        1.0  0.9999999891967225  7.943515031553326e-08  0.9999998570837351  1.0000
  S   S1        1.0  0.2778694444409785  0.2778694557912966  0.7221305365394308  1.0000
  S   S2        1.0  0.7221305615425515  0.72213052807241  0.27786947858804856  1.0000
  S   S3        1.0  0.7221304753962213  0.27786944792423174  0.2778695534752072  1.0000
  S   S4        1.0  0.2778695574882954  0.7221304343363749  0.7221305427451274  1.0000
  S   S5        1.0  0.27786943403526865  0.7221305534231229  0.2778695307608055  1.0000
  S   S6        1.0  0.7221304710696984  0.2778695449749888  0.7221305408889452  1.0000
