data_image0
_chemical_formula_structural       Cu2YSe6
_chemical_formula_sum              "Cu2 Y1 Se6"
_cell_length_a       6.848875439790482
_cell_length_b       6.848875724126821
_cell_length_c       6.848875888914172
_cell_angle_alpha    60.00000316251652
_cell_angle_beta     60.00000207714681
_cell_angle_gamma    59.99999862878589

_space_group_name_H-M_alt    "P 1"
_space_group_IT_number       1

loop_
  _space_group_symop_operation_xyz
  'x, y, z'

loop_
  _atom_site_type_symbol
  _atom_site_label
  _atom_site_symmetry_multiplicity
  _atom_site_fract_x
  _atom_site_fract_y
  _atom_site_fract_z
  _atom_site_occupancy
  Cu  Cu1       1.0  0.2500000414104403  0.2500000915206873  0.2499998651603105  1.0000
  Cu  Cu2       1.0  0.7499999489810996  0.7499999455255163  0.7500000870796534  1.0000
  Y   Y1        1.0  0.999999957205019  0.999999915952622  1.4518641842899296e-07  1.0000
  Se  Se1       1.0  0.28828752692027154  0.28828725079536066  0.7117128102284395  1.0000
  Se  Se2       1.0  0.7117133011035616  0.7117131260168249  0.2882867737865606  1.0000
  Se  Se3       1.0  0.7117129593901115  0.28828689473756125  0.28828727408645366  1.0000
  Se  Se4       1.0  0.2882873530515059  0.7117124037646178  0.7117131842595709  1.0000
  Se  Se5       1.0  0.288286752529347  0.7117129977723364  0.28828694837380336  1.0000
  Se  Se6       1.0  0.7117121517168388  0.28828735400452615  0.711712932564179  1.0000
