data_image0
_chemical_formula_structural       Cu2YO6
_chemical_formula_sum              "Cu2 Y1 O6"
_cell_length_a       5.535108600031227
_cell_length_b       5.535108476476899
_cell_length_c       5.535108725532825
_cell_angle_alpha    59.99999995136816
_cell_angle_beta     60.000000288316016
_cell_angle_gamma    59.999999892699606

_space_group_name_H-M_alt    "P 1"
_space_group_IT_number       1

loop_
  _space_group_symop_operation_xyz
  'x, y, z'

loop_
  _atom_site_type_symbol
  _atom_site_label
  _atom_site_symmetry_multiplicity
  _atom_site_fract_x
  _atom_site_fract_y
  _atom_site_fract_z
  _atom_site_occupancy
  Cu  Cu1       1.0  0.24999995422578755  0.24999996409015593  0.25000017148987136  1.0000
  Cu  Cu2       1.0  0.7499999554543971  0.7500000958374364  0.7499998929555133  1.0000
  Y   Y1        1.0  0.9999999696985697  0.9999999845112093  9.516107989536995e-08  1.0000
  O   O1        1.0  0.28068735133038325  0.28068727575947483  0.7193126852924616  1.0000
  O   O2        1.0  0.7193126874807462  0.7193127222129525  0.280687406991108  1.0000
  O   O3        1.0  0.7193126735912303  0.28068720784405793  0.2806873307385917  1.0000
  O   O4        1.0  0.2806873200624034  0.7193127879156819  0.7193125575922643  1.0000
  O   O5        1.0  0.28068729943972937  0.7193126607797888  0.28068727461077564  1.0000
  O   O6        1.0  0.7193127782921882  0.2806873017896838  0.7193125973093184  1.0000
