data_image0
_chemical_formula_structural       Cu2ZnO6
_chemical_formula_sum              "Cu2 Zn1 O6"
_cell_length_a       5.3032596693955005
_cell_length_b       5.303259881317006
_cell_length_c       5.303259736848768
_cell_angle_alpha    60.000002123747855
_cell_angle_beta     60.00000044442494
_cell_angle_gamma    60.000001222254696

_space_group_name_H-M_alt    "P 1"
_space_group_IT_number       1

loop_
  _space_group_symop_operation_xyz
  'x, y, z'

loop_
  _atom_site_type_symbol
  _atom_site_label
  _atom_site_symmetry_multiplicity
  _atom_site_fract_x
  _atom_site_fract_y
  _atom_site_fract_z
  _atom_site_occupancy
  Cu  Cu1       1.0  0.24999998996708095  0.2500000155072372  0.2499999751056893  1.0000
  Cu  Cu2       1.0  0.7500001101076362  0.7500001158042731  0.7499994887012362  1.0000
  Zn  Zn1       1.0  3.085634887900318e-08  1.8475351141218346e-08  1.8703702564726565e-08  1.0000
  O   O1        1.0  0.2560046705968877  0.2560046414372098  0.7439953655871989  1.0000
  O   O2        1.0  0.7439953268372084  0.7439953536185954  0.25600487386806897  1.0000
  O   O3        1.0  0.7439953509138184  0.25600450172801686  0.25600484381794963  1.0000
  O   O4        1.0  0.25600474309697724  0.7439952623859002  0.743995334596887  1.0000
  O   O5        1.0  0.2560045270311726  0.7439953034061998  0.2560048260682801  1.0000
  O   O6        1.0  0.743995240329249  0.25600476786042703  0.7439952847844484  1.0000
