data_image0
_chemical_formula_structural       Cu2ZrO6
_chemical_formula_sum              "Cu2 Zr1 O6"
_cell_length_a       5.412678145309201
_cell_length_b       5.412678039314426
_cell_length_c       5.412678011915852
_cell_angle_alpha    59.99999971331513
_cell_angle_beta     60.00000019356965
_cell_angle_gamma    60.000000982845435

_space_group_name_H-M_alt    "P 1"
_space_group_IT_number       1

loop_
  _space_group_symop_operation_xyz
  'x, y, z'

loop_
  _atom_site_type_symbol
  _atom_site_label
  _atom_site_symmetry_multiplicity
  _atom_site_fract_x
  _atom_site_fract_y
  _atom_site_fract_z
  _atom_site_occupancy
  Cu  Cu1       1.0  0.25000011542074974  0.24999990135106204  0.2499998813249406  1.0000
  Cu  Cu2       1.0  0.7500000820698731  0.749999984632153  0.749999988656757  1.0000
  Zr  Zr1       1.0  1.6156944677682118e-09  2.715280390107786e-08  0.9999999468179506  1.0000
  O   O1        1.0  0.2705576219006908  0.2705577541367238  0.7294422669347774  1.0000
  O   O2        1.0  0.7294423272366922  0.7294423649080528  0.27055766057564573  1.0000
  O   O3        1.0  0.7294423541501519  0.27055767843334283  0.27055769418765363  1.0000
  O   O4        1.0  0.2705576011099973  0.7294422686436762  0.729442436333695  1.0000
  O   O5        1.0  0.2705576400374071  0.7294423332846486  0.2705577465695612  1.0000
  O   O6        1.0  0.729442280420289  0.27055768619984655  0.7294423836244187  1.0000
