data_image0
_chemical_formula_structural       Cu2ZnS6
_chemical_formula_sum              "Cu2 Zn1 S6"
_cell_length_a       6.2078129734951855
_cell_length_b       6.2078128761927855
_cell_length_c       6.207812802785562
_cell_angle_alpha    59.99999945004904
_cell_angle_beta     59.999999885196694
_cell_angle_gamma    59.99999960890011

_space_group_name_H-M_alt    "P 1"
_space_group_IT_number       1

loop_
  _space_group_symop_operation_xyz
  'x, y, z'

loop_
  _atom_site_type_symbol
  _atom_site_label
  _atom_site_symmetry_multiplicity
  _atom_site_fract_x
  _atom_site_fract_y
  _atom_site_fract_z
  _atom_site_occupancy
  Cu  Cu1       1.0  0.25000001353717805  0.25000005473115655  0.24999994098639114  1.0000
  Cu  Cu2       1.0  0.7499999153321122  0.7499999708484042  0.7500000354302389  1.0000
  Zn  Zn1       1.0  0.9999999791071909  0.9999999901354564  0.9999999428893773  1.0000
  S   S1        1.0  0.26374347948372645  0.2637435157375328  0.7362564207008455  1.0000
  S   S2        1.0  0.7362566501255697  0.7362563875216819  0.26374341985355504  1.0000
  S   S3        1.0  0.7362564892944288  0.26374352018554287  0.26374346555931405  1.0000
  S   S4        1.0  0.2637435239165679  0.7362565369605583  0.7362566107687768  1.0000
  S   S5        1.0  0.26374348802390246  0.7362565086059435  0.26374351094298326  1.0000
  S   S6        1.0  0.7362564520058437  0.26374351697361587  0.7362566580308376  1.0000
