data_image0
_chemical_formula_structural       Cu2ZrS6
_chemical_formula_sum              "Cu2 Zr1 S6"
_cell_length_a       6.380416702753684
_cell_length_b       6.38041656716551
_cell_length_c       6.380416931121589
_cell_angle_alpha    59.999999730308204
_cell_angle_beta     59.99999972694661
_cell_angle_gamma    59.9999987541035

_space_group_name_H-M_alt    "P 1"
_space_group_IT_number       1

loop_
  _space_group_symop_operation_xyz
  'x, y, z'

loop_
  _atom_site_type_symbol
  _atom_site_label
  _atom_site_symmetry_multiplicity
  _atom_site_fract_x
  _atom_site_fract_y
  _atom_site_fract_z
  _atom_site_occupancy
  Cu  Cu1       1.0  0.24999997286747563  0.2500000922833204  0.24999992431091014  1.0000
  Cu  Cu2       1.0  0.7500000145260313  0.7499998967815387  0.7500000231485384  1.0000
  Zr  Zr1       1.0  0.9999999871309744  0.9999999788850873  0.9999999934825333  1.0000
  S   S1        1.0  0.27261682562544026  0.27261692719042846  0.7273831521345722  1.0000
  S   S2        1.0  0.7273832066826579  0.7273830791502695  0.27261688020954356  1.0000
  S   S3        1.0  0.7273831502813136  0.27261685101978483  0.27261689201133543  1.0000
  S   S4        1.0  0.2726168726863289  0.7273831073324758  0.7273831674299304  1.0000
  S   S5        1.0  0.2726168464740166  0.7273831408706058  0.27261688417689783  1.0000
  S   S6        1.0  0.7273831287435836  0.2726169172976038  0.7273830818377006  1.0000
