data_image0
_chemical_formula_structural       Cu2ZrTe6
_chemical_formula_sum              "Cu2 Zr1 Te6"
_cell_length_a       7.343731021620466
_cell_length_b       7.343730886851383
_cell_length_c       7.343730784911408
_cell_angle_alpha    59.999999042602795
_cell_angle_beta     59.999999873769326
_cell_angle_gamma    59.99999943477581

_space_group_name_H-M_alt    "P 1"
_space_group_IT_number       1

loop_
  _space_group_symop_operation_xyz
  'x, y, z'

loop_
  _atom_site_type_symbol
  _atom_site_label
  _atom_site_symmetry_multiplicity
  _atom_site_fract_x
  _atom_site_fract_y
  _atom_site_fract_z
  _atom_site_occupancy
  Cu  Cu1       1.0  0.24999994316052815  0.250000051272913  0.2500000056896126  1.0000
  Cu  Cu2       1.0  0.7499999991877709  0.7500000220671167  0.7500000076234954  1.0000
  Zr  Zr1       1.0  6.005226940372045e-08  0.9999999566387066  0.9999999984630404  1.0000
  Te  Te1       1.0  0.2715345278112163  0.271534538064535  0.7284654651243275  1.0000
  Te  Te2       1.0  0.7284654506551291  0.7284654552238764  0.27153455109168734  1.0000
  Te  Te3       1.0  0.7284654427908118  0.27153454193696597  0.2715345595400298  1.0000
  Te  Te4       1.0  0.27153459413907627  0.7284654363417674  0.7284654049915272  1.0000
  Te  Te5       1.0  0.2715345300677465  0.7284654516269845  0.2715345820699678  1.0000
  Te  Te6       1.0  0.7284654566255646  0.27153455000013715  0.7284654176929749  1.0000
