data_image0
_chemical_formula_structural       Cu2ZrSe6
_chemical_formula_sum              "Cu2 Zr1 Se6"
_cell_length_a       6.577039489736905
_cell_length_b       6.577039414542852
_cell_length_c       6.57703951076044
_cell_angle_alpha    59.99999660083527
_cell_angle_beta     59.999997589468215
_cell_angle_gamma    59.99999727730102

_space_group_name_H-M_alt    "P 1"
_space_group_IT_number       1

loop_
  _space_group_symop_operation_xyz
  'x, y, z'

loop_
  _atom_site_type_symbol
  _atom_site_label
  _atom_site_symmetry_multiplicity
  _atom_site_fract_x
  _atom_site_fract_y
  _atom_site_fract_z
  _atom_site_occupancy
  Cu  Cu1       1.0  0.24999991134147706  0.2500002311281979  0.25000001387232956  1.0000
  Cu  Cu2       1.0  0.7499999594513646  0.7500000118368463  0.7500001906144789  1.0000
  Zr  Zr1       1.0  1.3105018682223114e-08  1.862152177569858e-08  3.887260222723211e-08  1.0000
  Se  Se1       1.0  0.27913531186750123  0.27913516161332264  0.7208647171618564  1.0000
  Se  Se2       1.0  0.720864874346895  0.7208646828511321  0.2791352095718797  1.0000
  Se  Se3       1.0  0.7208647406251605  0.2791352579318823  0.2791351752304076  1.0000
  Se  Se4       1.0  0.2791352340222236  0.7208646945374075  0.7208648169683867  1.0000
  Se  Se5       1.0  0.2791352360512949  0.7208647034263145  0.27913513431241604  1.0000
  Se  Se6       1.0  0.7208647276544469  0.27913523973221804  0.7208646977231954  1.0000
