data_image0
_chemical_formula_structural       Fe2AgS6
_chemical_formula_sum              "Fe2 Ag1 S6"
_cell_length_a       6.262529520304007
_cell_length_b       6.2625295028397785
_cell_length_c       6.2625295188922605
_cell_angle_alpha    59.999999599517245
_cell_angle_beta     59.99999919579242
_cell_angle_gamma    59.99999983032665

_space_group_name_H-M_alt    "P 1"
_space_group_IT_number       1

loop_
  _space_group_symop_operation_xyz
  'x, y, z'

loop_
  _atom_site_type_symbol
  _atom_site_label
  _atom_site_symmetry_multiplicity
  _atom_site_fract_x
  _atom_site_fract_y
  _atom_site_fract_z
  _atom_site_occupancy
  Fe  Fe1       1.0  0.2500003172914624  0.24999936517445848  0.2500001726934722  1.0000
  Fe  Fe2       1.0  0.750000081789305  0.7500005674918034  0.7499995127484891  1.0000
  Ag  Ag1       1.0  1.099276928709832e-09  0.9999999745762741  4.409820177763202e-08  1.0000
  S   S1        1.0  0.26734428037809377  0.2673438688666581  0.7326558977279566  1.0000
  S   S2        1.0  0.7326555093425164  0.7326563043471631  0.2673441158322042  1.0000
  S   S3        1.0  0.7326558798440539  0.2673437625353431  0.26734446251602073  1.0000
  S   S4        1.0  0.26734408402065846  0.7326561095051096  0.7326556864147216  1.0000
  S   S5        1.0  0.26734396331600147  0.7326561566793055  0.26734424621058855  1.0000
  S   S6        1.0  0.7326558757245851  0.2673438796375301  0.732655900558813  1.0000
