data_image0
_chemical_formula_structural       Fe2AuS6
_chemical_formula_sum              "Fe2 Au1 S6"
_cell_length_a       6.267942347880222
_cell_length_b       6.267942412734302
_cell_length_c       6.267942019539749
_cell_angle_alpha    59.999999539285454
_cell_angle_beta     59.99999922939278
_cell_angle_gamma    59.999999506746036

_space_group_name_H-M_alt    "P 1"
_space_group_IT_number       1

loop_
  _space_group_symop_operation_xyz
  'x, y, z'

loop_
  _atom_site_type_symbol
  _atom_site_label
  _atom_site_symmetry_multiplicity
  _atom_site_fract_x
  _atom_site_fract_y
  _atom_site_fract_z
  _atom_site_occupancy
  Fe  Fe1       1.0  0.2499998752348668  0.2500003193032345  0.24999992196409648  1.0000
  Fe  Fe2       1.0  0.7499998938537701  0.7499997444866793  0.7499998316971371  1.0000
  Au  Au1       1.0  0.9999999255668044  0.9999999745982282  1.3447474509998355e-07  1.0000
  S   S1        1.0  0.26956898189690826  0.2695691144287464  0.7304308028426622  1.0000
  S   S2        1.0  0.7304311776556697  0.7304307285611548  0.26956923452862225  1.0000
  S   S3        1.0  0.730430929921269  0.2695692071596606  0.2695689536298988  1.0000
  S   S4        1.0  0.26956917984940015  0.7304308957098892  0.7304311031352708  1.0000
  S   S5        1.0  0.2695690663696761  0.7304307404640092  0.2695691058773846  1.0000
  S   S6        1.0  0.7304309640190284  0.2695692744763381  0.7304309085051923  1.0000
