data_image0
_chemical_formula_structural       Fe2AuO6
_chemical_formula_sum              "Fe2 Au1 O6"
_cell_length_a       5.386005799913135
_cell_length_b       5.386005940938943
_cell_length_c       5.386005864879809
_cell_angle_alpha    59.99999973740776
_cell_angle_beta     59.99999966451404
_cell_angle_gamma    59.999999909738

_space_group_name_H-M_alt    "P 1"
_space_group_IT_number       1

loop_
  _space_group_symop_operation_xyz
  'x, y, z'

loop_
  _atom_site_type_symbol
  _atom_site_label
  _atom_site_symmetry_multiplicity
  _atom_site_fract_x
  _atom_site_fract_y
  _atom_site_fract_z
  _atom_site_occupancy
  Fe  Fe1       1.0  0.2499999422609634  0.24999992468516097  0.24999998869201842  1.0000
  Fe  Fe2       1.0  0.7500001367143263  0.7499998604651613  0.7499998421720342  1.0000
  Au  Au1       1.0  3.304638257351444e-08  0.9999999909042437  2.515795505310465e-08  1.0000
  O   O1        1.0  0.2567279481467553  0.2567280509831835  0.7432719573898325  1.0000
  O   O2        1.0  0.7432719727601343  0.743272041148896  0.2567280756603872  1.0000
  O   O3        1.0  0.7432720741713434  0.25672795569465506  0.2567279513086758  1.0000
  O   O4        1.0  0.2567279559254154  0.7432719567962467  0.7432721262505163  1.0000
  O   O5        1.0  0.25672785273106447  0.7432721496748701  0.25672807352165933  1.0000
  O   O6        1.0  0.7432720504375705  0.2567280857153631  0.7432719691784831  1.0000
