data_image0
_chemical_formula_structural       Fe2BeSe6
_chemical_formula_sum              "Fe2 Be1 Se6"
_cell_length_a       6.126717366075478
_cell_length_b       6.126720020372511
_cell_length_c       6.12671817838455
_cell_angle_alpha    59.99998638811715
_cell_angle_beta     59.99997629942498
_cell_angle_gamma    59.99998073156019

_space_group_name_H-M_alt    "P 1"
_space_group_IT_number       1

loop_
  _space_group_symop_operation_xyz
  'x, y, z'

loop_
  _atom_site_type_symbol
  _atom_site_label
  _atom_site_symmetry_multiplicity
  _atom_site_fract_x
  _atom_site_fract_y
  _atom_site_fract_z
  _atom_site_occupancy
  Fe  Fe1       1.0  0.25000760326961385  0.2499962932326495  0.24999565479410205  1.0000
  Fe  Fe2       1.0  0.7499994286353223  0.7499999322968557  0.7499924300915118  1.0000
  Be  Be1       1.0  0.9999994556030929  2.8186208987408974e-07  9.522616232754013e-07  1.0000
  Se  Se1       1.0  0.27962914047178294  0.27963145550684443  0.7203707313587216  1.0000
  Se  Se2       1.0  0.7203663864796226  0.7203724222794835  0.2796337460216172  1.0000
  Se  Se3       1.0  0.7203679990926745  0.27962957484274026  0.27963322019747344  1.0000
  Se  Se4       1.0  0.27963132380822847  0.7203699770586892  0.7203707060531823  1.0000
  Se  Se5       1.0  0.27963035252664264  0.7203690151035935  0.2796312923607465  1.0000
  Se  Se6       1.0  0.7203683104361096  0.2796310465489343  0.7203712677550796  1.0000
