data_image0
_chemical_formula_structural       Fe2BeTe6
_chemical_formula_sum              "Fe2 Be1 Te6"
_cell_length_a       7.039252903599381
_cell_length_b       7.039251835630854
_cell_length_c       7.039253527686407
_cell_angle_alpha    59.99999419497824
_cell_angle_beta     59.99999817527996
_cell_angle_gamma    60.000001349428004

_space_group_name_H-M_alt    "P 1"
_space_group_IT_number       1

loop_
  _space_group_symop_operation_xyz
  'x, y, z'

loop_
  _atom_site_type_symbol
  _atom_site_label
  _atom_site_symmetry_multiplicity
  _atom_site_fract_x
  _atom_site_fract_y
  _atom_site_fract_z
  _atom_site_occupancy
  Fe  Fe1       1.0  0.250000376992252  0.24999990763055058  0.25000010621521085  1.0000
  Fe  Fe2       1.0  0.7499999141145638  0.7500008833911028  0.7499991449950327  1.0000
  Be  Be1       1.0  1.600571548796932e-08  2.087855331348319e-08  0.9999999318366849  1.0000
  Te  Te1       1.0  0.22222246032394138  0.22222135560346767  0.7777780836247622  1.0000
  Te  Te2       1.0  0.7777780512899843  0.7777783949703269  0.22222237593594987  1.0000
  Te  Te3       1.0  0.7777777405241271  0.22222139972438285  0.22222248953431234  1.0000
  Te  Te4       1.0  0.2222220584057145  0.777778333450546  0.7777776290270959  1.0000
  Te  Te5       1.0  0.22222148487308088  0.777778017779307  0.22222226012995494  1.0000
  Te  Te6       1.0  0.7777779120998443  0.22222166145932637  0.7777780167684012  1.0000
