data_image0
_chemical_formula_structural       Fe2BeO6
_chemical_formula_sum              "Fe2 Be1 O6"
_cell_length_a       4.418311136039606
_cell_length_b       4.418311805477189
_cell_length_c       4.418310798073155
_cell_angle_alpha    59.99997995255446
_cell_angle_beta     59.99999907697046
_cell_angle_gamma    59.99998879804133

_space_group_name_H-M_alt    "P 1"
_space_group_IT_number       1

loop_
  _space_group_symop_operation_xyz
  'x, y, z'

loop_
  _atom_site_type_symbol
  _atom_site_label
  _atom_site_symmetry_multiplicity
  _atom_site_fract_x
  _atom_site_fract_y
  _atom_site_fract_z
  _atom_site_occupancy
  Fe  Fe1       1.0  0.24999949836229265  0.25000029701499654  0.2500007024998557  1.0000
  Fe  Fe2       1.0  0.7499999985961121  0.750000073312984  0.7499991527531757  1.0000
  Be  Be1       1.0  0.9999999972008303  5.543946845109545e-08  1.0268841865948686e-07  1.0000
  O   O1        1.0  0.2644155699694366  0.2644157489496195  0.7355848402427659  1.0000
  O   O2        1.0  0.7355846441371457  0.7355841085627683  0.2644153270295008  1.0000
  O   O3        1.0  0.7355845562168344  0.26441547637988305  0.264415989260707  1.0000
  O   O4        1.0  0.2644155266284712  0.7355848690002775  0.7355836466321012  1.0000
  O   O5        1.0  0.26441633446501756  0.7355838432152593  0.2644153192647652  1.0000
  O   O6        1.0  0.7355836850647847  0.2644156650282693  0.7355850293980627  1.0000
