data_image0
_chemical_formula_structural       Fe2CdTe6
_chemical_formula_sum              "Fe2 Cd1 Te6"
_cell_length_a       7.3396322038501705
_cell_length_b       7.339633636298013
_cell_length_c       7.339633142798823
_cell_angle_alpha    60.00001456365782
_cell_angle_beta     60.00000159558936
_cell_angle_gamma    60.000002446570655

_space_group_name_H-M_alt    "P 1"
_space_group_IT_number       1

loop_
  _space_group_symop_operation_xyz
  'x, y, z'

loop_
  _atom_site_type_symbol
  _atom_site_label
  _atom_site_symmetry_multiplicity
  _atom_site_fract_x
  _atom_site_fract_y
  _atom_site_fract_z
  _atom_site_occupancy
  Fe  Fe1       1.0  0.25000001278362055  0.24999995922483323  0.25000012987711767  1.0000
  Fe  Fe2       1.0  0.7499994583944986  0.7500009756611765  0.7499996087918267  1.0000
  Cd  Cd1       1.0  4.826933371929535e-07  0.9999993825910382  1.4638079916570487e-07  1.0000
  Te  Te1       1.0  0.28918798484731545  0.28918720425441075  0.7108127526894541  1.0000
  Te  Te2       1.0  0.7108121286413751  0.7108128278796091  0.28918745681662283  1.0000
  Te  Te3       1.0  0.7108123373804818  0.28918733983757855  0.2891877249936256  1.0000
  Te  Te4       1.0  0.289187786014047  0.7108123652365467  0.7108123855833913  1.0000
  Te  Te5       1.0  0.2891877483540741  0.710812540813508  0.2891872544736495  1.0000
  Te  Te6       1.0  0.7108120697798955  0.28918741456151853  0.7108125157174086  1.0000
