data_image0
_chemical_formula_structural       Fe2CoSe6
_chemical_formula_sum              "Fe2 Co1 Se6"
_cell_length_a       6.131053315149115
_cell_length_b       6.1310531811891
_cell_length_c       6.131053188089454
_cell_angle_alpha    60.00000057204703
_cell_angle_beta     60.00000086400367
_cell_angle_gamma    60.00000046510967

_space_group_name_H-M_alt    "P 1"
_space_group_IT_number       1

loop_
  _space_group_symop_operation_xyz
  'x, y, z'

loop_
  _atom_site_type_symbol
  _atom_site_label
  _atom_site_symmetry_multiplicity
  _atom_site_fract_x
  _atom_site_fract_y
  _atom_site_fract_z
  _atom_site_occupancy
  Fe  Fe1       1.0  0.24999975450647735  0.25000011706638836  0.2500001156044638  1.0000
  Fe  Fe2       1.0  0.7499999595123292  0.7500000995003981  0.7499997951960151  1.0000
  Co  Co1       1.0  3.734414645351754e-08  0.9999999840191259  0.9999999779010758  1.0000
  Se  Se1       1.0  0.27220523249839423  0.2722052073197044  0.7277945455221304  1.0000
  Se  Se2       1.0  0.727794783110113  0.727794765538751  0.2722050884194091  1.0000
  Se  Se3       1.0  0.7277949886491972  0.2722051080671502  0.2722053604776559  1.0000
  Se  Se4       1.0  0.2722053877884521  0.7277946750184306  0.7277948843903177  1.0000
  Se  Se5       1.0  0.27220512251142237  0.7277947960307152  0.2722053499235631  1.0000
  Se  Se6       1.0  0.7277947398395257  0.27220524674406743  0.7277948753494577  1.0000
