data_image0
_chemical_formula_structural       Fe2CrSe6
_chemical_formula_sum              "Fe2 Cr1 Se6"
_cell_length_a       6.184798230720367
_cell_length_b       6.184798032210718
_cell_length_c       6.1847981118059
_cell_angle_alpha    59.99999684520043
_cell_angle_beta     59.99999720642115
_cell_angle_gamma    59.999997948006204

_space_group_name_H-M_alt    "P 1"
_space_group_IT_number       1

loop_
  _space_group_symop_operation_xyz
  'x, y, z'

loop_
  _atom_site_type_symbol
  _atom_site_label
  _atom_site_symmetry_multiplicity
  _atom_site_fract_x
  _atom_site_fract_y
  _atom_site_fract_z
  _atom_site_occupancy
  Fe  Fe1       1.0  0.25000083994456357  0.2499994086184278  0.25000005715213275  1.0000
  Fe  Fe2       1.0  0.7500004548845278  0.7500000239227064  0.7499992135116196  1.0000
  Cr  Cr1       1.0  0.9999999082905939  1.1881501534836118e-08  7.710191039398048e-08  1.0000
  Se  Se1       1.0  0.2767114779494411  0.2767109665268519  0.7232889052580441  1.0000
  Se  Se2       1.0  0.7232887611747133  0.7232886085922914  0.2767118001741262  1.0000
  Se  Se3       1.0  0.723288294169805  0.2767114405222135  0.2767113238545242  1.0000
  Se  Se4       1.0  0.276710751262589  0.7232893128459654  0.7232882639591294  1.0000
  Se  Se5       1.0  0.27671117150763475  0.7232886753128466  0.2767113978870884  1.0000
  Se  Se6       1.0  0.7232883395517096  0.27671154932844927  0.7232889733199885  1.0000
