data_image0
_chemical_formula_structural       Fe2CoN6
_chemical_formula_sum              "Fe2 Co1 N6"
_cell_length_a       4.805108566471435
_cell_length_b       4.805108690081423
_cell_length_c       4.80510862458089
_cell_angle_alpha    60.00000112085867
_cell_angle_beta     60.00000072959851
_cell_angle_gamma    59.99999958855013

_space_group_name_H-M_alt    "P 1"
_space_group_IT_number       1

loop_
  _space_group_symop_operation_xyz
  'x, y, z'

loop_
  _atom_site_type_symbol
  _atom_site_label
  _atom_site_symmetry_multiplicity
  _atom_site_fract_x
  _atom_site_fract_y
  _atom_site_fract_z
  _atom_site_occupancy
  Fe  Fe1       1.0  0.2500001944272643  0.24999996850652492  0.2499998444551281  1.0000
  Fe  Fe2       1.0  0.7500001223549557  0.7499998392497697  0.7500003318111313  1.0000
  Co  Co1       1.0  7.959280441297513e-08  0.9999999847069646  1.155360263521706e-08  1.0000
  N   N1        1.0  0.2613084268254455  0.26130851882258227  0.738691406990532  1.0000
  N   N2        1.0  0.7386914399498412  0.7386914061803133  0.26130820934556687  1.0000
  N   N3        1.0  0.7386914437166097  0.26130868822723424  0.2613083273381712  1.0000
  N   N4        1.0  0.2613082898902341  0.7386914993060856  0.738691659270684  1.0000
  N   N5        1.0  0.2613085257546047  0.7386914314485322  0.26130860451287985  1.0000
  N   N6        1.0  0.7386914315334103  0.2613086617777405  0.7386916212522017  1.0000
