data_image0
_chemical_formula_structural       Fe2CS6
_chemical_formula_sum              "Fe2 C1 S6"
_cell_length_a       5.851812580829931
_cell_length_b       5.85181267348083
_cell_length_c       5.851812289488583
_cell_angle_alpha    60.0000028059727
_cell_angle_beta     59.999999757724424
_cell_angle_gamma    60.00000199893915

_space_group_name_H-M_alt    "P 1"
_space_group_IT_number       1

loop_
  _space_group_symop_operation_xyz
  'x, y, z'

loop_
  _atom_site_type_symbol
  _atom_site_label
  _atom_site_symmetry_multiplicity
  _atom_site_fract_x
  _atom_site_fract_y
  _atom_site_fract_z
  _atom_site_occupancy
  Fe  Fe1       1.0  0.2500001776304438  0.25000003911358915  0.24999999781598736  1.0000
  Fe  Fe2       1.0  0.7500000137525631  0.7500000231588068  0.7500002215002073  1.0000
  C   C1        1.0  0.9999999972299611  0.9999999727918779  0.9999999449253155  1.0000
  S   S1        1.0  0.22889748350406738  0.2288973144836343  0.7711024519614157  1.0000
  S   S2        1.0  0.7711027212779465  0.7711024589640816  0.2288971822146256  1.0000
  S   S3        1.0  0.7711026343246575  0.2288974614956602  0.22889733481472802  1.0000
  S   S4        1.0  0.22889748340908278  0.7711027033304169  0.7711024855529905  1.0000
  S   S5        1.0  0.22889719222567445  0.7711026725325354  0.22889754784296099  1.0000
  S   S6        1.0  0.7711023268824526  0.22889735834586886  0.7711028216607461  1.0000
