data_image0
_chemical_formula_structural       Fe2CaS6
_chemical_formula_sum              "Fe2 Ca1 S6"
_cell_length_a       6.61017321628013
_cell_length_b       6.6101730801740946
_cell_length_c       6.6101732095523795
_cell_angle_alpha    60.00000003628543
_cell_angle_beta     59.999999100062354
_cell_angle_gamma    60.00000248687557

_space_group_name_H-M_alt    "P 1"
_space_group_IT_number       1

loop_
  _space_group_symop_operation_xyz
  'x, y, z'

loop_
  _atom_site_type_symbol
  _atom_site_label
  _atom_site_symmetry_multiplicity
  _atom_site_fract_x
  _atom_site_fract_y
  _atom_site_fract_z
  _atom_site_occupancy
  Fe  Fe1       1.0  0.2500001359736393  0.24999976509538177  0.2500000195272759  1.0000
  Fe  Fe2       1.0  0.7499998578583708  0.7500002013141966  0.7499998276503961  1.0000
  Ca  Ca1       1.0  0.9999999661558129  6.484863547779376e-08  1.3729256227454014e-07  1.0000
  S   S1        1.0  0.2778993046656787  0.2778991570358907  0.7221006960768179  1.0000
  S   S2        1.0  0.7221006863780134  0.7221008334603245  0.2778992160926781  1.0000
  S   S3        1.0  0.722100750086785  0.2778991175536321  0.2778993772573024  1.0000
  S   S4        1.0  0.2778994574639105  0.7221006950720502  0.722100635106709  1.0000
  S   S5        1.0  0.2778992342085323  0.7221007956725617  0.27789931669468154  1.0000
  S   S6        1.0  0.7221006196601378  0.27789936528291986  0.72210077549925  1.0000
