data_image0
_chemical_formula_structural       Fe2CoSe6
_chemical_formula_sum              "Fe2 Co1 Se6"
_cell_length_a       6.130831573285622
_cell_length_b       6.130831675840016
_cell_length_c       6.1308325194257955
_cell_angle_alpha    59.9999993276141
_cell_angle_beta     60.000000254694804
_cell_angle_gamma    60.000004038734616

_space_group_name_H-M_alt    "P 1"
_space_group_IT_number       1

loop_
  _space_group_symop_operation_xyz
  'x, y, z'

loop_
  _atom_site_type_symbol
  _atom_site_label
  _atom_site_symmetry_multiplicity
  _atom_site_fract_x
  _atom_site_fract_y
  _atom_site_fract_z
  _atom_site_occupancy
  Fe  Fe1       1.0  0.2500010346929636  0.2499994066225337  0.2499996157929867  1.0000
  Fe  Fe2       1.0  0.7499998631840102  0.7500006310689482  0.7499996063877344  1.0000
  Co  Co1       1.0  0.9999999247573682  2.7967539095386734e-08  1.2965903433030214e-07  1.0000
  Se  Se1       1.0  0.2722032626659869  0.27220292345683106  0.7277968395902304  1.0000
  Se  Se2       1.0  0.7277965006243106  0.7277970882647447  0.2722031569696174  1.0000
  Se  Se3       1.0  0.7277966728708534  0.27220286908091773  0.2722033685918413  1.0000
  Se  Se4       1.0  0.2722032365699716  0.7277969189003496  0.7277968836991763  1.0000
  Se  Se5       1.0  0.2722029188919875  0.7277972556885823  0.27220309285093214  1.0000
  Se  Se6       1.0  0.7277965412015996  0.2722028858822805  0.7277973296513873  1.0000
