data_image0
_chemical_formula_structural       Fe2CoTe6
_chemical_formula_sum              "Fe2 Co1 Te6"
_cell_length_a       6.8152997449450945
_cell_length_b       6.815299449479491
_cell_length_c       6.8152995368368465
_cell_angle_alpha    60.00000357345028
_cell_angle_beta     60.000002266146225
_cell_angle_gamma    60.00000593632062

_space_group_name_H-M_alt    "P 1"
_space_group_IT_number       1

loop_
  _space_group_symop_operation_xyz
  'x, y, z'

loop_
  _atom_site_type_symbol
  _atom_site_label
  _atom_site_symmetry_multiplicity
  _atom_site_fract_x
  _atom_site_fract_y
  _atom_site_fract_z
  _atom_site_occupancy
  Fe  Fe1       1.0  0.2499993563151243  0.25000083214373364  0.24999968703172426  1.0000
  Fe  Fe2       1.0  0.7499998634001704  0.7499998781264213  0.7500000232527042  1.0000
  Co  Co1       1.0  1.220791161209399e-07  0.999999669342428  2.554197738858559e-07  1.0000
  Te  Te1       1.0  0.2522066028638962  0.25220639793126143  0.7477933780241597  1.0000
  Te  Te2       1.0  0.7477936701253372  0.7477933940453304  0.25220628237750636  1.0000
  Te  Te3       1.0  0.7477940454215786  0.2522064562270005  0.2522063649814325  1.0000
  Te  Te4       1.0  0.25220652752821265  0.7477930356419433  0.7477941773332231  1.0000
  Te  Te5       1.0  0.25220626374421173  0.7477935438692914  0.2522064390802909  1.0000
  Te  Te6       1.0  0.7477935559566922  0.25220679980227734  0.7477933892765308  1.0000
