data_image0
_chemical_formula_structural       Fe2CrN6
_chemical_formula_sum              "Fe2 Cr1 N6"
_cell_length_a       4.8363494551782935
_cell_length_b       4.836349491725598
_cell_length_c       4.836349409445332
_cell_angle_alpha    59.99999974052561
_cell_angle_beta     59.99999946438595
_cell_angle_gamma    59.999999828992756

_space_group_name_H-M_alt    "P 1"
_space_group_IT_number       1

loop_
  _space_group_symop_operation_xyz
  'x, y, z'

loop_
  _atom_site_type_symbol
  _atom_site_label
  _atom_site_symmetry_multiplicity
  _atom_site_fract_x
  _atom_site_fract_y
  _atom_site_fract_z
  _atom_site_occupancy
  Fe  Fe1       1.0  0.24999998166951523  0.2500000183888937  0.25000000204079637  1.0000
  Fe  Fe2       1.0  0.7499999839582703  0.7499999741306929  0.7500000375038974  1.0000
  Cr  Cr1       1.0  1.6882497279364204e-09  0.9999999949352507  5.823600306365605e-09  1.0000
  N   N1        1.0  0.2680503114977979  0.26805031822262493  0.7319496694639879  1.0000
  N   N2        1.0  0.7319497004823105  0.7319496641674633  0.26805030027741195  1.0000
  N   N3        1.0  0.7319496850716942  0.2680503192361969  0.268050302894637  1.0000
  N   N4        1.0  0.26805032702839415  0.7319496986071358  0.7319497007520318  1.0000
  N   N5        1.0  0.26805032865015244  0.7319496913145378  0.268050301360988  1.0000
  N   N6        1.0  0.7319496795189695  0.2680503239964204  0.7319496848405986  1.0000
