data_image0
_chemical_formula_structural       Fe2CuTe6
_chemical_formula_sum              "Fe2 Cu1 Te6"
_cell_length_a       6.863828061186248
_cell_length_b       6.863826451116696
_cell_length_c       6.863827654248375
_cell_angle_alpha    59.999994163676824
_cell_angle_beta     59.99999829115225
_cell_angle_gamma    59.99999337418697

_space_group_name_H-M_alt    "P 1"
_space_group_IT_number       1

loop_
  _space_group_symop_operation_xyz
  'x, y, z'

loop_
  _atom_site_type_symbol
  _atom_site_label
  _atom_site_symmetry_multiplicity
  _atom_site_fract_x
  _atom_site_fract_y
  _atom_site_fract_z
  _atom_site_occupancy
  Fe  Fe1       1.0  0.2500003532703398  0.24999938010070352  0.25000025347914046  1.0000
  Fe  Fe2       1.0  0.7500000430628172  0.7500007918421114  0.7499996676849852  1.0000
  Cu  Cu1       1.0  1.0736093883935736e-07  1.6059125333966237e-08  0.999999904780965  1.0000
  Te  Te1       1.0  0.26762077575589005  0.2676202317338399  0.7323794633691325  1.0000
  Te  Te2       1.0  0.732379181602519  0.73237975820555  0.2676205089535711  1.0000
  Te  Te3       1.0  0.732379425171954  0.2676201025456041  0.2676208780702882  1.0000
  Te  Te4       1.0  0.2676202968863165  0.7323798463537983  0.7323792571900064  1.0000
  Te  Te5       1.0  0.26762034766181525  0.7323797758716711  0.2676205317295716  1.0000
  Te  Te6       1.0  0.7323794728036567  0.26762009986949387  0.7323795340866299  1.0000
