data_image0
_chemical_formula_structural       Fe2CoS6
_chemical_formula_sum              "Fe2 Co1 S6"
_cell_length_a       5.9399299084458
_cell_length_b       5.939930044163623
_cell_length_c       5.939930095554107
_cell_angle_alpha    59.99999934398693
_cell_angle_beta     59.999999243374916
_cell_angle_gamma    60.00000065738497

_space_group_name_H-M_alt    "P 1"
_space_group_IT_number       1

loop_
  _space_group_symop_operation_xyz
  'x, y, z'

loop_
  _atom_site_type_symbol
  _atom_site_label
  _atom_site_symmetry_multiplicity
  _atom_site_fract_x
  _atom_site_fract_y
  _atom_site_fract_z
  _atom_site_occupancy
  Fe  Fe1       1.0  0.24999997213049674  0.24999992274877858  0.2500000763443857  1.0000
  Fe  Fe2       1.0  0.7499999720554298  0.7500000094868042  0.7499999543168404  1.0000
  Co  Co1       1.0  7.991463612117125e-09  2.2680727770988644e-08  0.9999999863474257  1.0000
  S   S1        1.0  0.2548012403261239  0.2548012528882037  0.7451988011173346  1.0000
  S   S2        1.0  0.745198766595538  0.7451987535752151  0.2548012755415675  1.0000
  S   S3        1.0  0.7451987028264034  0.2548013345485084  0.2548012438177614  1.0000
  S   S4        1.0  0.2548013210990115  0.745198731709557  0.7451986967976939  1.0000
  S   S5        1.0  0.25480129644296096  0.7451986848090971  0.25480128460257073  1.0000
  S   S6        1.0  0.7451987213574954  0.2548012948498261  0.7451986771221129  1.0000
