data_image0
_chemical_formula_structural       Fe2CrO6
_chemical_formula_sum              "Fe2 Cr1 O6"
_cell_length_a       3.5026351759153243
_cell_length_b       3.2962765799641947
_cell_length_c       4.639689891953078
_cell_angle_alpha    31.382070026887135
_cell_angle_beta     67.10643219085617
_cell_angle_gamma    47.63353856589733

_space_group_name_H-M_alt    "P 1"
_space_group_IT_number       1

loop_
  _space_group_symop_operation_xyz
  'x, y, z'

loop_
  _atom_site_type_symbol
  _atom_site_label
  _atom_site_symmetry_multiplicity
  _atom_site_fract_x
  _atom_site_fract_y
  _atom_site_fract_z
  _atom_site_occupancy
  Fe  Fe1       1.0  0.9432077083534018  0.43669236412977724  0.7913584495297308  1.0000
  Fe  Fe2       1.0  0.668796930918692  0.15179051070735228  0.7124230081468852  1.0000
  Cr  Cr1       1.0  0.4847001706094941  0.7142120411550441  0.1286599984470394  1.0000
  O   O1        1.0  0.2284373768003801  0.6591976799187679  0.44719330937989943  1.0000
  O   O2        1.0  0.49126362474767066  0.2943301837026282  0.10747951647858811  1.0000
  O   O3        1.0  0.31442297718046386  0.4519196102400679  0.39492615728916475  1.0000
  O   O4        1.0  0.3656545753661149  0.14372062473031533  0.9767254119733602  1.0000
  O   O5        1.0  0.2874187960471754  0.7348518523984253  0.21505410087749147  1.0000
  O   O6        1.0  0.7044811425370155  0.57788012149486  0.40388847271271566  1.0000
