data_image0
_chemical_formula_structural       Fe2CoO6
_chemical_formula_sum              "Fe2 Co1 O6"
_cell_length_a       5.071295276536343
_cell_length_b       5.071295350328595
_cell_length_c       5.0712952962896525
_cell_angle_alpha    60.00000458326232
_cell_angle_beta     60.00000348580915
_cell_angle_gamma    60.000001580611745

_space_group_name_H-M_alt    "P 1"
_space_group_IT_number       1

loop_
  _space_group_symop_operation_xyz
  'x, y, z'

loop_
  _atom_site_type_symbol
  _atom_site_label
  _atom_site_symmetry_multiplicity
  _atom_site_fract_x
  _atom_site_fract_y
  _atom_site_fract_z
  _atom_site_occupancy
  Fe  Fe1       1.0  0.24999999985571622  0.2500000312266754  0.24999987541895788  1.0000
  Fe  Fe2       1.0  0.7499999634835358  0.7499999560219941  0.7499997367902843  1.0000
  Co  Co1       1.0  2.7070665000174357e-08  0.9999999734344096  0.9999998696031974  1.0000
  O   O1        1.0  0.2507621633520056  0.25076192278968923  0.7492379902758687  1.0000
  O   O2        1.0  0.7492379769449189  0.7492380185729864  0.2507621538780281  1.0000
  O   O3        1.0  0.7492378587797931  0.25076210844394253  0.2507619799526261  1.0000
  O   O4        1.0  0.2507620621460703  0.749238033368152  0.749238102674311  1.0000
  O   O5        1.0  0.25076190276987415  0.7492379993639764  0.250762176512988  1.0000
  O   O6        1.0  0.7492379928138486  0.25076195890407743  0.749238122954353  1.0000
