data_image0
_chemical_formula_structural       Fe2CS6
_chemical_formula_sum              "Fe2 C1 S6"
_cell_length_a       4.108496290751425
_cell_length_b       17.494308913940365
_cell_length_c       7.847959704155304
_cell_angle_alpha    51.32262583340387
_cell_angle_beta     72.53568761958016
_cell_angle_gamma    75.3907049896114

_space_group_name_H-M_alt    "P 1"
_space_group_IT_number       1

loop_
  _space_group_symop_operation_xyz
  'x, y, z'

loop_
  _atom_site_type_symbol
  _atom_site_label
  _atom_site_symmetry_multiplicity
  _atom_site_fract_x
  _atom_site_fract_y
  _atom_site_fract_z
  _atom_site_occupancy
  Fe  Fe1       1.0  0.8980612766972947  0.9432159037784509  0.682861170324164  1.0000
  Fe  Fe2       1.0  0.9545326737188248  0.9645137847630152  0.5390682490846146  1.0000
  C   C1        1.0  0.4809097220869796  0.9498694778442784  0.6494063744946657  1.0000
  S   S1        1.0  0.3168338067650778  0.9950656021480238  0.5731744221484758  1.0000
  S   S2        1.0  0.3554406881374074  0.9031584440295797  0.6850012143733821  1.0000
  S   S3        1.0  0.16109202428219782  0.946935702286027  0.6758471424019117  1.0000
  S   S4        1.0  0.9708580484868724  0.3627056078740658  0.10807846794937859  1.0000
  S   S5        1.0  0.27177673173900996  0.9426291103559676  0.7543100733468091  1.0000
  S   S6        1.0  0.26020817092615195  0.9492236367557403  0.5612770880942853  1.0000
