data_image0
_chemical_formula_structural       Fe2CuS6
_chemical_formula_sum              "Fe2 Cu1 S6"
_cell_length_a       6.0420781493288676
_cell_length_b       6.042078051744196
_cell_length_c       6.042077455458815
_cell_angle_alpha    59.999999970526126
_cell_angle_beta     60.00000115916247
_cell_angle_gamma    60.00000023704358

_space_group_name_H-M_alt    "P 1"
_space_group_IT_number       1

loop_
  _space_group_symop_operation_xyz
  'x, y, z'

loop_
  _atom_site_type_symbol
  _atom_site_label
  _atom_site_symmetry_multiplicity
  _atom_site_fract_x
  _atom_site_fract_y
  _atom_site_fract_z
  _atom_site_occupancy
  Fe  Fe1       1.0  0.25000039654894124  0.2500002559110026  0.249999631488551  1.0000
  Fe  Fe2       1.0  0.7500002582134345  0.7500004717872181  0.7499996521454783  1.0000
  Cu  Cu1       1.0  0.9999999622417444  0.9999999756756888  3.9316584209014764e-08  1.0000
  S   S1        1.0  0.2610726720310218  0.26107236453086846  0.7389274906237047  1.0000
  S   S2        1.0  0.7389272965845753  0.7389274976272866  0.26107259202462013  1.0000
  S   S3        1.0  0.7389273836857496  0.26107243567200394  0.26107264285979004  1.0000
  S   S4        1.0  0.2610723534187323  0.7389273068916214  0.7389276236166644  1.0000
  S   S5        1.0  0.26107235011146146  0.7389272632126593  0.26107277826968106  1.0000
  S   S6        1.0  0.7389273173058409  0.2610724590807056  0.7389275712518724  1.0000
