data_image0
_chemical_formula_structural       Fe2CuO6
_chemical_formula_sum              "Fe2 Cu1 O6"
_cell_length_a       5.0643548339406275
_cell_length_b       5.064355050891548
_cell_length_c       5.0643551328738985
_cell_angle_alpha    60.000001705059
_cell_angle_beta     59.999999955305455
_cell_angle_gamma    60.00000130299368

_space_group_name_H-M_alt    "P 1"
_space_group_IT_number       1

loop_
  _space_group_symop_operation_xyz
  'x, y, z'

loop_
  _atom_site_type_symbol
  _atom_site_label
  _atom_site_symmetry_multiplicity
  _atom_site_fract_x
  _atom_site_fract_y
  _atom_site_fract_z
  _atom_site_occupancy
  Fe  Fe1       1.0  0.24999994755535512  0.2500002234955519  0.24999984403269035  1.0000
  Fe  Fe2       1.0  0.750000229848891  0.7500000151103091  0.7499998458820667  1.0000
  Cu  Cu1       1.0  0.9999998936198278  3.869380809724762e-08  1.009790733487826e-07  1.0000
  O   O1        1.0  0.2545640905063045  0.2545640630733773  0.7454359503696156  1.0000
  O   O2        1.0  0.7454359073309317  0.7454359070942026  0.25456405437869273  1.0000
  O   O3        1.0  0.7454359957830432  0.2545639435511368  0.2545641053240846  1.0000
  O   O4        1.0  0.2545641636655171  0.7454358017086916  0.745435907377415  1.0000
  O   O5        1.0  0.2545639823991597  0.7454358725856925  0.25456419217369847  1.0000
  O   O6        1.0  0.7454358036458892  0.25456412418388075  0.7454359505851605  1.0000
