data_image0
_chemical_formula_structural       Fe2CaSe6
_chemical_formula_sum              "Fe2 Ca1 Se6"
_cell_length_a       6.893628619205687
_cell_length_b       6.893629113949889
_cell_length_c       6.893628766616642
_cell_angle_alpha    60.00000848495948
_cell_angle_beta     59.99999944611497
_cell_angle_gamma    60.00000105261815

_space_group_name_H-M_alt    "P 1"
_space_group_IT_number       1

loop_
  _space_group_symop_operation_xyz
  'x, y, z'

loop_
  _atom_site_type_symbol
  _atom_site_label
  _atom_site_symmetry_multiplicity
  _atom_site_fract_x
  _atom_site_fract_y
  _atom_site_fract_z
  _atom_site_occupancy
  Fe  Fe1       1.0  0.2500001015263774  0.24999984204727166  0.2500000351030027  1.0000
  Fe  Fe2       1.0  0.749999820502156  0.7500001994856839  0.7500001789469145  1.0000
  Ca  Ca1       1.0  0.9999998954197199  6.751204614176688e-08  0.9999999474539946  1.0000
  Se  Se1       1.0  0.29875184406236155  0.2987515722440923  0.7012482805167549  1.0000
  Se  Se2       1.0  0.7012481499514468  0.7012488814676389  0.29875128527901085  1.0000
  Se  Se3       1.0  0.7012479399070594  0.2987517895378312  0.2987518287826054  1.0000
  Se  Se4       1.0  0.29875154519227826  0.7012483266136968  0.7012482240775308  1.0000
  Se  Se5       1.0  0.298752060940506  0.7012482548742677  0.2987516762720229  1.0000
  Se  Se6       1.0  0.7012486460106856  0.2987510600158368  0.701248555057628  1.0000
