data_image0
_chemical_formula_structural       Fe2CaO6
_chemical_formula_sum              "Fe2 Ca1 O6"
_cell_length_a       5.4280864163116025
_cell_length_b       5.428086156912268
_cell_length_c       5.428086298484576
_cell_angle_alpha    60.00000114064231
_cell_angle_beta     60.00000160435069
_cell_angle_gamma    60.00000192347653

_space_group_name_H-M_alt    "P 1"
_space_group_IT_number       1

loop_
  _space_group_symop_operation_xyz
  'x, y, z'

loop_
  _atom_site_type_symbol
  _atom_site_label
  _atom_site_symmetry_multiplicity
  _atom_site_fract_x
  _atom_site_fract_y
  _atom_site_fract_z
  _atom_site_occupancy
  Fe  Fe1       1.0  0.24999999729030867  0.2500001683484553  0.2499996630198832  1.0000
  Fe  Fe2       1.0  0.7499997334724733  0.7499998507152823  0.7499998746727926  1.0000
  Ca  Ca1       1.0  0.9999999265778761  0.999999945848542  1.0360962592652532e-08  1.0000
  O   O1        1.0  0.28220577733404006  0.2822057324667498  0.7177942791759014  1.0000
  O   O2        1.0  0.7177944648768151  0.7177942392144875  0.282205663909376  1.0000
  O   O3        1.0  0.7177944088170181  0.282205672081239  0.28220560732699607  1.0000
  O   O4        1.0  0.28220594921397835  0.7177941755029197  0.7177945536000574  1.0000
  O   O5        1.0  0.2822055536830724  0.7177944378262873  0.2822057625506062  1.0000
  O   O6        1.0  0.7177941936000507  0.28220579333066836  0.7177945506516548  1.0000
