data_image0
_chemical_formula_structural       Fe2CN6
_chemical_formula_sum              "Fe2 C1 N6"
_cell_length_a       4.658116785766351
_cell_length_b       4.658116968109017
_cell_length_c       4.6581168781348
_cell_angle_alpha    59.999999963088975
_cell_angle_beta     59.999999213319235
_cell_angle_gamma    59.99999940675113

_space_group_name_H-M_alt    "P 1"
_space_group_IT_number       1

loop_
  _space_group_symop_operation_xyz
  'x, y, z'

loop_
  _atom_site_type_symbol
  _atom_site_label
  _atom_site_symmetry_multiplicity
  _atom_site_fract_x
  _atom_site_fract_y
  _atom_site_fract_z
  _atom_site_occupancy
  Fe  Fe1       1.0  0.2499998646044926  0.24999995762297633  0.25000010259005917  1.0000
  Fe  Fe2       1.0  0.7500001787822703  0.7499999622641137  0.7499998503679328  1.0000
  C   C1        1.0  0.9999999390026967  7.887810810124294e-08  3.109313477970733e-07  1.0000
  N   N1        1.0  0.23489813592820152  0.23489818273007904  0.7651018890155646  1.0000
  N   N2        1.0  0.7651018911072567  0.7651017713375236  0.23489830834907544  1.0000
  N   N3        1.0  0.76510198732212  0.23489808078898422  0.23489798169815346  1.0000
  N   N4        1.0  0.23489820011578208  0.7651018680200794  0.7651016271584494  1.0000
  N   N5        1.0  0.23489799990786872  0.7651018981131799  0.23489814399003323  1.0000
  N   N6        1.0  0.7651018437361652  0.23489822685699832  0.7651017268665383  1.0000
