data_image0
_chemical_formula_structural       Fe2CaTe6
_chemical_formula_sum              "Fe2 Ca1 Te6"
_cell_length_a       7.6221284544383385
_cell_length_b       7.622128050165048
_cell_length_c       7.6221286028408395
_cell_angle_alpha    59.999999948661554
_cell_angle_beta     59.99999498409966
_cell_angle_gamma    60.000000390574094

_space_group_name_H-M_alt    "P 1"
_space_group_IT_number       1

loop_
  _space_group_symop_operation_xyz
  'x, y, z'

loop_
  _atom_site_type_symbol
  _atom_site_label
  _atom_site_symmetry_multiplicity
  _atom_site_fract_x
  _atom_site_fract_y
  _atom_site_fract_z
  _atom_site_occupancy
  Fe  Fe1       1.0  0.2500000515021671  0.24999998353770528  0.25000002569940466  1.0000
  Fe  Fe2       1.0  0.7499999445242443  0.7500001578939115  0.7499998737817184  1.0000
  Ca  Ca1       1.0  0.9999999273093865  2.6351979432705e-07  7.120553899852217e-08  1.0000
  Te  Te1       1.0  0.28911595152697056  0.2891156799960501  0.7108841308991967  1.0000
  Te  Te2       1.0  0.7108841113587094  0.710884265402552  0.28911577150622897  1.0000
  Te  Te3       1.0  0.7108840929586729  0.2891157437487626  0.28911583571838967  1.0000
  Te  Te4       1.0  0.28911584626972364  0.7108841454108616  0.7108842576568186  1.0000
  Te  Te5       1.0  0.2891158852385829  0.7108840115287434  0.2891158100500277  1.0000
  Te  Te6       1.0  0.7108842018125768  0.2891157522982999  0.7108842274731206  1.0000
