data_image0
_chemical_formula_structural       Fe2CO6
_chemical_formula_sum              "Fe2 C1 O6"
_cell_length_a       4.467795784670368
_cell_length_b       4.4772605156419285
_cell_length_c       4.468754931936356
_cell_angle_alpha    60.00986850186397
_cell_angle_beta     60.05744199700757
_cell_angle_gamma    59.82685853094807

_space_group_name_H-M_alt    "P 1"
_space_group_IT_number       1

loop_
  _space_group_symop_operation_xyz
  'x, y, z'

loop_
  _atom_site_type_symbol
  _atom_site_label
  _atom_site_symmetry_multiplicity
  _atom_site_fract_x
  _atom_site_fract_y
  _atom_site_fract_z
  _atom_site_occupancy
  Fe  Fe1       1.0  0.2791986176828383  0.23423901897687902  0.2441229422306918  1.0000
  Fe  Fe2       1.0  0.7810095042374744  0.7318009536324824  0.7446354831515132  1.0000
  C   C1        1.0  0.9917900256245084  0.004799707645627644  0.001793177070878452  1.0000
  O   O1        1.0  0.22651212117482913  0.23792571177654007  0.7666017530447164  1.0000
  O   O2        1.0  0.7569818142823752  0.7747696196254097  0.23308146470531135  1.0000
  O   O3        1.0  0.7597507241364432  0.237062167215214  0.23221005797564012  1.0000
  O   O4        1.0  0.22323827661730503  0.7708126691864478  0.7656114448337898  1.0000
  O   O5        1.0  0.22530553349993798  0.768644917119231  0.23842147248449497  1.0000
  O   O6        1.0  0.7562135750433591  0.23994679227556312  0.7735206780099725  1.0000
