data_image0
_chemical_formula_structural       Fe2CdS6
_chemical_formula_sum              "Fe2 Cd1 S6"
_cell_length_a       6.281644432749226
_cell_length_b       6.281645652413996
_cell_length_c       6.2816432991459115
_cell_angle_alpha    60.00000122875777
_cell_angle_beta     59.999999171889215
_cell_angle_gamma    60.000006168342225

_space_group_name_H-M_alt    "P 1"
_space_group_IT_number       1

loop_
  _space_group_symop_operation_xyz
  'x, y, z'

loop_
  _atom_site_type_symbol
  _atom_site_label
  _atom_site_symmetry_multiplicity
  _atom_site_fract_x
  _atom_site_fract_y
  _atom_site_fract_z
  _atom_site_occupancy
  Fe  Fe1       1.0  0.24999959973064328  0.2499984218181796  0.25000136767013315  1.0000
  Fe  Fe2       1.0  0.7500002574382266  0.7500005082509246  0.7499993722764551  1.0000
  Cd  Cd1       1.0  0.9999999909395658  0.9999999610056095  0.9999999921886137  1.0000
  S   S1        1.0  0.2747522558711139  0.2747513326189693  0.7252482911743315  1.0000
  S   S2        1.0  0.7252479236154833  0.7252487536338459  0.2747523558491128  1.0000
  S   S3        1.0  0.7252484044119838  0.2747511613370279  0.274752319175011  1.0000
  S   S4        1.0  0.27475088866979946  0.7252497808428382  0.7252469676510227  1.0000
  S   S5        1.0  0.2747514080108261  0.7252489606079261  0.27475214007453824  1.0000
  S   S6        1.0  0.7252493124681888  0.27475109639921624  0.725247189251447  1.0000
