data_image0
_chemical_formula_structural       Fe2CrO6
_chemical_formula_sum              "Fe2 Cr1 O6"
_cell_length_a       5.233948599166166
_cell_length_b       5.233948370478082
_cell_length_c       5.233948629264851
_cell_angle_alpha    59.99999967241632
_cell_angle_beta     60.000000174728235
_cell_angle_gamma    59.99999974978645

_space_group_name_H-M_alt    "P 1"
_space_group_IT_number       1

loop_
  _space_group_symop_operation_xyz
  'x, y, z'

loop_
  _atom_site_type_symbol
  _atom_site_label
  _atom_site_symmetry_multiplicity
  _atom_site_fract_x
  _atom_site_fract_y
  _atom_site_fract_z
  _atom_site_occupancy
  Fe  Fe1       1.0  0.25000003242177643  0.2500000061693504  0.25000000972867  1.0000
  Fe  Fe2       1.0  0.7500000009506788  0.750000055948079  0.7499999802885825  1.0000
  Cr  Cr1       1.0  1.8918783763594467e-08  4.914003880679997e-08  0.9999999736130029  1.0000
  O   O1        1.0  0.2511951331216577  0.2511951969201689  0.7488048134576704  1.0000
  O   O2        1.0  0.7488049061352445  0.7488047879771986  0.25119513580325337  1.0000
  O   O3        1.0  0.748804799421618  0.25119512445886033  0.2511951896175752  1.0000
  O   O4        1.0  0.25119518064708507  0.7488048791585221  0.7488048200001118  1.0000
  O   O5        1.0  0.2511951299273053  0.7488048537462518  0.25119513842969865  1.0000
  O   O6        1.0  0.7488048094514818  0.25119504691104894  0.7488049028903148  1.0000
