data_image0
_chemical_formula_structural       Fe2CO6
_chemical_formula_sum              "Fe2 C1 O6"
_cell_length_a       4.434511603211962
_cell_length_b       4.434511837661502
_cell_length_c       4.434511161995528
_cell_angle_alpha    59.99999942898868
_cell_angle_beta     59.99999789283565
_cell_angle_gamma    60.00000209548706

_space_group_name_H-M_alt    "P 1"
_space_group_IT_number       1

loop_
  _space_group_symop_operation_xyz
  'x, y, z'

loop_
  _atom_site_type_symbol
  _atom_site_label
  _atom_site_symmetry_multiplicity
  _atom_site_fract_x
  _atom_site_fract_y
  _atom_site_fract_z
  _atom_site_occupancy
  Fe  Fe1       1.0  0.2500077604992507  0.24999961985149413  0.25000080113292905  1.0000
  Fe  Fe2       1.0  0.7500032366400234  0.7500029608993783  0.7499936675645724  1.0000
  C   C1        1.0  0.9999986041857124  0.9999996879111301  6.780585297934248e-07  1.0000
  O   O1        1.0  0.23775085716765823  0.2377507707839002  0.762247702271056  1.0000
  O   O2        1.0  0.762247098900247  0.7622502108566587  0.23775232082157557  1.0000
  O   O3        1.0  0.7622454974754764  0.23774940947559092  0.23775292708960633  1.0000
  O   O4        1.0  0.2377499655283366  0.7622487633653001  0.762249347793048  1.0000
  O   O5        1.0  0.23774896390161762  0.7622477917638104  0.2377529444957487  1.0000
  O   O6        1.0  0.7622480057287173  0.23775057164457414  0.7622499881565407  1.0000
