data_image0
_chemical_formula_structural       Fe2GeTe6
_chemical_formula_sum              "Fe2 Ge1 Te6"
_cell_length_a       7.154386758689715
_cell_length_b       7.154386636660991
_cell_length_c       7.15438681010137
_cell_angle_alpha    60.000001457106904
_cell_angle_beta     60.00000138057356
_cell_angle_gamma    60.000002374607746

_space_group_name_H-M_alt    "P 1"
_space_group_IT_number       1

loop_
  _space_group_symop_operation_xyz
  'x, y, z'

loop_
  _atom_site_type_symbol
  _atom_site_label
  _atom_site_symmetry_multiplicity
  _atom_site_fract_x
  _atom_site_fract_y
  _atom_site_fract_z
  _atom_site_occupancy
  Fe  Fe1       1.0  0.24999997174300803  0.2500001079069328  0.24999988293017067  1.0000
  Fe  Fe2       1.0  0.7500001318684103  0.7499998529539242  0.7500002678600776  1.0000
  Ge  Ge1       1.0  0.9999999838434472  2.9101952298945968e-08  0.9999999697656555  1.0000
  Te  Te1       1.0  0.2792961035976366  0.27929599301127017  0.7207039444903802  1.0000
  Te  Te2       1.0  0.7207038891893792  0.7207038548655259  0.27929603725758717  1.0000
  Te  Te3       1.0  0.7207039859554296  0.2792961666819414  0.2792959940732389  1.0000
  Te  Te4       1.0  0.2792959239117337  0.720703910586719  0.7207039409958582  1.0000
  Te  Te5       1.0  0.27929614082526194  0.7207040081184664  0.27929596590948036  1.0000
  Te  Te6       1.0  0.7207038645433729  0.27929608284523416  0.7207039928350168  1.0000
