data_image0
_chemical_formula_structural       Fe2GeN6
_chemical_formula_sum              "Fe2 Ge1 N6"
_cell_length_a       4.822483567106475
_cell_length_b       4.822483309009224
_cell_length_c       4.822483281967832
_cell_angle_alpha    59.999998715561915
_cell_angle_beta     60.00000082757353
_cell_angle_gamma    59.999999459720854

_space_group_name_H-M_alt    "P 1"
_space_group_IT_number       1

loop_
  _space_group_symop_operation_xyz
  'x, y, z'

loop_
  _atom_site_type_symbol
  _atom_site_label
  _atom_site_symmetry_multiplicity
  _atom_site_fract_x
  _atom_site_fract_y
  _atom_site_fract_z
  _atom_site_occupancy
  Fe  Fe1       1.0  0.25000036097513006  0.24999978679679064  0.2499998173199078  1.0000
  Fe  Fe2       1.0  0.7499999862974627  0.750000071494053  0.7500000013845671  1.0000
  Ge  Ge1       1.0  1.4511708639035901e-08  0.9999999923810323  0.9999999695965636  1.0000
  N   N1        1.0  0.2795959617161987  0.27959589893524395  0.7204041176901204  1.0000
  N   N2        1.0  0.7204038815888664  0.720404228559135  0.2795959656234048  1.0000
  N   N3        1.0  0.7204040671762824  0.2795959897204916  0.27959589041231264  1.0000
  N   N4        1.0  0.2795959069997293  0.7204040971393929  0.7204040586173059  1.0000
  N   N5        1.0  0.27959593065214533  0.7204040340346072  0.2795959913670728  1.0000
  N   N6        1.0  0.7204038893894806  0.2795958902872869  0.7204042134588986  1.0000
