data_image0
_chemical_formula_structural       Fe2GeO6
_chemical_formula_sum              "Fe2 Ge1 O6"
_cell_length_a       5.069990146847953
_cell_length_b       5.069989686010915
_cell_length_c       5.069989680464245
_cell_angle_alpha    60.000003645606846
_cell_angle_beta     60.000002718698326
_cell_angle_gamma    60.000001253084854

_space_group_name_H-M_alt    "P 1"
_space_group_IT_number       1

loop_
  _space_group_symop_operation_xyz
  'x, y, z'

loop_
  _atom_site_type_symbol
  _atom_site_label
  _atom_site_symmetry_multiplicity
  _atom_site_fract_x
  _atom_site_fract_y
  _atom_site_fract_z
  _atom_site_occupancy
  Fe  Fe1       1.0  0.24999981651992065  0.24999977836821557  0.2500000351466324  1.0000
  Fe  Fe2       1.0  0.7500003777138788  0.7500002675553015  0.7499996780971382  1.0000
  Ge  Ge1       1.0  0.9999999962264803  3.8650802570837595e-08  0.9999999667822348  1.0000
  O   O1        1.0  0.2557728504200955  0.2557727317588371  0.7442270632950752  1.0000
  O   O2        1.0  0.7442271112540387  0.7442272875922471  0.2557726789228237  1.0000
  O   O3        1.0  0.7442275509414825  0.2557726661512434  0.255772872785506  1.0000
  O   O4        1.0  0.2557727407678791  0.7442272444944773  0.7442272045277332  1.0000
  O   O5        1.0  0.25577251459354483  0.7442273060427081  0.25577310525885566  1.0000
  O   O6        1.0  0.7442270491579082  0.2557727592062251  0.744227341572143  1.0000
