data_image0
_chemical_formula_structural       Fe2GeSe6
_chemical_formula_sum              "Fe2 Ge1 Se6"
_cell_length_a       6.521059861153484
_cell_length_b       6.521059588246144
_cell_length_c       6.521060003338967
_cell_angle_alpha    59.999998918544726
_cell_angle_beta     60.00000010733118
_cell_angle_gamma    60.00000206948608

_space_group_name_H-M_alt    "P 1"
_space_group_IT_number       1

loop_
  _space_group_symop_operation_xyz
  'x, y, z'

loop_
  _atom_site_type_symbol
  _atom_site_label
  _atom_site_symmetry_multiplicity
  _atom_site_fract_x
  _atom_site_fract_y
  _atom_site_fract_z
  _atom_site_occupancy
  Fe  Fe1       1.0  0.25000003882658334  0.250000040308817  0.24999995140899675  1.0000
  Fe  Fe2       1.0  0.7500002109421225  0.7499997791053679  0.7500000239111341  1.0000
  Ge  Ge1       1.0  0.9999999032545869  0.9999999661935156  1.0207978038051398e-07  1.0000
  Se  Se1       1.0  0.2925540048861482  0.29255435807101565  0.7074458175054357  1.0000
  Se  Se2       1.0  0.707445908561128  0.7074459815873385  0.2925540167815508  1.0000
  Se  Se3       1.0  0.7074458534424817  0.2925541351147295  0.29255413357942217  1.0000
  Se  Se4       1.0  0.29255413840795746  0.707445714349651  0.7074459127369386  1.0000
  Se  Se5       1.0  0.292554097927703  0.7074458253979413  0.29255416374154747  1.0000
  Se  Se6       1.0  0.7074458418535162  0.2925541855862919  0.7074458753877811  1.0000
