data_image0
_chemical_formula_structural       Fe2GeO6
_chemical_formula_sum              "Fe2 Ge1 O6"
_cell_length_a       4.580082200878077
_cell_length_b       4.580082280603451
_cell_length_c       4.580082115821403
_cell_angle_alpha    60.00000149228794
_cell_angle_beta     60.000001432106046
_cell_angle_gamma    60.00000078806127

_space_group_name_H-M_alt    "P 1"
_space_group_IT_number       1

loop_
  _space_group_symop_operation_xyz
  'x, y, z'

loop_
  _atom_site_type_symbol
  _atom_site_label
  _atom_site_symmetry_multiplicity
  _atom_site_fract_x
  _atom_site_fract_y
  _atom_site_fract_z
  _atom_site_occupancy
  Fe  Fe1       1.0  0.249999943341325  0.25000001615625295  0.25000004902374956  1.0000
  Fe  Fe2       1.0  0.7500000456968355  0.7499999762689391  0.7499999617996475  1.0000
  Ge  Ge1       1.0  0.9999999990824052  4.8133212454769435e-08  0.9999999807589252  1.0000
  O   O1        1.0  0.2696525759933142  0.2696525367776025  0.7303474468091841  1.0000
  O   O2        1.0  0.7303474360409254  0.7303474396031852  0.2696525277878713  1.0000
  O   O3        1.0  0.7303474464580555  0.2696525502135919  0.26965258307028056  1.0000
  O   O4        1.0  0.269652528191719  0.7303474475597348  0.7303474475568109  1.0000
  O   O5        1.0  0.26965258215327753  0.7303474179906556  0.269652586088948  1.0000
  O   O6        1.0  0.7303474399655024  0.269652558390132  0.7303474446001121  1.0000
