data_image0
_chemical_formula_structural       Fe2GeTe6
_chemical_formula_sum              "Fe2 Ge1 Te6"
_cell_length_a       7.157827554588954
_cell_length_b       7.157827490649206
_cell_length_c       7.157827237609689
_cell_angle_alpha    60.00000068494353
_cell_angle_beta     60.00000075811685
_cell_angle_gamma    59.999999409942525

_space_group_name_H-M_alt    "P 1"
_space_group_IT_number       1

loop_
  _space_group_symop_operation_xyz
  'x, y, z'

loop_
  _atom_site_type_symbol
  _atom_site_label
  _atom_site_symmetry_multiplicity
  _atom_site_fract_x
  _atom_site_fract_y
  _atom_site_fract_z
  _atom_site_occupancy
  Fe  Fe1       1.0  0.2500000883276866  0.24999982463896478  0.2500001154777112  1.0000
  Fe  Fe2       1.0  0.7500001857319114  0.7499999923670756  0.750000017862  1.0000
  Ge  Ge1       1.0  0.9999999880393928  6.844226975358906e-09  0.9999999843962541  1.0000
  Te  Te1       1.0  0.279322145722025  0.27932211433194176  0.720677856615646  1.0000
  Te  Te2       1.0  0.7206777953137619  0.7206779370888706  0.279322116467786  1.0000
  Te  Te3       1.0  0.720677856910651  0.27932219423762783  0.2793221304308217  1.0000
  Te  Te4       1.0  0.2793219866313643  0.7206779222033401  0.7206778155801867  1.0000
  Te  Te5       1.0  0.27932204908166425  0.7206778652726096  0.279322184201601  1.0000
  Te  Te6       1.0  0.7206778937798265  0.27932214679389883  0.7206777755134752  1.0000
