data_image0
_chemical_formula_structural       Fe2HgTe6
_chemical_formula_sum              "Fe2 Hg1 Te6"
_cell_length_a       7.326428291043435
_cell_length_b       7.326428343415659
_cell_length_c       7.326428499497805
_cell_angle_alpha    59.99999775465475
_cell_angle_beta     60.00000104293002
_cell_angle_gamma    59.999998218687956

_space_group_name_H-M_alt    "P 1"
_space_group_IT_number       1

loop_
  _space_group_symop_operation_xyz
  'x, y, z'

loop_
  _atom_site_type_symbol
  _atom_site_label
  _atom_site_symmetry_multiplicity
  _atom_site_fract_x
  _atom_site_fract_y
  _atom_site_fract_z
  _atom_site_occupancy
  Fe  Fe1       1.0  0.2500001095188533  0.24999995655040824  0.24999998967635326  1.0000
  Fe  Fe2       1.0  0.7499998103772795  0.7499999064282075  0.7500001756071619  1.0000
  Hg  Hg1       1.0  9.04427492790241e-08  0.9999999130726026  0.999999938185779  1.0000
  Te  Te1       1.0  0.2868190765062921  0.2868188956156998  0.7131809753862045  1.0000
  Te  Te2       1.0  0.7131812437430411  0.7131810760221652  0.28681868561045065  1.0000
  Te  Te3       1.0  0.7131807580406334  0.2868192005880523  0.28681898633566405  1.0000
  Te  Te4       1.0  0.2868188733788138  0.7131810786390619  0.7131813621127328  1.0000
  Te  Te5       1.0  0.28681918494587383  0.7131809505325543  0.2868187282223748  1.0000
  Te  Te6       1.0  0.7131808347346328  0.28681902444867297  0.7131811687419858  1.0000
