data_image0
_chemical_formula_structural       Fe2HgO6
_chemical_formula_sum              "Fe2 Hg1 O6"
_cell_length_a       5.3581406960597695
_cell_length_b       5.358140688254941
_cell_length_c       5.358140686167561
_cell_angle_alpha    59.999998995288266
_cell_angle_beta     59.99999856128916
_cell_angle_gamma    59.99999954160116

_space_group_name_H-M_alt    "P 1"
_space_group_IT_number       1

loop_
  _space_group_symop_operation_xyz
  'x, y, z'

loop_
  _atom_site_type_symbol
  _atom_site_label
  _atom_site_symmetry_multiplicity
  _atom_site_fract_x
  _atom_site_fract_y
  _atom_site_fract_z
  _atom_site_occupancy
  Fe  Fe1       1.0  0.24999999455306995  0.24999998682471097  0.24999995732132582  1.0000
  Fe  Fe2       1.0  0.7499998785178766  0.7500000496189533  0.7500002924187431  1.0000
  Hg  Hg1       1.0  1.3931179735622387e-09  2.2857646566385517e-09  5.625834825271688e-09  1.0000
  O   O1        1.0  0.26782686643981185  0.2678268365316949  0.7321732001236397  1.0000
  O   O2        1.0  0.7321731252031758  0.7321731221959717  0.26782673057735956  1.0000
  O   O3        1.0  0.7321732174091464  0.26782683951461406  0.26782678040075336  1.0000
  O   O4        1.0  0.2678269054522365  0.7321730940696413  0.7321731364554525  1.0000
  O   O5        1.0  0.26782690008780075  0.7321732087971017  0.26782680277028376  1.0000
  O   O6        1.0  0.7321730822365453  0.26782686193303507  0.7321731083162242  1.0000
