data_image0
_chemical_formula_structural       Fe2HgSe6
_chemical_formula_sum              "Fe2 Hg1 Se6"
_cell_length_a       6.654040006400141
_cell_length_b       6.654040072288144
_cell_length_c       6.654039724184276
_cell_angle_alpha    60.00000325843632
_cell_angle_beta     60.00000133524615
_cell_angle_gamma    60.000002359140886

_space_group_name_H-M_alt    "P 1"
_space_group_IT_number       1

loop_
  _space_group_symop_operation_xyz
  'x, y, z'

loop_
  _atom_site_type_symbol
  _atom_site_label
  _atom_site_symmetry_multiplicity
  _atom_site_fract_x
  _atom_site_fract_y
  _atom_site_fract_z
  _atom_site_occupancy
  Fe  Fe1       1.0  0.249999941324738  0.24999976617165173  0.2500001396790331  1.0000
  Fe  Fe2       1.0  0.7500000875736841  0.7500001267864522  0.7499999813065701  1.0000
  Hg  Hg1       1.0  0.9999999990345474  8.098654654238252e-08  0.9999999855378436  1.0000
  Se  Se1       1.0  0.29705521855143985  0.29705513585931353  0.7029448930718557  1.0000
  Se  Se2       1.0  0.7029446970206197  0.702944966927567  0.2970550985088342  1.0000
  Se  Se3       1.0  0.7029449731169591  0.2970549258851036  0.29705529366990807  1.0000
  Se  Se4       1.0  0.2970550994115541  0.7029448934488641  0.7029446424341382  1.0000
  Se  Se5       1.0  0.2970550552094977  0.7029450685344932  0.2970552433017449  1.0000
  Se  Se6       1.0  0.7029449287595246  0.29705502688997476  0.7029447403043667  1.0000
