data_image0
_chemical_formula_structural       Fe2InO6
_chemical_formula_sum              "Fe2 In1 O6"
_cell_length_a       5.391296205462062
_cell_length_b       5.39129595038623
_cell_length_c       5.391296372853026
_cell_angle_alpha    59.99999622188353
_cell_angle_beta     59.99999761019937
_cell_angle_gamma    59.99999738912574

_space_group_name_H-M_alt    "P 1"
_space_group_IT_number       1

loop_
  _space_group_symop_operation_xyz
  'x, y, z'

loop_
  _atom_site_type_symbol
  _atom_site_label
  _atom_site_symmetry_multiplicity
  _atom_site_fract_x
  _atom_site_fract_y
  _atom_site_fract_z
  _atom_site_occupancy
  Fe  Fe1       1.0  0.2500000836233218  0.24999988603415654  0.2499999665024668  1.0000
  Fe  Fe2       1.0  0.7500000076080883  0.7500000601947525  0.7500001521088167  1.0000
  In  In1       1.0  0.9999999508019561  1.0904197594500654e-07  0.9999999570941434  1.0000
  O   O1        1.0  0.2739696255448343  0.27396969819338085  0.7260303453084708  1.0000
  O   O2        1.0  0.7260303101118597  0.7260304320438641  0.2739695327953454  1.0000
  O   O3        1.0  0.7260304093303632  0.2739695979220854  0.273969627770817  1.0000
  O   O4        1.0  0.2739695876847328  0.7260303096877916  0.7260303606449467  1.0000
  O   O5        1.0  0.27396969717787006  0.7260303725020009  0.27396960829008143  1.0000
  O   O6        1.0  0.7260303101786855  0.2739695169342129  0.7260304712193326  1.0000
