data_image0
_chemical_formula_structural       Fe2InTe6
_chemical_formula_sum              "Fe2 In1 Te6"
_cell_length_a       7.383414260759331
_cell_length_b       7.3834141252058165
_cell_length_c       7.3834136106137285
_cell_angle_alpha    60.000004687130826
_cell_angle_beta     60.00000183500558
_cell_angle_gamma    59.99998430575528

_space_group_name_H-M_alt    "P 1"
_space_group_IT_number       1

loop_
  _space_group_symop_operation_xyz
  'x, y, z'

loop_
  _atom_site_type_symbol
  _atom_site_label
  _atom_site_symmetry_multiplicity
  _atom_site_fract_x
  _atom_site_fract_y
  _atom_site_fract_z
  _atom_site_occupancy
  Fe  Fe1       1.0  0.250000140536367  0.2500000427698922  0.24999990873707506  1.0000
  Fe  Fe2       1.0  0.7499997657935658  0.7500001017693562  0.7500001432348342  1.0000
  In  In1       1.0  0.9999999998675885  0.9999994326977353  2.2954184473156385e-07  1.0000
  Te  Te1       1.0  0.28105833440999123  0.2810578470527217  0.7189419701935335  1.0000
  Te  Te2       1.0  0.7189418130065395  0.7189418744979429  0.2810580156204578  1.0000
  Te  Te3       1.0  0.718941528575475  0.2810584689513772  0.2810580007264001  1.0000
  Te  Te4       1.0  0.2810584178901455  0.7189419492863178  0.7189417263844485  1.0000
  Te  Te5       1.0  0.2810583707366506  0.7189420252547005  0.28105801745494663  1.0000
  Te  Te6       1.0  0.718941626581923  0.28105826857460003  0.718941963135553  1.0000
