data_image0
_chemical_formula_structural       Fe2MgO6
_chemical_formula_sum              "Fe2 Mg1 O6"
_cell_length_a       3.1487668487404714
_cell_length_b       3.6062895150167473
_cell_length_c       3.0792884323742564
_cell_angle_alpha    52.899416815413446
_cell_angle_beta     82.37458133856244
_cell_angle_gamma    53.52398772411749

_space_group_name_H-M_alt    "P 1"
_space_group_IT_number       1

loop_
  _space_group_symop_operation_xyz
  'x, y, z'

loop_
  _atom_site_type_symbol
  _atom_site_label
  _atom_site_symmetry_multiplicity
  _atom_site_fract_x
  _atom_site_fract_y
  _atom_site_fract_z
  _atom_site_occupancy
  Fe  Fe1       1.0  0.5080383379243748  0.5730842228967028  0.9117035281487228  1.0000
  Fe  Fe2       1.0  0.038681858395053226  0.7476688930154869  0.5371742527775032  1.0000
  Mg  Mg1       1.0  0.10457172372648026  0.1893175411395905  0.9152134179774628  1.0000
  O   O1        1.0  0.3438161845687957  0.7863066621370897  0.05377309216346586  1.0000
  O   O2        1.0  0.49626433919485574  0.3524507594287687  0.7757421522750817  1.0000
  O   O3        1.0  0.934229029405695  0.21604304334871027  0.4721727880228485  1.0000
  O   O4        1.0  0.78193912988791  0.36336726423066057  0.6225245989733494  1.0000
  O   O5        1.0  0.08678370419607369  0.18254026446828742  0.9411875458502778  1.0000
  O   O6        1.0  0.20514394550999304  0.5551450395592105  0.28508370905732033  1.0000
