data_image0
_chemical_formula_structural       Fe2MnS6
_chemical_formula_sum              "Fe2 Mn1 S6"
_cell_length_a       6.076718275884254
_cell_length_b       6.0767182948738245
_cell_length_c       6.076718258278111
_cell_angle_alpha    60.00000112003749
_cell_angle_beta     59.99999968012735
_cell_angle_gamma    59.99999945552257

_space_group_name_H-M_alt    "P 1"
_space_group_IT_number       1

loop_
  _space_group_symop_operation_xyz
  'x, y, z'

loop_
  _atom_site_type_symbol
  _atom_site_label
  _atom_site_symmetry_multiplicity
  _atom_site_fract_x
  _atom_site_fract_y
  _atom_site_fract_z
  _atom_site_occupancy
  Fe  Fe1       1.0  0.2500003669383042  0.25000014409902754  0.24999979659172702  1.0000
  Fe  Fe2       1.0  0.7499999508292063  0.7500002851677167  0.7499993669176852  1.0000
  Mn  Mn1       1.0  1.7618840722058896e-08  7.25569506133743e-08  0.9999999680771054  1.0000
  S   S1        1.0  0.2572201781671303  0.25721995559162697  0.7427799261577509  1.0000
  S   S2        1.0  0.7427797356343813  0.7427799012814077  0.25722034428654467  1.0000
  S   S3        1.0  0.7427798266446851  0.25721978939855594  0.25722020467655454  1.0000
  S   S4        1.0  0.25722019992431483  0.742779900190396  0.7427800469485344  1.0000
  S   S5        1.0  0.25721984399621733  0.7427798681579227  0.25722019279256225  1.0000
  S   S6        1.0  0.7427799494963204  0.2572200532101805  0.7427800956849363  1.0000
