data_image0
_chemical_formula_structural       Fe2MnS6
_chemical_formula_sum              "Fe2 Mn1 S6"
_cell_length_a       6.077683391345292
_cell_length_b       6.077683674417627
_cell_length_c       6.077683384881548
_cell_angle_alpha    60.00000029921806
_cell_angle_beta     59.99999962565649
_cell_angle_gamma    60.00000170340472

_space_group_name_H-M_alt    "P 1"
_space_group_IT_number       1

loop_
  _space_group_symop_operation_xyz
  'x, y, z'

loop_
  _atom_site_type_symbol
  _atom_site_label
  _atom_site_symmetry_multiplicity
  _atom_site_fract_x
  _atom_site_fract_y
  _atom_site_fract_z
  _atom_site_occupancy
  Fe  Fe1       1.0  0.25000006371292993  0.25000014283668953  0.24999969898480606  1.0000
  Fe  Fe2       1.0  0.7500000779977007  0.7499999186769353  0.7499996519553715  1.0000
  Mn  Mn1       1.0  1.853803130770771e-08  2.4181808029129876e-08  2.800099290881827e-08  1.0000
  S   S1        1.0  0.2572014046156364  0.25720157976880925  0.742798442848491  1.0000
  S   S2        1.0  0.7427985413491142  0.742798385017574  0.2572014969311013  1.0000
  S   S3        1.0  0.7427984632945192  0.2572014122450819  0.2572017177809084  1.0000
  S   S4        1.0  0.2572016989562945  0.7427983026626108  0.7427986205193918  1.0000
  S   S5        1.0  0.2572013666879204  0.7427985588177335  0.2572017258135307  1.0000
  S   S6        1.0  0.7427983685554538  0.257201696150344  0.7427986102572973  1.0000
