data_image0
_chemical_formula_structural       Fe2MnTe6
_chemical_formula_sum              "Fe2 Mn1 Te6"
_cell_length_a       6.857154075807443
_cell_length_b       6.857153673627546
_cell_length_c       6.85715402349516
_cell_angle_alpha    59.99999975659879
_cell_angle_beta     59.99999988660793
_cell_angle_gamma    59.99999549352443

_space_group_name_H-M_alt    "P 1"
_space_group_IT_number       1

loop_
  _space_group_symop_operation_xyz
  'x, y, z'

loop_
  _atom_site_type_symbol
  _atom_site_label
  _atom_site_symmetry_multiplicity
  _atom_site_fract_x
  _atom_site_fract_y
  _atom_site_fract_z
  _atom_site_occupancy
  Fe  Fe1       1.0  0.25000005063940967  0.25000010812166057  0.24999994281921645  1.0000
  Fe  Fe2       1.0  0.7500000931732911  0.7499999903673663  0.7499997769126593  1.0000
  Mn  Mn1       1.0  3.526049899832458e-08  5.358248166806078e-09  0.999999925732381  1.0000
  Te  Te1       1.0  0.2597500475792788  0.2597502446119018  0.7402496236375329  1.0000
  Te  Te2       1.0  0.7402499611800962  0.7402497538564539  0.25975017279807383  1.0000
  Te  Te3       1.0  0.740249825844582  0.25974996643893566  0.25975030745023736  1.0000
  Te  Te4       1.0  0.2597502194536479  0.7402498819984127  0.7402499788557387  1.0000
  Te  Te5       1.0  0.25975011794551794  0.7402499341934069  0.2597501053460157  1.0000
  Te  Te6       1.0  0.7402496525617551  0.2597501071409684  0.7402501737820064  1.0000
