data_image0
_chemical_formula_structural       Fe2MgTe6
_chemical_formula_sum              "Fe2 Mg1 Te6"
_cell_length_a       7.313379832424166
_cell_length_b       7.31338005687608
_cell_length_c       7.313380775850713
_cell_angle_alpha    59.999998053786946
_cell_angle_beta     59.999998864905194
_cell_angle_gamma    59.999997554234604

_space_group_name_H-M_alt    "P 1"
_space_group_IT_number       1

loop_
  _space_group_symop_operation_xyz
  'x, y, z'

loop_
  _atom_site_type_symbol
  _atom_site_label
  _atom_site_symmetry_multiplicity
  _atom_site_fract_x
  _atom_site_fract_y
  _atom_site_fract_z
  _atom_site_occupancy
  Fe  Fe1       1.0  0.25000002941888505  0.25000006713077894  0.24999999321051056  1.0000
  Fe  Fe2       1.0  0.7499998307777804  0.7499997659798903  0.7500003411181053  1.0000
  Mg  Mg1       1.0  0.9999999448976167  4.689057294811437e-08  4.102453450552183e-08  1.0000
  Te  Te1       1.0  0.2877450040410522  0.28774506561708946  0.7122548919806149  1.0000
  Te  Te2       1.0  0.7122549719205038  0.7122550170184041  0.2877448016386636  1.0000
  Te  Te3       1.0  0.7122548610663589  0.28774536283122215  0.28774485999308946  1.0000
  Te  Te4       1.0  0.2877453044903749  0.7122546578417275  0.7122551061796173  1.0000
  Te  Te5       1.0  0.2877453389907118  0.7122546230887149  0.28774489753197524  1.0000
  Te  Te6       1.0  0.7122547133485501  0.2877454009335634  0.712255067513177  1.0000
