data_image0
_chemical_formula_structural       Fe2MnSe6
_chemical_formula_sum              "Fe2 Mn1 Se6"
_cell_length_a       6.175042485750968
_cell_length_b       6.17504268360854
_cell_length_c       6.175042209073117
_cell_angle_alpha    60.000002084118755
_cell_angle_beta     60.00000256338761
_cell_angle_gamma    60.00000272055636

_space_group_name_H-M_alt    "P 1"
_space_group_IT_number       1

loop_
  _space_group_symop_operation_xyz
  'x, y, z'

loop_
  _atom_site_type_symbol
  _atom_site_label
  _atom_site_symmetry_multiplicity
  _atom_site_fract_x
  _atom_site_fract_y
  _atom_site_fract_z
  _atom_site_occupancy
  Fe  Fe1       1.0  0.25000012112834  0.24999875704877583  0.25000023585049735  1.0000
  Fe  Fe2       1.0  0.7500007027190776  0.749999331499712  0.7500006384658472  1.0000
  Mn  Mn1       1.0  0.9999999734220584  1.1900272425551716e-07  0.9999999505487638  1.0000
  Se  Se1       1.0  0.27566798498221956  0.27566819562834793  0.7243320115474495  1.0000
  Se  Se2       1.0  0.7243317377469384  0.7243322650411103  0.27566764103671204  1.0000
  Se  Se3       1.0  0.7243320606777487  0.2756683402147372  0.27566781581754307  1.0000
  Se  Se4       1.0  0.2756677193747803  0.7243322850751569  0.724331729033559  1.0000
  Se  Se5       1.0  0.27566780697232324  0.7243324003067669  0.2756680855416148  1.0000
  Se  Se6       1.0  0.7243318840389072  0.27566831820192317  0.7243318863676016  1.0000
