data_image0
_chemical_formula_structural       Fe2MgSe6
_chemical_formula_sum              "Fe2 Mg1 Se6"
_cell_length_a       6.499197379003596
_cell_length_b       6.499195581502704
_cell_length_c       6.499195380069273
_cell_angle_alpha    59.999958353327735
_cell_angle_beta     59.999985646415396
_cell_angle_gamma    59.999986556592006

_space_group_name_H-M_alt    "P 1"
_space_group_IT_number       1

loop_
  _space_group_symop_operation_xyz
  'x, y, z'

loop_
  _atom_site_type_symbol
  _atom_site_label
  _atom_site_symmetry_multiplicity
  _atom_site_fract_x
  _atom_site_fract_y
  _atom_site_fract_z
  _atom_site_occupancy
  Fe  Fe1       1.0  0.25000096364077296  0.24999987594657191  0.24999927629046062  1.0000
  Fe  Fe2       1.0  0.7500015047080093  0.7499979714020358  0.7499989132209983  1.0000
  Mg  Mg1       1.0  0.9999997343567045  1.4133415658170938e-07  2.3756090165499444e-07  1.0000
  Se  Se1       1.0  0.2909777195862977  0.2909810318456171  0.7090188024425337  1.0000
  Se  Se2       1.0  0.7090212150423889  0.709019357634791  0.2909798797856041  1.0000
  Se  Se3       1.0  0.7090211403159136  0.2909799095646321  0.29097883562724547  1.0000
  Se  Se4       1.0  0.2909807444296571  0.7090204987598273  0.7090209132048952  1.0000
  Se  Se5       1.0  0.29097773269287686  0.7090200686325375  0.290981690433725  1.0000
  Se  Se6       1.0  0.7090192457403687  0.29098116319826905  0.7090214430452487  1.0000
