data_image0
_chemical_formula_structural       Fe2MgS6
_chemical_formula_sum              "Fe2 Mg1 S6"
_cell_length_a       6.136543818238026
_cell_length_b       6.136543168630657
_cell_length_c       6.136543857177227
_cell_angle_alpha    59.99999848924239
_cell_angle_beta     59.99999768763177
_cell_angle_gamma    59.999997659686194

_space_group_name_H-M_alt    "P 1"
_space_group_IT_number       1

loop_
  _space_group_symop_operation_xyz
  'x, y, z'

loop_
  _atom_site_type_symbol
  _atom_site_label
  _atom_site_symmetry_multiplicity
  _atom_site_fract_x
  _atom_site_fract_y
  _atom_site_fract_z
  _atom_site_occupancy
  Fe  Fe1       1.0  0.2500004420121493  0.24999986488939835  0.24999994148100022  1.0000
  Fe  Fe2       1.0  0.7500002375391918  0.7499992134661159  0.7499995212490919  1.0000
  Mg  Mg1       1.0  5.0746576475522895e-08  1.0178693392613622e-07  0.9999999823981894  1.0000
  S   S1        1.0  0.2682591817377983  0.2682596167531035  0.7317404237897694  1.0000
  S   S2        1.0  0.7317405611345803  0.7317406910289019  0.26825974972660466  1.0000
  S   S3        1.0  0.7317403691062742  0.26825949028172236  0.2682593797410757  1.0000
  S   S4        1.0  0.2682594962481381  0.7317407097258845  0.7317407505706783  1.0000
  S   S5        1.0  0.2682592098950472  0.731740441010249  0.2682595120928174  1.0000
  S   S6        1.0  0.7317404645716126  0.268259868767579  0.7317407207018144  1.0000
