data_image0
_chemical_formula_structural       Fe2MnO6
_chemical_formula_sum              "Fe2 Mn1 O6"
_cell_length_a       5.330811284643172
_cell_length_b       5.330818134773482
_cell_length_c       5.330817152389669
_cell_angle_alpha    60.00006927860325
_cell_angle_beta     60.00003393054963
_cell_angle_gamma    60.00007189116789

_space_group_name_H-M_alt    "P 1"
_space_group_IT_number       1

loop_
  _space_group_symop_operation_xyz
  'x, y, z'

loop_
  _atom_site_type_symbol
  _atom_site_label
  _atom_site_symmetry_multiplicity
  _atom_site_fract_x
  _atom_site_fract_y
  _atom_site_fract_z
  _atom_site_occupancy
  Fe  Fe1       1.0  0.24999957349719304  0.2500012698968569  0.24999988382019064  1.0000
  Fe  Fe2       1.0  0.7499999367119913  0.7500000050664961  0.7499993567866275  1.0000
  Mn  Mn1       1.0  0.9999954058071635  8.70744139150287e-06  0.9999989694865398  1.0000
  O   O1        1.0  0.2471536855524529  0.2471532033791886  0.7528484759053475  1.0000
  O   O2        1.0  0.7528416564068369  0.7528453054205145  0.24715490347154048  1.0000
  O   O3        1.0  0.7528475842327723  0.24715173582695502  0.24715180263894931  1.0000
  O   O4        1.0  0.2471579462440378  0.752843214177311  0.7528409984538459  1.0000
  O   O5        1.0  0.2471564787247817  0.75284348724329  0.24715740638208858  1.0000
  O   O6        1.0  0.7528478424555809  0.2471536545600588  0.75284656020926  1.0000
