data_image0
_chemical_formula_structural       Fe2MnTe6
_chemical_formula_sum              "Fe2 Mn1 Te6"
_cell_length_a       6.8575966194421145
_cell_length_b       6.857597176417896
_cell_length_c       6.857597134458071
_cell_angle_alpha    60.00000077922938
_cell_angle_beta     59.999993487682495
_cell_angle_gamma    59.99999933895273

_space_group_name_H-M_alt    "P 1"
_space_group_IT_number       1

loop_
  _space_group_symop_operation_xyz
  'x, y, z'

loop_
  _atom_site_type_symbol
  _atom_site_label
  _atom_site_symmetry_multiplicity
  _atom_site_fract_x
  _atom_site_fract_y
  _atom_site_fract_z
  _atom_site_occupancy
  Fe  Fe1       1.0  0.25000009477502483  0.2499997422909339  0.2500000097299124  1.0000
  Fe  Fe2       1.0  0.7500001173603369  0.7499998591054494  0.7500001581984982  1.0000
  Mn  Mn1       1.0  1.555950249844347e-07  0.9999998464067565  0.9999999260872675  1.0000
  Te  Te1       1.0  0.2596630070080214  0.2596634163865807  0.7403369529519875  1.0000
  Te  Te2       1.0  0.7403368335002792  0.7403368654635822  0.25966321221969774  1.0000
  Te  Te3       1.0  0.7403368007904412  0.2596633558049071  0.25966299188137165  1.0000
  Te  Te4       1.0  0.2596629106585298  0.7403369242592783  0.740336716664223  1.0000
  Te  Te5       1.0  0.25966328952311585  0.7403367655646165  0.25966329122263065  1.0000
  Te  Te6       1.0  0.7403367848038135  0.2596632341026104  0.7403367085604252  1.0000
