data_image0
_chemical_formula_structural       Fe2NiTe6
_chemical_formula_sum              "Fe2 Ni1 Te6"
_cell_length_a       6.808123989148392
_cell_length_b       6.8081238220738785
_cell_length_c       6.808123496647784
_cell_angle_alpha    60.00000098398285
_cell_angle_beta     60.000001307408674
_cell_angle_gamma    59.99999928261647

_space_group_name_H-M_alt    "P 1"
_space_group_IT_number       1

loop_
  _space_group_symop_operation_xyz
  'x, y, z'

loop_
  _atom_site_type_symbol
  _atom_site_label
  _atom_site_symmetry_multiplicity
  _atom_site_fract_x
  _atom_site_fract_y
  _atom_site_fract_z
  _atom_site_occupancy
  Fe  Fe1       1.0  0.24999990523343335  0.2499997997940232  0.2500001416153574  1.0000
  Fe  Fe2       1.0  0.7500000224374798  0.7500000056269448  0.7500001886800672  1.0000
  Ni  Ni1       1.0  0.9999999155201337  1.3132307542271325e-07  1.0289807824581004e-07  1.0000
  Te  Te1       1.0  0.26333602479778234  0.2633357698832612  0.7366641218353212  1.0000
  Te  Te2       1.0  0.7366640113152308  0.7366642190302216  0.2633358465742669  1.0000
  Te  Te3       1.0  0.7366642165481301  0.2633359269393686  0.2633358553028144  1.0000
  Te  Te4       1.0  0.2633358163255682  0.736664142926695  0.7366639200226209  1.0000
  Te  Te5       1.0  0.2633358879313537  0.7366641369937768  0.2633359324881413  1.0000
  Te  Te6       1.0  0.7366641873792175  0.26333587170811446  0.7366639021412833  1.0000
