data_image0
_chemical_formula_structural       Fe2NiN6
_chemical_formula_sum              "Fe2 Ni1 N6"
_cell_length_a       4.799270476548617
_cell_length_b       4.7992702251510515
_cell_length_c       4.799270548412502
_cell_angle_alpha    59.99999810698952
_cell_angle_beta     59.999999574137995
_cell_angle_gamma    59.99999726401274

_space_group_name_H-M_alt    "P 1"
_space_group_IT_number       1

loop_
  _space_group_symop_operation_xyz
  'x, y, z'

loop_
  _atom_site_type_symbol
  _atom_site_label
  _atom_site_symmetry_multiplicity
  _atom_site_fract_x
  _atom_site_fract_y
  _atom_site_fract_z
  _atom_site_occupancy
  Fe  Fe1       1.0  0.24999867763308567  0.250000363673446  0.2500005980027731  1.0000
  Fe  Fe2       1.0  0.7499994260531992  0.7499996236548714  0.7500002497757339  1.0000
  Ni  Ni1       1.0  0.999999899215198  2.8071339456681525e-08  0.9999999759308817  1.0000
  N   N1        1.0  0.2741466315443621  0.27414666980301355  0.7258532713166501  1.0000
  N   N2        1.0  0.7258537197346454  0.7258528760396832  0.2741468046782548  1.0000
  N   N3        1.0  0.7258539321509483  0.2741468662441853  0.27414649827004506  1.0000
  N   N4        1.0  0.2741471002569435  0.7258532563369196  0.7258533821904122  1.0000
  N   N5        1.0  0.2741467056029697  0.7258530174090537  0.27414652637421816  1.0000
  N   N6        1.0  0.7258538957403229  0.27414729401560367  0.7258526959116686  1.0000
