data_image0
_chemical_formula_structural       Fe2NiO6
_chemical_formula_sum              "Fe2 Ni1 O6"
_cell_length_a       2.327083368340803
_cell_length_b       2.93906279815129
_cell_length_c       4.401777777511461
_cell_angle_alpha    113.95820340394397
_cell_angle_beta     94.24273180618277
_cell_angle_gamma    80.6202700721336

_space_group_name_H-M_alt    "P 1"
_space_group_IT_number       1

loop_
  _space_group_symop_operation_xyz
  'x, y, z'

loop_
  _atom_site_type_symbol
  _atom_site_label
  _atom_site_symmetry_multiplicity
  _atom_site_fract_x
  _atom_site_fract_y
  _atom_site_fract_z
  _atom_site_occupancy
  Fe  Fe1       1.0  0.6942445965654922  0.4947963987499435  0.9979140269700152  1.0000
  Fe  Fe2       1.0  0.9667306423261012  0.862969315650485  0.8099953820667456  1.0000
  Ni  Ni1       1.0  0.898443699891434  0.0010354307249151873  0.8363841386448605  1.0000
  O   O1        1.0  0.3743318428205272  0.022311447359251835  0.34846605229234523  1.0000
  O   O2        1.0  0.9833362671239065  0.8367803289917481  0.8015397448788094  1.0000
  O   O3        1.0  0.9829492726082295  0.8317889158824894  0.8015721670078972  1.0000
  O   O4        1.0  0.17001425089622663  0.22155077466977957  0.8227309959187953  1.0000
  O   O5        1.0  0.04368968640563313  0.2751899762186856  0.7849532580332785  1.0000
  O   O6        1.0  0.19309571483995253  0.1944168571086673  0.8736054862437665  1.0000
