data_image0
_chemical_formula_structural       Fe2NbS6
_chemical_formula_sum              "Fe2 Nb1 S6"
_cell_length_a       6.191442429430125
_cell_length_b       6.191442508594378
_cell_length_c       6.191442356720321
_cell_angle_alpha    60.00000031454912
_cell_angle_beta     60.00000095211553
_cell_angle_gamma    59.99999974724113

_space_group_name_H-M_alt    "P 1"
_space_group_IT_number       1

loop_
  _space_group_symop_operation_xyz
  'x, y, z'

loop_
  _atom_site_type_symbol
  _atom_site_label
  _atom_site_symmetry_multiplicity
  _atom_site_fract_x
  _atom_site_fract_y
  _atom_site_fract_z
  _atom_site_occupancy
  Fe  Fe1       1.0  0.24999992388471592  0.2499998987390734  0.2500000180132551  1.0000
  Fe  Fe2       1.0  0.7499998810810099  0.749999988979754  0.7499999724648744  1.0000
  Nb  Nb1       1.0  0.9999999776394779  0.9999999663718712  2.4764060453004263e-08  1.0000
  S   S1        1.0  0.2680530730650583  0.2680531103025045  0.7319468944449705  1.0000
  S   S2        1.0  0.731947001794688  0.7319469356663384  0.2680530467046603  1.0000
  S   S3        1.0  0.7319470347203751  0.2680530585469782  0.26805307396274797  1.0000
  S   S4        1.0  0.26805313061904923  0.731947034896869  0.7319468983477593  1.0000
  S   S5        1.0  0.26805305956985076  0.7319469771760467  0.26805300967311074  1.0000
  S   S6        1.0  0.7319469314976907  0.2680530292302917  0.7319470545289111  1.0000
