data_image0
_chemical_formula_structural       Fe2NbTe6
_chemical_formula_sum              "Fe2 Nb1 Te6"
_cell_length_a       7.288811173473231
_cell_length_b       7.288811336899364
_cell_length_c       7.288811202657143
_cell_angle_alpha    60.00000065475168
_cell_angle_beta     60.00000047433994
_cell_angle_gamma    60.000001606225375

_space_group_name_H-M_alt    "P 1"
_space_group_IT_number       1

loop_
  _space_group_symop_operation_xyz
  'x, y, z'

loop_
  _atom_site_type_symbol
  _atom_site_label
  _atom_site_symmetry_multiplicity
  _atom_site_fract_x
  _atom_site_fract_y
  _atom_site_fract_z
  _atom_site_occupancy
  Fe  Fe1       1.0  0.25000011407972095  0.2499998934360884  0.25000001924369736  1.0000
  Fe  Fe2       1.0  0.7499999762014607  0.749999989484948  0.7499999270135626  1.0000
  Nb  Nb1       1.0  0.9999999903821563  3.360616142543473e-08  0.9999999962376362  1.0000
  Te  Te1       1.0  0.26688202521419324  0.2668820235648802  0.7331179902812174  1.0000
  Te  Te2       1.0  0.7331179781413145  0.733117987059569  0.26688207278375675  1.0000
  Te  Te3       1.0  0.7331179017493052  0.26688199811487  0.26688201884983903  1.0000
  Te  Te4       1.0  0.2668820315961933  0.7331180561975886  0.7331179640824574  1.0000
  Te  Te5       1.0  0.26688198993758666  0.7331179730107146  0.2668820264890161  1.0000
  Te  Te6       1.0  0.7331179816376286  0.2668820426546586  0.7331179978109401  1.0000
