data_image0
_chemical_formula_structural       Fe2NiS6
_chemical_formula_sum              "Fe2 Ni1 S6"
_cell_length_a       6.008199865731101
_cell_length_b       6.008199721966473
_cell_length_c       6.008199780789927
_cell_angle_alpha    60.00000113545875
_cell_angle_beta     60.00000003000647
_cell_angle_gamma    60.00000120729131

_space_group_name_H-M_alt    "P 1"
_space_group_IT_number       1

loop_
  _space_group_symop_operation_xyz
  'x, y, z'

loop_
  _atom_site_type_symbol
  _atom_site_label
  _atom_site_symmetry_multiplicity
  _atom_site_fract_x
  _atom_site_fract_y
  _atom_site_fract_z
  _atom_site_occupancy
  Fe  Fe1       1.0  0.25000011261812527  0.24999987351045597  0.24999978577174403  1.0000
  Fe  Fe2       1.0  0.7499996309674857  0.7499999711457388  0.7500001263106785  1.0000
  Ni  Ni1       1.0  0.9999999729371737  7.542285812238991e-08  0.9999999841419454  1.0000
  S   S1        1.0  0.2508570571958704  0.25085689217317864  0.749143053751199  1.0000
  S   S2        1.0  0.7491429339017811  0.7491430747903636  0.25085705290291943  1.0000
  S   S3        1.0  0.749142995902208  0.2508570728436018  0.2508569754354441  1.0000
  S   S4        1.0  0.2508571688236201  0.7491429267352325  0.7491430297613317  1.0000
  S   S5        1.0  0.2508572948485058  0.7491429992060981  0.2508568532807867  1.0000
  S   S6        1.0  0.7491428351069963  0.2508571104493404  0.7491431492150847  1.0000
