data_image0
_chemical_formula_structural       Fe2PdO6
_chemical_formula_sum              "Fe2 Pd1 O6"
_cell_length_a       2.5506998973463206
_cell_length_b       3.670275941484278
_cell_length_c       3.509858436210567
_cell_angle_alpha    51.5787736769424
_cell_angle_beta     99.7753338334666
_cell_angle_gamma    114.17786068495221

_space_group_name_H-M_alt    "P 1"
_space_group_IT_number       1

loop_
  _space_group_symop_operation_xyz
  'x, y, z'

loop_
  _atom_site_type_symbol
  _atom_site_label
  _atom_site_symmetry_multiplicity
  _atom_site_fract_x
  _atom_site_fract_y
  _atom_site_fract_z
  _atom_site_occupancy
  Fe  Fe1       1.0  0.1785682839835904  0.8594355899450555  0.04104752932091649  1.0000
  Fe  Fe2       1.0  0.7870452190499854  0.5661370663802229  0.6851679374662375  1.0000
  Pd  Pd1       1.0  0.9964662907229074  0.2561486280190558  0.3222179829897706  1.0000
  O   O1        1.0  0.4290491334533564  0.45808913256704675  0.3478611215156109  1.0000
  O   O2        1.0  0.6044772079140619  0.077852005263423  0.010918763691389666  1.0000
  O   O3        1.0  0.6573571555867188  0.7762867466178776  0.8782331492070876  1.0000
  O   O4        1.0  0.0016237776179463673  0.26623106738643176  0.29623674873517203  1.0000
  O   O5        1.0  0.4923403444180137  0.677019193399031  0.672423677309327  1.0000
  O   O6        1.0  0.4369864278711838  0.3616796810250644  0.7182478303203184  1.0000
