data_image0
_chemical_formula_structural       Fe2PbO6
_chemical_formula_sum              "Fe2 Pb1 O6"
_cell_length_a       5.484798731231117
_cell_length_b       5.484798632407994
_cell_length_c       5.484798569916939
_cell_angle_alpha    59.99999674733766
_cell_angle_beta     59.99999864194205
_cell_angle_gamma    59.99999726254033

_space_group_name_H-M_alt    "P 1"
_space_group_IT_number       1

loop_
  _space_group_symop_operation_xyz
  'x, y, z'

loop_
  _atom_site_type_symbol
  _atom_site_label
  _atom_site_symmetry_multiplicity
  _atom_site_fract_x
  _atom_site_fract_y
  _atom_site_fract_z
  _atom_site_occupancy
  Fe  Fe1       1.0  0.24999999072949913  0.24999945111229818  0.2500000317179013  1.0000
  Fe  Fe2       1.0  0.7499999425205286  0.7499997623476417  0.750000685383427  1.0000
  Pb  Pb1       1.0  6.7091451667837e-08  5.1358554613464665e-08  0.9999999353053313  1.0000
  O   O1        1.0  0.26428182210589496  0.26428171304616116  0.7357182879932819  1.0000
  O   O2        1.0  0.7357180366963924  0.7357186079721927  0.26428152420660495  1.0000
  O   O3        1.0  0.7357185061734746  0.2642819698595744  0.2642814244212176  1.0000
  O   O4        1.0  0.26428157051562523  0.7357182596065733  0.7357182662682922  1.0000
  O   O5        1.0  0.2642818401735835  0.7357184691209163  0.26428153233532786  1.0000
  O   O6        1.0  0.7357182512743466  0.2642817223845572  0.7357182629393764  1.0000
