data_image0
_chemical_formula_structural       Fe2PO6
_chemical_formula_sum              "Fe2 P1 O6"
_cell_length_a       3.2016039110782786
_cell_length_b       1.7746325338739641
_cell_length_c       3.23361856497463
_cell_angle_alpha    53.657778003025086
_cell_angle_beta     77.31324448638487
_cell_angle_gamma    91.29811908713417

_space_group_name_H-M_alt    "P 1"
_space_group_IT_number       1

loop_
  _space_group_symop_operation_xyz
  'x, y, z'

loop_
  _atom_site_type_symbol
  _atom_site_label
  _atom_site_symmetry_multiplicity
  _atom_site_fract_x
  _atom_site_fract_y
  _atom_site_fract_z
  _atom_site_occupancy
  Fe  Fe1       1.0  0.4954384962428178  0.6815266172301626  0.15712458210868022  1.0000
  Fe  Fe2       1.0  0.42743290881193613  0.5903976731395967  0.18944974799111783  1.0000
  P   P1        1.0  0.07095540725700934  0.023442258652625062  0.15235988966770422  1.0000
  O   O1        1.0  0.06565625903360471  0.9463117183899503  0.18056420379288446  1.0000
  O   O2        1.0  0.5896717156831691  0.42772447414427844  0.30918448688252154  1.0000
  O   O3        1.0  0.4839720925476348  0.7316332151556602  0.7633790938599642  1.0000
  O   O4        1.0  0.7510581558718868  0.9520475037332959  0.4133026645801988  1.0000
  O   O5        1.0  0.11908238034712859  0.8502202490803893  0.16147707512940346  1.0000
  O   O6        1.0  0.23781206266156255  0.6728886405806956  0.3599065485718161  1.0000
