data_image0
_chemical_formula_structural       Fe2PS6
_chemical_formula_sum              "Fe2 P1 S6"
_cell_length_a       6.289519620147413
_cell_length_b       6.289519985841479
_cell_length_c       6.289519373870753
_cell_angle_alpha    60.00000437129519
_cell_angle_beta     60.00000088041047
_cell_angle_gamma    60.000002721152775

_space_group_name_H-M_alt    "P 1"
_space_group_IT_number       1

loop_
  _space_group_symop_operation_xyz
  'x, y, z'

loop_
  _atom_site_type_symbol
  _atom_site_label
  _atom_site_symmetry_multiplicity
  _atom_site_fract_x
  _atom_site_fract_y
  _atom_site_fract_z
  _atom_site_occupancy
  Fe  Fe1       1.0  0.25000006227679417  0.25000012257371623  0.24999968845331705  1.0000
  Fe  Fe2       1.0  0.7500000658960012  0.7499995849151371  0.7500001659283577  1.0000
  P   P1        1.0  0.9999999732217777  0.9999999922108855  1.887361502525475e-08  1.0000
  S   S1        1.0  0.24256753807982717  0.24256787552877734  0.7574320983692898  1.0000
  S   S2        1.0  0.7574322750126797  0.757432309043346  0.24256740471997562  1.0000
  S   S3        1.0  0.7574325341327909  0.24256796967604485  0.24256751372733776  1.0000
  S   S4        1.0  0.24256815658302192  0.7574321155848738  0.7574324651368287  1.0000
  S   S5        1.0  0.24256735711425373  0.7574323008307896  0.24256806200457542  1.0000
  S   S6        1.0  0.7574319939425438  0.24256775522095758  0.7574325853942225  1.0000
