data_image0
_chemical_formula_structural       Fe2PN6
_chemical_formula_sum              "Fe2 P1 N6"
_cell_length_a       4.742436020348639
_cell_length_b       4.742435845703733
_cell_length_c       4.742435870086428
_cell_angle_alpha    59.99999932957175
_cell_angle_beta     59.99999900418247
_cell_angle_gamma    59.99999950401787

_space_group_name_H-M_alt    "P 1"
_space_group_IT_number       1

loop_
  _space_group_symop_operation_xyz
  'x, y, z'

loop_
  _atom_site_type_symbol
  _atom_site_label
  _atom_site_symmetry_multiplicity
  _atom_site_fract_x
  _atom_site_fract_y
  _atom_site_fract_z
  _atom_site_occupancy
  Fe  Fe1       1.0  0.24999993848718874  0.2500000686288818  0.2499999758110823  1.0000
  Fe  Fe2       1.0  0.7500000045004895  0.7499997410325386  0.750000242465004  1.0000
  P   P1        1.0  1.6478333957807444e-08  0.9999999870873859  0.9999999771309296  1.0000
  N   N1        1.0  0.25593318262705367  0.25593347270278743  0.7440666547439287  1.0000
  N   N2        1.0  0.744066691147279  0.7440666468613711  0.2559332428684636  1.0000
  N   N3        1.0  0.7440666848562284  0.25593343169850497  0.2559332635657798  1.0000
  N   N4        1.0  0.2559333795983376  0.744066605224925  0.7440667381734346  1.0000
  N   N5        1.0  0.25593339064820725  0.7440666971943897  0.2559332351179453  1.0000
  N   N6        1.0  0.7440666560240952  0.25593337846688224  0.744066667581397  1.0000
