data_image0
_chemical_formula_structural       Fe2PbSe6
_chemical_formula_sum              "Fe2 Pb1 Se6"
_cell_length_a       6.820332760480167
_cell_length_b       6.820332936548625
_cell_length_c       6.820333267841253
_cell_angle_alpha    59.999997156654516
_cell_angle_beta     59.99999897810098
_cell_angle_gamma    59.99999889799267

_space_group_name_H-M_alt    "P 1"
_space_group_IT_number       1

loop_
  _space_group_symop_operation_xyz
  'x, y, z'

loop_
  _atom_site_type_symbol
  _atom_site_label
  _atom_site_symmetry_multiplicity
  _atom_site_fract_x
  _atom_site_fract_y
  _atom_site_fract_z
  _atom_site_occupancy
  Fe  Fe1       1.0  0.24999992594513545  0.2500001695548105  0.24999998138160331  1.0000
  Fe  Fe2       1.0  0.749999903025749  0.749999980720995  0.7500000487518982  1.0000
  Pb  Pb1       1.0  6.973981366877338e-08  0.9999999533111239  1.9264816633172307e-08  1.0000
  Se  Se1       1.0  0.3031302868879554  0.30313010692347914  0.6968698273336632  1.0000
  Se  Se2       1.0  0.6968699282193835  0.6968696518840619  0.303130262647708  1.0000
  Se  Se3       1.0  0.6968697478648577  0.3031302834244327  0.30312992790107046  1.0000
  Se  Se4       1.0  0.3031301322900007  0.6968698758300067  0.6968698771459942  1.0000
  Se  Se5       1.0  0.30313019741186276  0.6968697344448451  0.3031300664256579  1.0000
  Se  Se6       1.0  0.6968698116214509  0.30313023625836205  0.6968699898546042  1.0000
