data_image0
_chemical_formula_structural       Fe2PtO6
_chemical_formula_sum              "Fe2 Pt1 O6"
_cell_length_a       5.261703980439917
_cell_length_b       5.261704274218132
_cell_length_c       5.261703956014668
_cell_angle_alpha    59.999998818700625
_cell_angle_beta     59.99999900610479
_cell_angle_gamma    59.99999977109629

_space_group_name_H-M_alt    "P 1"
_space_group_IT_number       1

loop_
  _space_group_symop_operation_xyz
  'x, y, z'

loop_
  _atom_site_type_symbol
  _atom_site_label
  _atom_site_symmetry_multiplicity
  _atom_site_fract_x
  _atom_site_fract_y
  _atom_site_fract_z
  _atom_site_occupancy
  Fe  Fe1       1.0  0.24999963874582387  0.2500001551902554  0.25000012563947455  1.0000
  Fe  Fe2       1.0  0.7499999814670386  0.7499996136478755  0.7500004565165486  1.0000
  Pt  Pt1       1.0  1.4342472393034875e-08  0.9999999767234181  1.5870205264172002e-08  1.0000
  O   O1        1.0  0.25551637177344666  0.25551638184458714  0.7444836250909471  1.0000
  O   O2        1.0  0.7444836170949239  0.7444836570018982  0.25551627093180657  1.0000
  O   O3        1.0  0.7444837246497668  0.2555165503435661  0.2555161984531145  1.0000
  O   O4        1.0  0.25551633424215786  0.744483614196457  0.7444836510252651  1.0000
  O   O5        1.0  0.25551653677696906  0.7444835831600957  0.255516200044663  1.0000
  O   O6        1.0  0.7444838069636752  0.2555164510310739  0.744483456251758  1.0000
