data_image0
_chemical_formula_structural       Fe2PbS6
_chemical_formula_sum              "Fe2 Pb1 S6"
_cell_length_a       6.415610323698059
_cell_length_b       6.415610511417191
_cell_length_c       6.415610418213156
_cell_angle_alpha    60.00000042157519
_cell_angle_beta     59.999999458803615
_cell_angle_gamma    59.99999945518595

_space_group_name_H-M_alt    "P 1"
_space_group_IT_number       1

loop_
  _space_group_symop_operation_xyz
  'x, y, z'

loop_
  _atom_site_type_symbol
  _atom_site_label
  _atom_site_symmetry_multiplicity
  _atom_site_fract_x
  _atom_site_fract_y
  _atom_site_fract_z
  _atom_site_occupancy
  Fe  Fe1       1.0  0.24999997498914656  0.24999999879369197  0.25000007226512955  1.0000
  Fe  Fe2       1.0  0.7500000646648319  0.7499999066577213  0.7499999767080271  1.0000
  Pb  Pb1       1.0  0.9999999945443153  9.735938314970669e-08  0.9999999415785656  1.0000
  S   S1        1.0  0.2766613773116853  0.2766613479271352  0.7233385906621821  1.0000
  S   S2        1.0  0.7233385805482508  0.7233386625196923  0.2766613781275708  1.0000
  S   S3        1.0  0.7233386172515913  0.27666139948135055  0.2766613492455857  1.0000
  S   S4        1.0  0.27666139156819575  0.7233385498772359  0.7233387134541559  1.0000
  S   S5        1.0  0.27666134447161783  0.7233386378994051  0.2766613617331222  1.0000
  S   S6        1.0  0.723338657311011  0.2766613973645195  0.7233386287998683  1.0000
