data_image0
_chemical_formula_structural       Fe2PtS6
_chemical_formula_sum              "Fe2 Pt1 S6"
_cell_length_a       6.161625490816074
_cell_length_b       6.161625702978923
_cell_length_c       6.161625862226295
_cell_angle_alpha    59.999999510300185
_cell_angle_beta     59.99999976630238
_cell_angle_gamma    60.00000007778252

_space_group_name_H-M_alt    "P 1"
_space_group_IT_number       1

loop_
  _space_group_symop_operation_xyz
  'x, y, z'

loop_
  _atom_site_type_symbol
  _atom_site_label
  _atom_site_symmetry_multiplicity
  _atom_site_fract_x
  _atom_site_fract_y
  _atom_site_fract_z
  _atom_site_occupancy
  Fe  Fe1       1.0  0.25000002308259406  0.25000022919060655  0.24999983225610947  1.0000
  Fe  Fe2       1.0  0.749999893499544  0.7499999779637702  0.7500000173479847  1.0000
  Pt  Pt1       1.0  1.5862572866699772e-08  1.9876976227997555e-08  0.9999999496712604  1.0000
  S   S1        1.0  0.26071553795187224  0.2607155002801978  0.7392844554976293  1.0000
  S   S2        1.0  0.7392845128647758  0.7392843828794666  0.260715544166808  1.0000
  S   S3        1.0  0.7392844880498576  0.2607155315561566  0.2607155869956531  1.0000
  S   S4        1.0  0.26071553749511533  0.7392843993082503  0.7392845507634904  1.0000
  S   S5        1.0  0.26071555682975894  0.739284394546907  0.26071554952390935  1.0000
  S   S6        1.0  0.7392844371784146  0.26071555221908116  0.7392845197742746  1.0000
