data_image0
_chemical_formula_structural       Fe2SiO6
_chemical_formula_sum              "Fe2 Si1 O6"
_cell_length_a       2.377337009129975
_cell_length_b       3.7885829655860555
_cell_length_c       1.851360424020969
_cell_angle_alpha    62.86563002846592
_cell_angle_beta     76.80109109013706
_cell_angle_gamma    73.08048821316372

_space_group_name_H-M_alt    "P 1"
_space_group_IT_number       1

loop_
  _space_group_symop_operation_xyz
  'x, y, z'

loop_
  _atom_site_type_symbol
  _atom_site_label
  _atom_site_symmetry_multiplicity
  _atom_site_fract_x
  _atom_site_fract_y
  _atom_site_fract_z
  _atom_site_occupancy
  Fe  Fe1       1.0  0.17653761713021426  0.25905990684098557  0.5181390209533394  1.0000
  Fe  Fe2       1.0  0.8141359656650373  0.6121140435472037  0.33425377194508066  1.0000
  Si  Si1       1.0  0.8681340817311457  0.9644222171821182  0.2926724496908622  1.0000
  O   O1        1.0  0.32244126469857537  0.28942737862113815  0.6603109510141777  1.0000
  O   O2        1.0  0.744628042159183  0.4321555914698074  0.8034411235618103  1.0000
  O   O3        1.0  0.9492411386642882  0.2943008748662599  0.6044663663765718  1.0000
  O   O4        1.0  0.7832166625983793  0.988271871286354  0.6505483307005963  1.0000
  O   O5        1.0  0.21044797829675052  0.47046404413386744  0.9758035187314817  1.0000
  O   O6        1.0  0.6168591329147698  0.7310260727529543  0.47247223066459654  1.0000
