data_image0
_chemical_formula_structural       Fe2SO6
_chemical_formula_sum              "Fe2 S1 O6"
_cell_length_a       4.80307794933454
_cell_length_b       4.80307799351524
_cell_length_c       4.803077600441813
_cell_angle_alpha    59.99999750554785
_cell_angle_beta     59.99999881579887
_cell_angle_gamma    59.99999404365768

_space_group_name_H-M_alt    "P 1"
_space_group_IT_number       1

loop_
  _space_group_symop_operation_xyz
  'x, y, z'

loop_
  _atom_site_type_symbol
  _atom_site_label
  _atom_site_symmetry_multiplicity
  _atom_site_fract_x
  _atom_site_fract_y
  _atom_site_fract_z
  _atom_site_occupancy
  Fe  Fe1       1.0  0.25000000610578865  0.2500000386623784  0.25000008796664624  1.0000
  Fe  Fe2       1.0  0.7500000504204473  0.7500001134372367  0.749999813985676  1.0000
  S   S1        1.0  0.9999999977167255  3.569883676459903e-08  0.9999999499802428  1.0000
  O   O1        1.0  0.2369753401880478  0.23697541139358902  0.7630246729190727  1.0000
  O   O2        1.0  0.7630247648867069  0.7630244219664222  0.23697540785077026  1.0000
  O   O3        1.0  0.7630244769251998  0.2369753113781125  0.23697547047234957  1.0000
  O   O4        1.0  0.2369754004863772  0.7630247361749276  0.7630244817026678  1.0000
  O   O5        1.0  0.23697544291611577  0.7630245433210374  0.23697537549665512  1.0000
  O   O6        1.0  0.7630245294964901  0.23697531298823588  0.7630246726856998  1.0000
