data_image0
_chemical_formula_structural       Fe2SN6
_chemical_formula_sum              "Fe2 S1 N6"
_cell_length_a       4.80823298257724
_cell_length_b       4.8082338227934835
_cell_length_c       4.8082323333886245
_cell_angle_alpha    60.00000957293527
_cell_angle_beta     60.000006566718824
_cell_angle_gamma    60.000006817430545

_space_group_name_H-M_alt    "P 1"
_space_group_IT_number       1

loop_
  _space_group_symop_operation_xyz
  'x, y, z'

loop_
  _atom_site_type_symbol
  _atom_site_label
  _atom_site_symmetry_multiplicity
  _atom_site_fract_x
  _atom_site_fract_y
  _atom_site_fract_z
  _atom_site_occupancy
  Fe  Fe1       1.0  0.24999992180131936  0.25000027661076074  0.24999961300943435  1.0000
  Fe  Fe2       1.0  0.7499995649049527  0.7500013953067095  0.7499994177350844  1.0000
  S   S1        1.0  4.3695850590392867e-07  0.9999982424443131  7.850845897462625e-07  1.0000
  N   N1        1.0  0.24480818188305753  0.24480786362098986  0.7551917878440079  1.0000
  N   N2        1.0  0.7551920950945852  0.7551920354576934  0.24480781945466257  1.0000
  N   N3        1.0  0.7551922524604595  0.24480764232853336  0.24480825722939922  1.0000
  N   N4        1.0  0.24480782575411153  0.7551920173150232  0.7551922222150147  1.0000
  N   N5        1.0  0.24480798285015967  0.7551924430027902  0.24480788948654808  1.0000
  N   N6        1.0  0.7551918407418707  0.2448080597580609  0.7551922208388905  1.0000
