data_image0
_chemical_formula_structural       Fe2SrTe6
_chemical_formula_sum              "Fe2 Sr1 Te6"
_cell_length_a       7.831118828236373
_cell_length_b       7.831119100635172
_cell_length_c       7.83111964711087
_cell_angle_alpha    59.99999560269519
_cell_angle_beta     59.99999748470475
_cell_angle_gamma    59.99999945503816

_space_group_name_H-M_alt    "P 1"
_space_group_IT_number       1

loop_
  _space_group_symop_operation_xyz
  'x, y, z'

loop_
  _atom_site_type_symbol
  _atom_site_label
  _atom_site_symmetry_multiplicity
  _atom_site_fract_x
  _atom_site_fract_y
  _atom_site_fract_z
  _atom_site_occupancy
  Fe  Fe1       1.0  0.25000005587026536  0.24999999312277513  0.24999995245450587  1.0000
  Fe  Fe2       1.0  0.7499999276987336  0.7499999824962128  0.7500000089564753  1.0000
  Sr  Sr1       1.0  1.938574282321604e-07  1.4388304770134286e-07  1.3887630424431995e-07  1.0000
  Te  Te1       1.0  0.29587080787460635  0.29587074829608967  0.7041291699216253  1.0000
  Te  Te2       1.0  0.7041292419115311  0.7041293117759982  0.2958706216594466  1.0000
  Te  Te3       1.0  0.7041291231042338  0.2958707154344661  0.29587072676906334  1.0000
  Te  Te4       1.0  0.295870707967516  0.7041291381967127  0.7041294050853197  1.0000
  Te  Te5       1.0  0.29587077521903327  0.704129168087744  0.29587069056715076  1.0000
  Te  Te6       1.0  0.7041291653364032  0.29587079501967384  0.704129284559874  1.0000
