data_image0
_chemical_formula_structural       Fe2ScO6
_chemical_formula_sum              "Fe2 Sc1 O6"
_cell_length_a       5.228575230447541
_cell_length_b       5.228575458679446
_cell_length_c       5.228575347482389
_cell_angle_alpha    60.00000068653509
_cell_angle_beta     60.00000200285392
_cell_angle_gamma    59.99999965993691

_space_group_name_H-M_alt    "P 1"
_space_group_IT_number       1

loop_
  _space_group_symop_operation_xyz
  'x, y, z'

loop_
  _atom_site_type_symbol
  _atom_site_label
  _atom_site_symmetry_multiplicity
  _atom_site_fract_x
  _atom_site_fract_y
  _atom_site_fract_z
  _atom_site_occupancy
  Fe  Fe1       1.0  0.25000003251934116  0.2499997460159819  0.25000009986732075  1.0000
  Fe  Fe2       1.0  0.7499999110953609  0.7500002148314218  0.7499999216546535  1.0000
  Sc  Sc1       1.0  0.9999999466184828  0.9999999812607498  3.0322681942445565e-08  1.0000
  O   O1        1.0  0.2685475803368576  0.26854733829117206  0.7314525600886662  1.0000
  O   O2        1.0  0.7314524766891917  0.7314526202138223  0.2685474785763826  1.0000
  O   O3        1.0  0.7314526074845673  0.2685474229626498  0.26854743834712547  1.0000
  O   O4        1.0  0.2685474420663974  0.7314526573474783  0.7314525010764271  1.0000
  O   O5        1.0  0.268547412851665  0.7314526270990628  0.26854738186232924  1.0000
  O   O6        1.0  0.7314525932232657  0.2685473782540616  0.7314525727887035  1.0000
