data_image0
_chemical_formula_structural       Fe2SiS6
_chemical_formula_sum              "Fe2 Si1 S6"
_cell_length_a       6.091269337921132
_cell_length_b       6.091269333026157
_cell_length_c       6.091269566607951
_cell_angle_alpha    60.000000802738434
_cell_angle_beta     60.0000010530108
_cell_angle_gamma    60.00000143059807

_space_group_name_H-M_alt    "P 1"
_space_group_IT_number       1

loop_
  _space_group_symop_operation_xyz
  'x, y, z'

loop_
  _atom_site_type_symbol
  _atom_site_label
  _atom_site_symmetry_multiplicity
  _atom_site_fract_x
  _atom_site_fract_y
  _atom_site_fract_z
  _atom_site_occupancy
  Fe  Fe1       1.0  0.24999991601578325  0.2499999777720488  0.24999998857849184  1.0000
  Fe  Fe2       1.0  0.7499999431858411  0.7499999393481191  0.7500000030525333  1.0000
  Si  Si1       1.0  2.9795140696937542e-08  0.9999999617975331  7.479650006248549e-08  1.0000
  S   S1        1.0  0.25443907011977657  0.2544389169914079  0.745560888986677  1.0000
  S   S2        1.0  0.7455610282016755  0.7455611187574779  0.2544388104932034  1.0000
  S   S3        1.0  0.7455610514753833  0.2544389222035213  0.2544391055000135  1.0000
  S   S4        1.0  0.25443906513588915  0.7455609165010609  0.745561092138883  1.0000
  S   S5        1.0  0.2544388777966208  0.7455610861661865  0.2544390734105393  1.0000
  S   S6        1.0  0.7455609998391199  0.25443915668029243  0.7455609464269318  1.0000
