data_image0
_chemical_formula_structural       Fe2SeS6
_chemical_formula_sum              "Fe2 Se1 S6"
_cell_length_a       4.560104379950658
_cell_length_b       4.1155111943957605
_cell_length_c       4.526404780857415
_cell_angle_alpha    103.77697131455443
_cell_angle_beta     94.33077860034986
_cell_angle_gamma    31.23939120622458

_space_group_name_H-M_alt    "P 1"
_space_group_IT_number       1

loop_
  _space_group_symop_operation_xyz
  'x, y, z'

loop_
  _atom_site_type_symbol
  _atom_site_label
  _atom_site_symmetry_multiplicity
  _atom_site_fract_x
  _atom_site_fract_y
  _atom_site_fract_z
  _atom_site_occupancy
  Fe  Fe1       1.0  0.9008311689905748  0.8840834954601507  0.5829477536552093  1.0000
  Fe  Fe2       1.0  0.6787819116503994  0.3497491744402661  0.41972523814445534  1.0000
  Se  Se1       1.0  0.16192724848253953  0.08932955034200954  0.9106952603346289  1.0000
  S   S1        1.0  0.8209551135177828  0.2582375395395867  0.02006383335437567  1.0000
  S   S2        1.0  0.14264268511131584  0.09100411532555852  0.16850364829929462  1.0000
  S   S3        1.0  0.944178476200508  0.11885901731974728  0.1530129162088292  1.0000
  S   S4        1.0  0.3587919566001314  0.6706741295078924  0.06598745343083445  1.0000
  S   S5        1.0  0.176711320542314  0.5557214356915443  0.0005908208886014794  1.0000
  S   S6        1.0  0.9832236017098374  0.924580151837596  0.0925978906118119  1.0000
