data_image0
_chemical_formula_structural       Fe2SeS6
_chemical_formula_sum              "Fe2 Se1 S6"
_cell_length_a       6.330656424719326
_cell_length_b       6.330656618586456
_cell_length_c       6.330656586329894
_cell_angle_alpha    60.000001156585974
_cell_angle_beta     59.999999876776265
_cell_angle_gamma    60.00000008847364

_space_group_name_H-M_alt    "P 1"
_space_group_IT_number       1

loop_
  _space_group_symop_operation_xyz
  'x, y, z'

loop_
  _atom_site_type_symbol
  _atom_site_label
  _atom_site_symmetry_multiplicity
  _atom_site_fract_x
  _atom_site_fract_y
  _atom_site_fract_z
  _atom_site_occupancy
  Fe  Fe1       1.0  0.24999992668615795  0.2499998605634888  0.2500000301239537  1.0000
  Fe  Fe2       1.0  0.7500001412763959  0.749999833191754  0.7499998803687741  1.0000
  Se  Se1       1.0  5.029374667285535e-09  2.3215503500349656e-08  0.9999999606037214  1.0000
  S   S1        1.0  0.2395821732639535  0.23958240092891903  0.7604177923997114  1.0000
  S   S2        1.0  0.7604175985778047  0.7604178364560429  0.23958231342078384  1.0000
  S   S3        1.0  0.760417944387059  0.23958219369403003  0.23958233662578352  1.0000
  S   S4        1.0  0.23958229828566496  0.7604178076666386  0.7604176644282962  1.0000
  S   S5        1.0  0.23958219003544087  0.7604176833056802  0.23958230102710837  1.0000
  S   S6        1.0  0.7604177075537101  0.23958236835524918  0.760417714730967  1.0000
