data_image0
_chemical_formula_structural       Fe2ScTe6
_chemical_formula_sum              "Fe2 Sc1 Te6"
_cell_length_a       7.338200008956345
_cell_length_b       7.338199277550769
_cell_length_c       7.338198949933658
_cell_angle_alpha    59.99999965123953
_cell_angle_beta     60.00000449168982
_cell_angle_gamma    60.00000186850964

_space_group_name_H-M_alt    "P 1"
_space_group_IT_number       1

loop_
  _space_group_symop_operation_xyz
  'x, y, z'

loop_
  _atom_site_type_symbol
  _atom_site_label
  _atom_site_symmetry_multiplicity
  _atom_site_fract_x
  _atom_site_fract_y
  _atom_site_fract_z
  _atom_site_occupancy
  Fe  Fe1       1.0  0.25000018005193914  0.2499998502067082  0.24999992570197316  1.0000
  Fe  Fe2       1.0  0.7499998725323876  0.7500001514598139  0.7500001484553684  1.0000
  Sc  Sc1       1.0  0.9999997706817819  5.557767286771494e-07  0.9999999853085474  1.0000
  Te  Te1       1.0  0.2738270866893478  0.2738269813839227  0.7261729316301553  1.0000
  Te  Te2       1.0  0.7261727259086708  0.7261728149956916  0.27382716347943237  1.0000
  Te  Te3       1.0  0.7261729005036923  0.2738270743499548  0.27382702512101875  1.0000
  Te  Te4       1.0  0.27382742136731464  0.7261727236986772  0.7261727422927579  1.0000
  Te  Te5       1.0  0.27382725374085093  0.7261727158878142  0.27382712193682507  1.0000
  Te  Te6       1.0  0.7261728000544068  0.2738271122027912  0.7261729498254187  1.0000
