data_image0
_chemical_formula_structural       Fe2SO6
_chemical_formula_sum              "Fe2 S1 O6"
_cell_length_a       4.80324408262892
_cell_length_b       4.8032440813190265
_cell_length_c       4.803244019122098
_cell_angle_alpha    59.999999721834826
_cell_angle_beta     60.000000366643576
_cell_angle_gamma    59.9999990206529

_space_group_name_H-M_alt    "P 1"
_space_group_IT_number       1

loop_
  _space_group_symop_operation_xyz
  'x, y, z'

loop_
  _atom_site_type_symbol
  _atom_site_label
  _atom_site_symmetry_multiplicity
  _atom_site_fract_x
  _atom_site_fract_y
  _atom_site_fract_z
  _atom_site_occupancy
  Fe  Fe1       1.0  0.24999998199990228  0.25000000492409574  0.250000005160894  1.0000
  Fe  Fe2       1.0  0.7499999906799631  0.750000024971601  0.7499999797151917  1.0000
  S   S1        1.0  0.9999999783639876  3.32801368904026e-16  0.9999999962445221  1.0000
  O   O1        1.0  0.2369918060121457  0.23699182654934267  0.7630081783460922  1.0000
  O   O2        1.0  0.7630082485746141  0.7630081523497826  0.23699180356638988  1.0000
  O   O3        1.0  0.7630081468326053  0.23699185893510918  0.2369918192826159  1.0000
  O   O4        1.0  0.23699185369950646  0.7630081811599017  0.763008121584574  1.0000
  O   O5        1.0  0.23699180393277727  0.7630081801326367  0.2369918505074664  1.0000
  O   O6        1.0  0.7630081815212518  0.23699176816854672  0.7630082041715415  1.0000
