data_image0
_chemical_formula_structural       Fe2SeN6
_chemical_formula_sum              "Fe2 Se1 N6"
_cell_length_a       4.805236065196861
_cell_length_b       4.805236219948658
_cell_length_c       4.805235980623563
_cell_angle_alpha    59.99999988972861
_cell_angle_beta     60.00000146296832
_cell_angle_gamma    59.99999988175713

_space_group_name_H-M_alt    "P 1"
_space_group_IT_number       1

loop_
  _space_group_symop_operation_xyz
  'x, y, z'

loop_
  _atom_site_type_symbol
  _atom_site_label
  _atom_site_symmetry_multiplicity
  _atom_site_fract_x
  _atom_site_fract_y
  _atom_site_fract_z
  _atom_site_occupancy
  Fe  Fe1       1.0  0.2499999658474263  0.250000038539054  0.24999999816585824  1.0000
  Fe  Fe2       1.0  0.7500000584728626  0.7499999932761314  0.7500000105808763  1.0000
  Se  Se1       1.0  0.9999999561878565  0.9999999872561437  1.371055702041061e-08  1.0000
  N   N1        1.0  0.27828080537736394  0.2782808374850844  0.721719164108094  1.0000
  N   N2        1.0  0.7217192148407383  0.7217191994276452  0.27828079627650704  1.0000
  N   N3        1.0  0.7217192333083857  0.2782807976402464  0.2782807891313987  1.0000
  N   N4        1.0  0.27828077377857835  0.7217192137847691  0.7217191864005021  1.0000
  N   N5        1.0  0.2782807499968736  0.7217192444871547  0.2782807985211116  1.0000
  N   N6        1.0  0.721719231918919  0.2782807847792609  0.721719182756738  1.0000
