data_image0
_chemical_formula_structural       Fe2SrO6
_chemical_formula_sum              "Fe2 Sr1 O6"
_cell_length_a       5.636585219088877
_cell_length_b       5.6365851118684285
_cell_length_c       5.636585185914169
_cell_angle_alpha    60.00000120896646
_cell_angle_beta     60.0000002824354
_cell_angle_gamma    60.00000103429523

_space_group_name_H-M_alt    "P 1"
_space_group_IT_number       1

loop_
  _space_group_symop_operation_xyz
  'x, y, z'

loop_
  _atom_site_type_symbol
  _atom_site_label
  _atom_site_symmetry_multiplicity
  _atom_site_fract_x
  _atom_site_fract_y
  _atom_site_fract_z
  _atom_site_occupancy
  Fe  Fe1       1.0  0.2500000164059532  0.25000003640898527  0.24999996569417132  1.0000
  Fe  Fe2       1.0  0.7500000795384567  0.7499997724353535  0.7499999775789362  1.0000
  Sr  Sr1       1.0  0.9999999662072339  8.908681019645277e-08  0.99999996348236  1.0000
  O   O1        1.0  0.2901958958508776  0.29019598875689706  0.709804085281531  1.0000
  O   O2        1.0  0.7098040109990209  0.7098040677922354  0.2901960841602673  1.0000
  O   O3        1.0  0.7098040445681688  0.29019600127182427  0.29019585030137174  1.0000
  O   O4        1.0  0.2901959422403795  0.7098039444620041  0.7098041376410094  1.0000
  O   O5        1.0  0.2901959439105822  0.7098039997958729  0.2901960003303769  1.0000
  O   O6        1.0  0.7098041055944324  0.29019609586454076  0.7098039362983185  1.0000
