data_image0
_chemical_formula_structural       Fe2SeO6
_chemical_formula_sum              "Fe2 Se1 O6"
_cell_length_a       4.829113096270002
_cell_length_b       4.829112806586062
_cell_length_c       4.82911349070203
_cell_angle_alpha    60.000002960576154
_cell_angle_beta     60.000000707108306
_cell_angle_gamma    60.00000389171122

_space_group_name_H-M_alt    "P 1"
_space_group_IT_number       1

loop_
  _space_group_symop_operation_xyz
  'x, y, z'

loop_
  _atom_site_type_symbol
  _atom_site_label
  _atom_site_symmetry_multiplicity
  _atom_site_fract_x
  _atom_site_fract_y
  _atom_site_fract_z
  _atom_site_occupancy
  Fe  Fe1       1.0  0.2499999838884208  0.24999992170715243  0.2499998806130831  1.0000
  Fe  Fe2       1.0  0.75000001940381  0.7500003509766069  0.7499994475719372  1.0000
  Se  Se1       1.0  1.9008825931983174e-08  0.9999999644936275  0.9999999916825841  1.0000
  O   O1        1.0  0.2548184358252687  0.2548182799830114  0.7451815472783242  1.0000
  O   O2        1.0  0.7451815833182018  0.7451815793051942  0.25481882041284976  1.0000
  O   O3        1.0  0.7451818081597625  0.2548182116760454  0.25481858791460504  1.0000
  O   O4        1.0  0.25481814355160903  0.7451815055866581  0.745181725055804  1.0000
  O   O5        1.0  0.2548185689531759  0.7451816063488407  0.25481831673841004  1.0000
  O   O6        1.0  0.7451813765212277  0.2548184380797222  0.7451818875369084  1.0000
