data_image0
_chemical_formula_structural       Fe2SrSe6
_chemical_formula_sum              "Fe2 Sr1 Se6"
_cell_length_a       7.124296957282867
_cell_length_b       7.1242967868628
_cell_length_c       7.124296844112153
_cell_angle_alpha    59.9999940458142
_cell_angle_beta     59.9999944638882
_cell_angle_gamma    59.99999155166087

_space_group_name_H-M_alt    "P 1"
_space_group_IT_number       1

loop_
  _space_group_symop_operation_xyz
  'x, y, z'

loop_
  _atom_site_type_symbol
  _atom_site_label
  _atom_site_symmetry_multiplicity
  _atom_site_fract_x
  _atom_site_fract_y
  _atom_site_fract_z
  _atom_site_occupancy
  Fe  Fe1       1.0  0.25000014182488006  0.25000016224852967  0.24999992232628565  1.0000
  Fe  Fe2       1.0  0.7499999337794125  0.7499998661469321  0.749999800969054  1.0000
  Sr  Sr1       1.0  6.661538019118764e-08  4.813507411330631e-08  0.9999999931560704  1.0000
  Se  Se1       1.0  0.3040671574598205  0.30406745420748577  0.6959325725435296  1.0000
  Se  Se2       1.0  0.6959326322247054  0.6959328922233212  0.304067474376666  1.0000
  Se  Se3       1.0  0.6959326913758653  0.3040672393317661  0.3040671833188742  1.0000
  Se  Se4       1.0  0.3040677891711085  0.6959324057021443  0.695932707449105  1.0000
  Se  Se5       1.0  0.3040671156138286  0.695932392770873  0.3040674348877975  1.0000
  Se  Se6       1.0  0.695932484199455  0.30406754107354883  0.6959329020320597  1.0000
