data_image0
_chemical_formula_structural       Fe2SnTe6
_chemical_formula_sum              "Fe2 Sn1 Te6"
_cell_length_a       7.346953920664381
_cell_length_b       7.346952786018149
_cell_length_c       7.346953332690513
_cell_angle_alpha    60.000000969347596
_cell_angle_beta     59.999993644920835
_cell_angle_gamma    60.00000149329131

_space_group_name_H-M_alt    "P 1"
_space_group_IT_number       1

loop_
  _space_group_symop_operation_xyz
  'x, y, z'

loop_
  _atom_site_type_symbol
  _atom_site_label
  _atom_site_symmetry_multiplicity
  _atom_site_fract_x
  _atom_site_fract_y
  _atom_site_fract_z
  _atom_site_occupancy
  Fe  Fe1       1.0  0.24999993959616512  0.24999982730315717  0.2500001446318118  1.0000
  Fe  Fe2       1.0  0.7500000895354264  0.7500000370240059  0.7499996793264869  1.0000
  Sn  Sn1       1.0  0.9999998764697369  1.867051722892885e-07  0.9999997833018143  1.0000
  Te  Te1       1.0  0.28079765635868614  0.2807976536596961  0.7192024566616269  1.0000
  Te  Te2       1.0  0.7192023223321222  0.7192024657201247  0.2807977019065455  1.0000
  Te  Te3       1.0  0.7192023647798956  0.28079752228741833  0.2807979265802847  1.0000
  Te  Te4       1.0  0.2807975192619243  0.7192025604181613  0.7192022690662312  1.0000
  Te  Te5       1.0  0.2807976107132937  0.7192022450623943  0.2807977969483979  1.0000
  Te  Te6       1.0  0.7192026215154703  0.2807974909049782  0.7192022428073577  1.0000
