data_image0
_chemical_formula_structural       Fe2SnO6
_chemical_formula_sum              "Fe2 Sn1 O6"
_cell_length_a       5.317960678870211
_cell_length_b       5.3179614527884755
_cell_length_c       5.317961081723893
_cell_angle_alpha    59.99999948439239
_cell_angle_beta     60.00000150817537
_cell_angle_gamma    60.00000193910356

_space_group_name_H-M_alt    "P 1"
_space_group_IT_number       1

loop_
  _space_group_symop_operation_xyz
  'x, y, z'

loop_
  _atom_site_type_symbol
  _atom_site_label
  _atom_site_symmetry_multiplicity
  _atom_site_fract_x
  _atom_site_fract_y
  _atom_site_fract_z
  _atom_site_occupancy
  Fe  Fe1       1.0  0.24999978989188693  0.2500001350773913  0.25000003020010786  1.0000
  Fe  Fe2       1.0  0.749999954604494  0.7499998294735492  0.7500001010586089  1.0000
  Sn  Sn1       1.0  0.9999999746892194  3.684854982683759e-08  3.7480772190536697e-08  1.0000
  O   O1        1.0  0.26709008102424264  0.26709004823775495  0.7329098829153364  1.0000
  O   O2        1.0  0.7329098320223867  0.7329099969193908  0.26709013880851634  1.0000
  O   O3        1.0  0.7329100536852106  0.26709013509246105  0.26708998491738944  1.0000
  O   O4        1.0  0.2670901330157915  0.73290979260992  0.7329100583689262  1.0000
  O   O5        1.0  0.26709003832940553  0.7329099159204268  0.2670899709251895  1.0000
  O   O6        1.0  0.7329101267222882  0.2670901223276182  0.7329098455122125  1.0000
