data_image0
_chemical_formula_structural       Fe2ScS6
_chemical_formula_sum              "Fe2 Sc1 S6"
_cell_length_a       6.2188498872635405
_cell_length_b       6.218850503301287
_cell_length_c       6.218850143135525
_cell_angle_alpha    60.00000358006708
_cell_angle_beta     60.00000265344519
_cell_angle_gamma    60.00000237232402

_space_group_name_H-M_alt    "P 1"
_space_group_IT_number       1

loop_
  _space_group_symop_operation_xyz
  'x, y, z'

loop_
  _atom_site_type_symbol
  _atom_site_label
  _atom_site_symmetry_multiplicity
  _atom_site_fract_x
  _atom_site_fract_y
  _atom_site_fract_z
  _atom_site_occupancy
  Fe  Fe1       1.0  0.25000002577062375  0.24999997414246183  0.24999988670353415  1.0000
  Fe  Fe2       1.0  0.7499999147941196  0.7500001036128416  0.7500003647350995  1.0000
  Sc  Sc1       1.0  0.9999999638588579  0.9999999803059292  0.9999998462119885  1.0000
  S   S1        1.0  0.27124919506463646  0.27124923002703905  0.7287508146713396  1.0000
  S   S2        1.0  0.7287508425222405  0.7287507906154557  0.2712489070720987  1.0000
  S   S3        1.0  0.7287508708966107  0.271249152481049  0.271249257600828  1.0000
  S   S4        1.0  0.2712491352410473  0.728750667281926  0.7287509195979948  1.0000
  S   S5        1.0  0.2712494192728073  0.7287508960113664  0.2712490359848364  1.0000
  S   S6        1.0  0.7287506281964559  0.2712492231014832  0.7287509740892804  1.0000
