data_image0
_chemical_formula_structural       Fe2TiS6
_chemical_formula_sum              "Fe2 Ti1 S6"
_cell_length_a       6.145482988468764
_cell_length_b       6.145482849921411
_cell_length_c       6.145482783425139
_cell_angle_alpha    59.99999853372228
_cell_angle_beta     59.99999840913972
_cell_angle_gamma    59.999999762331456

_space_group_name_H-M_alt    "P 1"
_space_group_IT_number       1

loop_
  _space_group_symop_operation_xyz
  'x, y, z'

loop_
  _atom_site_type_symbol
  _atom_site_label
  _atom_site_symmetry_multiplicity
  _atom_site_fract_x
  _atom_site_fract_y
  _atom_site_fract_z
  _atom_site_occupancy
  Fe  Fe1       1.0  0.25000018056509776  0.24999944846047564  0.25000004649397023  1.0000
  Fe  Fe2       1.0  0.7500000289486195  0.749999714516696  0.7500000448659535  1.0000
  Ti  Ti1       1.0  0.9999999643749695  6.178048483325046e-08  2.2720924794091973e-08  1.0000
  S   S1        1.0  0.2646358136255492  0.26463611335266424  0.7353640301704882  1.0000
  S   S2        1.0  0.7353639450555111  0.7353641935599431  0.2646359798735072  1.0000
  S   S3        1.0  0.7353640799271051  0.26463598037486524  0.26463593274252994  1.0000
  S   S4        1.0  0.2646359598007574  0.7353641710900721  0.7353640014842041  1.0000
  S   S5        1.0  0.26463599490522327  0.7353641999466298  0.26463591575301554  1.0000
  S   S6        1.0  0.7353640100116466  0.2646361348668441  0.7353640402104209  1.0000
