data_image0
_chemical_formula_structural       Fe2TiSe6
_chemical_formula_sum              "Fe2 Ti1 Se6"
_cell_length_a       6.324472471110792
_cell_length_b       6.3244726066491745
_cell_length_c       6.324473560685396
_cell_angle_alpha    59.99999862017215
_cell_angle_beta     59.99999490078203
_cell_angle_gamma    60.00000072634312

_space_group_name_H-M_alt    "P 1"
_space_group_IT_number       1

loop_
  _space_group_symop_operation_xyz
  'x, y, z'

loop_
  _atom_site_type_symbol
  _atom_site_label
  _atom_site_symmetry_multiplicity
  _atom_site_fract_x
  _atom_site_fract_y
  _atom_site_fract_z
  _atom_site_occupancy
  Fe  Fe1       1.0  0.2500003313405018  0.24999980286986065  0.24999992972663918  1.0000
  Fe  Fe2       1.0  0.7499999512019414  0.7500001270573708  0.7500000841831986  1.0000
  Ti  Ti1       1.0  0.9999998130883756  6.777809393238489e-08  1.3862472975049378e-07  1.0000
  Se  Se1       1.0  0.2774434057443567  0.27744332447860215  0.7225565598059835  1.0000
  Se  Se2       1.0  0.7225565784609986  0.7225565802738861  0.27744320792067595  1.0000
  Se  Se3       1.0  0.722556484197417  0.27744341072743267  0.2774433308448987  1.0000
  Se  Se4       1.0  0.2774435143545605  0.7225565714857441  0.7225566075969275  1.0000
  Se  Se5       1.0  0.2774434243213113  0.722556680151345  0.2774434417487311  1.0000
  Se  Se6       1.0  0.7225564956467309  0.277443433744995  0.7225567041550565  1.0000
