data_image0
_chemical_formula_structural       Fe2VTe6
_chemical_formula_sum              "Fe2 V1 Te6"
_cell_length_a       7.035600524148836
_cell_length_b       7.035600231175079
_cell_length_c       7.035600203590987
_cell_angle_alpha    60.000000766829224
_cell_angle_beta     60.00000056795005
_cell_angle_gamma    59.99999998530986

_space_group_name_H-M_alt    "P 1"
_space_group_IT_number       1

loop_
  _space_group_symop_operation_xyz
  'x, y, z'

loop_
  _atom_site_type_symbol
  _atom_site_label
  _atom_site_symmetry_multiplicity
  _atom_site_fract_x
  _atom_site_fract_y
  _atom_site_fract_z
  _atom_site_occupancy
  Fe  Fe1       1.0  0.25000001712075465  0.24999975380169592  0.24999997015716227  1.0000
  Fe  Fe2       1.0  0.749999935764928  0.7500001596487808  0.7499997934674821  1.0000
  V   V1        1.0  1.0527170327659735e-08  0.9999999930368699  0.9999999285721805  1.0000
  Te  Te1       1.0  0.2685345494996072  0.26853452861553484  0.7314657256100386  1.0000
  Te  Te2       1.0  0.7314653549086675  0.7314655745802262  0.2685347860741469  1.0000
  Te  Te3       1.0  0.7314654424919264  0.2685345480401096  0.26853458260945534  1.0000
  Te  Te4       1.0  0.2685344622633385  0.7314656230461571  0.7314653676377874  1.0000
  Te  Te5       1.0  0.2685346222038623  0.7314654370181662  0.2685344528642134  1.0000
  Te  Te6       1.0  0.7314656087799503  0.26853438068928387  0.7314653901440181  1.0000
