data_image0
_chemical_formula_structural       Fe2VO6
_chemical_formula_sum              "Fe2 V1 O6"
_cell_length_a       5.075958577952496
_cell_length_b       5.075958687512227
_cell_length_c       5.075958958050971
_cell_angle_alpha    59.99999719003661
_cell_angle_beta     59.999997546269526
_cell_angle_gamma    59.99999784508549

_space_group_name_H-M_alt    "P 1"
_space_group_IT_number       1

loop_
  _space_group_symop_operation_xyz
  'x, y, z'

loop_
  _atom_site_type_symbol
  _atom_site_label
  _atom_site_symmetry_multiplicity
  _atom_site_fract_x
  _atom_site_fract_y
  _atom_site_fract_z
  _atom_site_occupancy
  Fe  Fe1       1.0  0.24999990729472538  0.24999985726761598  0.25000005884492804  1.0000
  Fe  Fe2       1.0  0.7499999906977555  0.7500000688467805  0.7500002565727304  1.0000
  V   V1        1.0  0.9999999882354867  0.9999999806973231  0.9999999879525999  1.0000
  O   O1        1.0  0.25397242262722347  0.25397230846650143  0.7460276249922717  1.0000
  O   O2        1.0  0.7460275858665861  0.7460276683174264  0.2539722512870178  1.0000
  O   O3        1.0  0.7460276926588745  0.25397238713818066  0.25397230544491534  1.0000
  O   O4        1.0  0.2539722981408141  0.7460276427281091  0.7460276240628124  1.0000
  O   O5        1.0  0.25397240307228447  0.7460277234089462  0.2539723037338907  1.0000
  O   O6        1.0  0.7460276793637096  0.2539723523012012  0.7460275747643951  1.0000
