data_image0
_chemical_formula_structural       Fe2VS6
_chemical_formula_sum              "Fe2 V1 S6"
_cell_length_a       5.986869420863753
_cell_length_b       5.9868694291451074
_cell_length_c       5.986869437230216
_cell_angle_alpha    59.999999884377964
_cell_angle_beta     60.00000072972612
_cell_angle_gamma    60.00000098660994

_space_group_name_H-M_alt    "P 1"
_space_group_IT_number       1

loop_
  _space_group_symop_operation_xyz
  'x, y, z'

loop_
  _atom_site_type_symbol
  _atom_site_label
  _atom_site_symmetry_multiplicity
  _atom_site_fract_x
  _atom_site_fract_y
  _atom_site_fract_z
  _atom_site_occupancy
  Fe  Fe1       1.0  0.2500000212360355  0.2499999563127021  0.2499999961692674  1.0000
  Fe  Fe2       1.0  0.7499999546266465  0.7499999589497129  0.7500000147459489  1.0000
  V   V1        1.0  0.9999999771862556  1.6365746610776917e-08  8.234964918270093e-09  1.0000
  S   S1        1.0  0.26354274077421125  0.26354272867999157  0.7364572989638765  1.0000
  S   S2        1.0  0.7364573057090505  0.7364572929597786  0.26354269360589855  1.0000
  S   S3        1.0  0.73645728752  0.26354271806179025  0.26354273426230457  1.0000
  S   S4        1.0  0.2635427659962423  0.7364573056236985  0.7364572069991037  1.0000
  S   S5        1.0  0.2635426982926997  0.7364572829210806  0.2635427415911302  1.0000
  S   S6        1.0  0.7364572628788923  0.2635427284900969  0.7364573271442502  1.0000
