data_image0
_chemical_formula_structural       Fe2VS6
_chemical_formula_sum              "Fe2 V1 S6"
_cell_length_a       5.986311489477918
_cell_length_b       5.986312358196734
_cell_length_c       5.986310914430651
_cell_angle_alpha    59.999998962718436
_cell_angle_beta     60.00000018451737
_cell_angle_gamma    59.999999349000426

_space_group_name_H-M_alt    "P 1"
_space_group_IT_number       1

loop_
  _space_group_symop_operation_xyz
  'x, y, z'

loop_
  _atom_site_type_symbol
  _atom_site_label
  _atom_site_symmetry_multiplicity
  _atom_site_fract_x
  _atom_site_fract_y
  _atom_site_fract_z
  _atom_site_occupancy
  Fe  Fe1       1.0  0.25000036688973953  0.2500001377877999  0.24999957342431633  1.0000
  Fe  Fe2       1.0  0.7499997671162826  0.7500004154092372  0.7500005937820396  1.0000
  V   V1        1.0  3.117329766707913e-08  5.1147695356948486e-08  2.027292706228039e-07  1.0000
  S   S1        1.0  0.2635585003722536  0.26355799771289073  0.7364416344219745  1.0000
  S   S2        1.0  0.7364415780770408  0.7364418946557183  0.26355787532645153  1.0000
  S   S3        1.0  0.7364417666943289  0.2635582080067674  0.26355827217109873  1.0000
  S   S4        1.0  0.2635581100829445  0.7364413692918661  0.7364418901811325  1.0000
  S   S5        1.0  0.26355835422343876  0.73644175598503  0.2635581311101853  1.0000
  S   S6        1.0  0.7364415102915752  0.2635582284494424  0.7364418338052288  1.0000
