data_image0
_chemical_formula_structural       Fe2VSe6
_chemical_formula_sum              "Fe2 V1 Se6"
_cell_length_a       6.236794960205211
_cell_length_b       6.236795026446184
_cell_length_c       6.236795026503337
_cell_angle_alpha    59.999999796638946
_cell_angle_beta     59.99999927636283
_cell_angle_gamma    59.999999261414644

_space_group_name_H-M_alt    "P 1"
_space_group_IT_number       1

loop_
  _space_group_symop_operation_xyz
  'x, y, z'

loop_
  _atom_site_type_symbol
  _atom_site_label
  _atom_site_symmetry_multiplicity
  _atom_site_fract_x
  _atom_site_fract_y
  _atom_site_fract_z
  _atom_site_occupancy
  Fe  Fe1       1.0  0.2500000335387435  0.2499999877039639  0.24999999097756442  1.0000
  Fe  Fe2       1.0  0.7499999244862486  0.7500000082779311  0.7499998796792892  1.0000
  V   V1        1.0  0.9999999858045812  6.480344590441493e-08  1.4780677184477964e-08  1.0000
  Se  Se1       1.0  0.2771044027895873  0.2771043503146894  0.7228956228042291  1.0000
  Se  Se2       1.0  0.7228956254968039  0.7228956181748339  0.27710441085768817  1.0000
  Se  Se3       1.0  0.7228956406481801  0.27710438432860046  0.2771043502615264  1.0000
  Se  Se4       1.0  0.2771043880681748  0.7228955939796268  0.7228956542252427  1.0000
  Se  Se5       1.0  0.27710435846859804  0.7228955767054969  0.27710443902349335  1.0000
  Se  Se6       1.0  0.7228956385487862  0.27710441338517516  0.7228956427638191  1.0000
