data_image0
_chemical_formula_structural       Fe2VTe6
_chemical_formula_sum              "Fe2 V1 Te6"
_cell_length_a       7.031449602577066
_cell_length_b       7.031450649521815
_cell_length_c       7.031450446789641
_cell_angle_alpha    60.000002766737424
_cell_angle_beta     59.99999626813183
_cell_angle_gamma    60.000001032189985

_space_group_name_H-M_alt    "P 1"
_space_group_IT_number       1

loop_
  _space_group_symop_operation_xyz
  'x, y, z'

loop_
  _atom_site_type_symbol
  _atom_site_label
  _atom_site_symmetry_multiplicity
  _atom_site_fract_x
  _atom_site_fract_y
  _atom_site_fract_z
  _atom_site_occupancy
  Fe  Fe1       1.0  0.25000005708605005  0.25000001577543124  0.24999995132084782  1.0000
  Fe  Fe2       1.0  0.7499996909717691  0.7500002023473614  0.7500001474359157  1.0000
  V   V1        1.0  0.9999999668118456  0.999999759630278  1.3677893488824436e-07  1.0000
  Te  Te1       1.0  0.26860543403263215  0.26860494302068  0.7313948928947476  1.0000
  Te  Te2       1.0  0.7313947941977856  0.7313949824780874  0.26860497271392164  1.0000
  Te  Te3       1.0  0.7313946855276015  0.26860532933329856  0.26860520796492604  1.0000
  Te  Te4       1.0  0.2686053960807094  0.7313947355102408  0.7313947281249513  1.0000
  Te  Te5       1.0  0.26860531087448847  0.7313947020327868  0.26860515044591987  1.0000
  Te  Te6       1.0  0.7313946739610685  0.2686053279745621  0.731394788872435  1.0000
