data_image0
_chemical_formula_structural       Fe2VO6
_chemical_formula_sum              "Fe2 V1 O6"
_cell_length_a       5.075978171875444
_cell_length_b       5.075977680056936
_cell_length_c       5.0759771486252365
_cell_angle_alpha    60.00001007307638
_cell_angle_beta     60.000011921272154
_cell_angle_gamma    60.00001654641799

_space_group_name_H-M_alt    "P 1"
_space_group_IT_number       1

loop_
  _space_group_symop_operation_xyz
  'x, y, z'

loop_
  _atom_site_type_symbol
  _atom_site_label
  _atom_site_symmetry_multiplicity
  _atom_site_fract_x
  _atom_site_fract_y
  _atom_site_fract_z
  _atom_site_occupancy
  Fe  Fe1       1.0  0.24999930621359948  0.2500001920352584  0.2500003571516153  1.0000
  Fe  Fe2       1.0  0.7500012356004719  0.7499992104471338  0.7500007084943067  1.0000
  V   V1        1.0  0.9999999833665848  0.9999998383407104  1.6991896891979508e-07  1.0000
  O   O1        1.0  0.2539705824806707  0.25397203687264186  0.7460281637152818  1.0000
  O   O2        1.0  0.7460281948231736  0.7460285985631072  0.2539708942551755  1.0000
  O   O3        1.0  0.7460288175589437  0.253971450807632  0.2539714958435726  1.0000
  O   O4        1.0  0.2539710778121808  0.746027932372036  0.7460291619310828  1.0000
  O   O5        1.0  0.25397127755662996  0.7460291044432644  0.25397156030680307  1.0000
  O   O6        1.0  0.7460294624669558  0.25397163474427276  0.7460274553701801  1.0000
