data_image0
_chemical_formula_structural       Fe2YTe6
_chemical_formula_sum              "Fe2 Y1 Te6"
_cell_length_a       7.6017734564106725
_cell_length_b       7.601773320656879
_cell_length_c       7.601773067651498
_cell_angle_alpha    60.00000140857379
_cell_angle_beta     60.00000062292476
_cell_angle_gamma    60.000000001351474

_space_group_name_H-M_alt    "P 1"
_space_group_IT_number       1

loop_
  _space_group_symop_operation_xyz
  'x, y, z'

loop_
  _atom_site_type_symbol
  _atom_site_label
  _atom_site_symmetry_multiplicity
  _atom_site_fract_x
  _atom_site_fract_y
  _atom_site_fract_z
  _atom_site_occupancy
  Fe  Fe1       1.0  0.2500000294531313  0.2500000057897965  0.24999999227643172  1.0000
  Fe  Fe2       1.0  0.7500000473625191  0.7499999899801711  0.7499999110456663  1.0000
  Y   Y1        1.0  2.885310833312687e-09  0.9999999548883471  4.2160892063132557e-08  1.0000
  Te  Te1       1.0  0.2813867831788366  0.2813867899482558  0.7186132029182815  1.0000
  Te  Te2       1.0  0.7186132093869347  0.7186131897104083  0.2813868505610842  1.0000
  Te  Te3       1.0  0.718613206487341  0.28138675676800307  0.28138676301544585  1.0000
  Te  Te4       1.0  0.2813868272595914  0.7186132406130955  0.7186132123392666  1.0000
  Te  Te5       1.0  0.2813867261069051  0.7186132437671693  0.28138679582572884  1.0000
  Te  Te6       1.0  0.7186131664188243  0.28138683094819256  0.718613235151141  1.0000
