data_image0
_chemical_formula_structural       Fe2YO6
_chemical_formula_sum              "Fe2 Y1 O6"
_cell_length_a       5.517565907445495
_cell_length_b       5.517565796869386
_cell_length_c       5.517566164319734
_cell_angle_alpha    60.00000014013945
_cell_angle_beta     59.999999170576814
_cell_angle_gamma    60.000001307949866

_space_group_name_H-M_alt    "P 1"
_space_group_IT_number       1

loop_
  _space_group_symop_operation_xyz
  'x, y, z'

loop_
  _atom_site_type_symbol
  _atom_site_label
  _atom_site_symmetry_multiplicity
  _atom_site_fract_x
  _atom_site_fract_y
  _atom_site_fract_z
  _atom_site_occupancy
  Fe  Fe1       1.0  0.25000002952541783  0.249999892593799  0.25000009687803676  1.0000
  Fe  Fe2       1.0  0.7500001175919137  0.7500001683394085  0.7499996919297346  1.0000
  Y   Y1        1.0  1.6277942197681002e-08  0.9999999511661757  2.392023173339107e-07  1.0000
  O   O1        1.0  0.2760860580639981  0.27608600694093666  0.7239140057094339  1.0000
  O   O2        1.0  0.7239138525483586  0.7239140917275048  0.27608614709263046  1.0000
  O   O3        1.0  0.7239139410660717  0.27608596364931554  0.27608615533914005  1.0000
  O   O4        1.0  0.27608611496684365  0.7239138619936193  0.7239138310914438  1.0000
  O   O5        1.0  0.27608599872029205  0.7239138934754825  0.2760861163770784  1.0000
  O   O6        1.0  0.7239138597215022  0.2760861607985589  0.7239137403527371  1.0000
