data_image0
_chemical_formula_structural       Fe2YS6
_chemical_formula_sum              "Fe2 Y1 S6"
_cell_length_a       6.608263117347727
_cell_length_b       6.608263050784654
_cell_length_c       6.608263056905845
_cell_angle_alpha    60.000000429730335
_cell_angle_beta     60.00000000976215
_cell_angle_gamma    59.99999998098674

_space_group_name_H-M_alt    "P 1"
_space_group_IT_number       1

loop_
  _space_group_symop_operation_xyz
  'x, y, z'

loop_
  _atom_site_type_symbol
  _atom_site_label
  _atom_site_symmetry_multiplicity
  _atom_site_fract_x
  _atom_site_fract_y
  _atom_site_fract_z
  _atom_site_occupancy
  Fe  Fe1       1.0  0.2499998881135281  0.2500001917844097  0.24999997573432334  1.0000
  Fe  Fe2       1.0  0.7500000791977152  0.7500000174937685  0.7499998095470131  1.0000
  Y   Y1        1.0  0.9999999079714069  6.116067157271696e-08  1.8146486208360848e-09  1.0000
  S   S1        1.0  0.27745853411787635  0.2774586379851992  0.7225413996355019  1.0000
  S   S2        1.0  0.7225414944964046  0.7225413192368794  0.27745870649765014  1.0000
  S   S3        1.0  0.7225414275842835  0.27745853244209034  0.2774586050297637  1.0000
  S   S4        1.0  0.27745861453344944  0.7225413580592546  0.7225413900056463  1.0000
  S   S5        1.0  0.2774585820680682  0.7225413126168383  0.27745867655211365  1.0000
  S   S6        1.0  0.7225414714695857  0.2774585593509705  0.722541441587403  1.0000
