data_image0
_chemical_formula_structural       Fe2ZnS6
_chemical_formula_sum              "Fe2 Zn1 S6"
_cell_length_a       6.146855205069384
_cell_length_b       6.146855328614982
_cell_length_c       6.146855504459671
_cell_angle_alpha    59.99999957900146
_cell_angle_beta     59.999997203954706
_cell_angle_gamma    60.00000063895472

_space_group_name_H-M_alt    "P 1"
_space_group_IT_number       1

loop_
  _space_group_symop_operation_xyz
  'x, y, z'

loop_
  _atom_site_type_symbol
  _atom_site_label
  _atom_site_symmetry_multiplicity
  _atom_site_fract_x
  _atom_site_fract_y
  _atom_site_fract_z
  _atom_site_occupancy
  Fe  Fe1       1.0  0.24999998741037316  0.2499997378104223  0.2500000137671318  1.0000
  Fe  Fe2       1.0  0.7500008011458486  0.7499996159110064  0.7500001282830646  1.0000
  Zn  Zn1       1.0  0.9999998398502339  5.778174071335098e-08  6.419879891209974e-08  1.0000
  S   S1        1.0  0.2637672048381938  0.2637676778790646  0.7362325907649359  1.0000
  S   S2        1.0  0.7362325712720748  0.7362326900115513  0.2637672006513222  1.0000
  S   S3        1.0  0.7362327006223718  0.2637674714699007  0.2637672650013807  1.0000
  S   S4        1.0  0.2637671145430637  0.7362326214593201  0.7362325630255865  1.0000
  S   S5        1.0  0.26376719876821675  0.7362327520185799  0.2637675786091906  1.0000
  S   S6        1.0  0.7362325771565942  0.2637673628278568  0.7362325997175758  1.0000
