data_image0
_chemical_formula_structural       Fe2ZnTe6
_chemical_formula_sum              "Fe2 Zn1 Te6"
_cell_length_a       7.1071641150957365
_cell_length_b       7.107170942680291
_cell_length_c       7.107171651421718
_cell_angle_alpha    59.99997003193449
_cell_angle_beta     59.9999494042259
_cell_angle_gamma    60.00005928977529

_space_group_name_H-M_alt    "P 1"
_space_group_IT_number       1

loop_
  _space_group_symop_operation_xyz
  'x, y, z'

loop_
  _atom_site_type_symbol
  _atom_site_label
  _atom_site_symmetry_multiplicity
  _atom_site_fract_x
  _atom_site_fract_y
  _atom_site_fract_z
  _atom_site_occupancy
  Fe  Fe1       1.0  0.24999708270906473  0.24999548128978616  0.2500042031155658  1.0000
  Fe  Fe2       1.0  0.7499994998879971  0.7500076708947397  0.7500008275243164  1.0000
  Zn  Zn1       1.0  0.9999998082516542  5.8590372976753485e-08  2.9029668362798216e-07  1.0000
  Te  Te1       1.0  0.2749863607962439  0.274978360676061  0.7250194621363756  1.0000
  Te  Te2       1.0  0.7250167197701299  0.7250212554008785  0.27498047009981313  1.0000
  Te  Te3       1.0  0.7250215291014206  0.2749805227257589  0.2749836264780992  1.0000
  Te  Te4       1.0  0.2749799094519  0.7250201152392518  0.725013347291096  1.0000
  Te  Te5       1.0  0.2749792673926032  0.7250213898245317  0.27498312646521583  1.0000
  Te  Te6       1.0  0.7250195812401395  0.27497519332686743  0.7250145694817246  1.0000
