data_image0
_chemical_formula_structural       Fe2ZnSe6
_chemical_formula_sum              "Fe2 Zn1 Se6"
_cell_length_a       6.359553895947485
_cell_length_b       6.359553281100392
_cell_length_c       6.3595528758236695
_cell_angle_alpha    59.999993081009116
_cell_angle_beta     59.999993172529855
_cell_angle_gamma    59.99999834956386

_space_group_name_H-M_alt    "P 1"
_space_group_IT_number       1

loop_
  _space_group_symop_operation_xyz
  'x, y, z'

loop_
  _atom_site_type_symbol
  _atom_site_label
  _atom_site_symmetry_multiplicity
  _atom_site_fract_x
  _atom_site_fract_y
  _atom_site_fract_z
  _atom_site_occupancy
  Fe  Fe1       1.0  0.2499991056600636  0.250000436536204  0.2500007914931993  1.0000
  Fe  Fe2       1.0  0.7499999120395621  0.7499996360583718  0.7499995487787727  1.0000
  Zn  Zn1       1.0  0.999999956791562  0.9999999171891046  0.9999999466492946  1.0000
  Se  Se1       1.0  0.2857539830906128  0.28575392363586305  0.7142455345809671  1.0000
  Se  Se2       1.0  0.7142463076941875  0.7142456578708833  0.28575444142368817  1.0000
  Se  Se3       1.0  0.7142461960867971  0.2857539713003372  0.2857540655467781  1.0000
  Se  Se4       1.0  0.28575415026373285  0.714245933746658  0.7142459551980614  1.0000
  Se  Se5       1.0  0.2857539189317607  0.7142459406165506  0.2857542043675884  1.0000
  Se  Se6       1.0  0.7142464697930672  0.2857545672167622  0.7142455110937121  1.0000
