data_image0
_chemical_formula_structural       Fe2ZnO6
_chemical_formula_sum              "Fe2 Zn1 O6"
_cell_length_a       3.7018517339129393
_cell_length_b       3.23628442683666
_cell_length_c       3.318766647725701
_cell_angle_alpha    68.73549382342757
_cell_angle_beta     56.762815265475865
_cell_angle_gamma    78.97026218380972

_space_group_name_H-M_alt    "P 1"
_space_group_IT_number       1

loop_
  _space_group_symop_operation_xyz
  'x, y, z'

loop_
  _atom_site_type_symbol
  _atom_site_label
  _atom_site_symmetry_multiplicity
  _atom_site_fract_x
  _atom_site_fract_y
  _atom_site_fract_z
  _atom_site_occupancy
  Fe  Fe1       1.0  0.23386544734019377  0.7118833592936429  0.9868858336464774  1.0000
  Fe  Fe2       1.0  0.8222558101982849  0.23477147104124474  0.7532175311735071  1.0000
  Zn  Zn1       1.0  0.29982520251756295  0.5719640362195921  0.011119080154892444  1.0000
  O   O1        1.0  0.9263630766236635  0.03167430633170162  0.23609954531979138  1.0000
  O   O2        1.0  0.1916068551562593  0.2627905863594814  0.051222661395930257  1.0000
  O   O3        1.0  0.18269527641302163  0.8736544847890405  0.18220385447270804  1.0000
  O   O4        1.0  0.21368824819899723  0.3188741360567512  0.020399855415050405  1.0000
  O   O5        1.0  0.7532592364586188  0.8856620306428162  0.34679102014932495  1.0000
  O   O6        1.0  0.18227412807198173  0.8754938570339235  0.1814127713846707  1.0000
