data_image0
_chemical_formula_structural       Ge2BeS6
_chemical_formula_sum              "Ge2 Be1 S6"
_cell_length_a       6.234443287104425
_cell_length_b       6.234443215634311
_cell_length_c       6.234443124719495
_cell_angle_alpha    59.999999159647565
_cell_angle_beta     60.00000005666266
_cell_angle_gamma    59.99999646359575

_space_group_name_H-M_alt    "P 1"
_space_group_IT_number       1

loop_
  _space_group_symop_operation_xyz
  'x, y, z'

loop_
  _atom_site_type_symbol
  _atom_site_label
  _atom_site_symmetry_multiplicity
  _atom_site_fract_x
  _atom_site_fract_y
  _atom_site_fract_z
  _atom_site_occupancy
  Ge  Ge1       1.0  0.2500000620896934  0.2499996037616844  0.24999996538473326  1.0000
  Ge  Ge2       1.0  0.7500000945540917  0.7500002866107317  0.7499997352703573  1.0000
  Be  Be1       1.0  0.9999999903092197  0.9999999901775929  0.9999999648448039  1.0000
  S   S1        1.0  0.2574664136262889  0.2574664035088499  0.7425337437266295  1.0000
  S   S2        1.0  0.7425334204448926  0.7425336322352101  0.2574664914388558  1.0000
  S   S3        1.0  0.7425335241237511  0.25746638044056624  0.2574666267404236  1.0000
  S   S4        1.0  0.25746648447786813  0.7425336651258972  0.7425334071771503  1.0000
  S   S5        1.0  0.2574664313650928  0.7425336473502451  0.2574665457866832  1.0000
  S   S6        1.0  0.7425335803983115  0.25746639428725465  0.7425335189903376  1.0000
