data_image0
_chemical_formula_structural       Ge2BeTe6
_chemical_formula_sum              "Ge2 Be1 Te6"
_cell_length_a       6.974102292275835
_cell_length_b       6.974102084386635
_cell_length_c       6.974102422039532
_cell_angle_alpha    59.999998756128775
_cell_angle_beta     60.0000004502821
_cell_angle_gamma    59.99999915466926

_space_group_name_H-M_alt    "P 1"
_space_group_IT_number       1

loop_
  _space_group_symop_operation_xyz
  'x, y, z'

loop_
  _atom_site_type_symbol
  _atom_site_label
  _atom_site_symmetry_multiplicity
  _atom_site_fract_x
  _atom_site_fract_y
  _atom_site_fract_z
  _atom_site_occupancy
  Ge  Ge1       1.0  0.2500000006059014  0.24999983345221954  0.25000012853047743  1.0000
  Ge  Ge2       1.0  0.7499999217125278  0.7500002572498649  0.7499994922873002  1.0000
  Be  Be1       1.0  6.134401886750079e-08  2.4585858350929188e-08  0.9999999842787112  1.0000
  Te  Te1       1.0  0.23875927922652251  0.23875897711011415  0.7612408353931234  1.0000
  Te  Te2       1.0  0.7612407613352232  0.7612409327102996  0.23875936735232153  1.0000
  Te  Te3       1.0  0.7612408552792685  0.23875888693656347  0.23875941080070218  1.0000
  Te  Te4       1.0  0.2387592667302025  0.7612409772243994  0.7612407109600499  1.0000
  Te  Te5       1.0  0.23875896465347868  0.7612409824783892  0.23875925536101875  1.0000
  Te  Te6       1.0  0.7612408714510059  0.2387591433463496  0.7612408125620282  1.0000
