data_image0
_chemical_formula_structural       Ge2CoN6
_chemical_formula_sum              "Ge2 Co1 N6"
_cell_length_a       5.006376932167804
_cell_length_b       5.00637707111202
_cell_length_c       5.006377132282186
_cell_angle_alpha    60.000002076968904
_cell_angle_beta     60.00000164451125
_cell_angle_gamma    60.00000110251471

_space_group_name_H-M_alt    "P 1"
_space_group_IT_number       1

loop_
  _space_group_symop_operation_xyz
  'x, y, z'

loop_
  _atom_site_type_symbol
  _atom_site_label
  _atom_site_symmetry_multiplicity
  _atom_site_fract_x
  _atom_site_fract_y
  _atom_site_fract_z
  _atom_site_occupancy
  Ge  Ge1       1.0  0.24999994413096008  0.24999991769620172  0.25000007216057196  1.0000
  Ge  Ge2       1.0  0.7499998895825107  0.7500001004730829  0.7500001140672893  1.0000
  Co  Co1       1.0  3.7019256254047036e-08  3.42491734662143e-08  0.9999999643657866  1.0000
  N   N1        1.0  0.27044696133995944  0.27044677079551577  0.7295534821808811  1.0000
  N   N2        1.0  0.7295531825343582  0.7295532302491851  0.2704468851110482  1.0000
  N   N3        1.0  0.7295530052152109  0.27044672918082924  0.2704468001952466  1.0000
  N   N4        1.0  0.2704465119536702  0.7295533183448861  0.7295531620954466  1.0000
  N   N5        1.0  0.2704470915028253  0.7295533790768624  0.270446378484726  1.0000
  N   N6        1.0  0.7295533817075438  0.27044652655941065  0.7295531227987483  1.0000
