data_image0
_chemical_formula_structural       Ge2CN6
_chemical_formula_sum              "Ge2 C1 N6"
_cell_length_a       4.826551270146573
_cell_length_b       4.826551154588726
_cell_length_c       4.826551110546898
_cell_angle_alpha    60.000000155298274
_cell_angle_beta     60.00000143883221
_cell_angle_gamma    60.00000008820833

_space_group_name_H-M_alt    "P 1"
_space_group_IT_number       1

loop_
  _space_group_symop_operation_xyz
  'x, y, z'

loop_
  _atom_site_type_symbol
  _atom_site_label
  _atom_site_symmetry_multiplicity
  _atom_site_fract_x
  _atom_site_fract_y
  _atom_site_fract_z
  _atom_site_occupancy
  Ge  Ge1       1.0  0.25000004369801315  0.24999998466080528  0.24999997888729503  1.0000
  Ge  Ge2       1.0  0.7500000170801367  0.7499999945826648  0.7499999961593126  1.0000
  C   C1        1.0  3.390396462542878e-08  2.0300124842832795e-08  0.9999999211011351  1.0000
  N   N1        1.0  0.23290038004579697  0.23290032034390018  0.7670996645442214  1.0000
  N   N2        1.0  0.7670996372837174  0.7670995954616806  0.23290030800508266  1.0000
  N   N3        1.0  0.767099652932362  0.23290036274591272  0.23290036499193795  1.0000
  N   N4        1.0  0.23290040656458066  0.767099641872713  0.7670996539482613  1.0000
  N   N5        1.0  0.23290026189234928  0.7670996612191954  0.23290041136274495  1.0000
  N   N6        1.0  0.7670995134156751  0.23290044236253743  0.7670996691122669  1.0000
