data_image0
_chemical_formula_structural       Ge2CuS6
_chemical_formula_sum              "Ge2 Cu1 S6"
_cell_length_a       6.246276691311565
_cell_length_b       6.246276813213571
_cell_length_c       6.246276884804506
_cell_angle_alpha    60.000000444264515
_cell_angle_beta     59.9999995725882
_cell_angle_gamma    60.000000674812114

_space_group_name_H-M_alt    "P 1"
_space_group_IT_number       1

loop_
  _space_group_symop_operation_xyz
  'x, y, z'

loop_
  _atom_site_type_symbol
  _atom_site_label
  _atom_site_symmetry_multiplicity
  _atom_site_fract_x
  _atom_site_fract_y
  _atom_site_fract_z
  _atom_site_occupancy
  Ge  Ge1       1.0  0.2500002974318917  0.249999985174253  0.2499999730633575  1.0000
  Ge  Ge2       1.0  0.750000114362162  0.7499999378759135  0.7499995565272478  1.0000
  Cu  Cu1       1.0  0.9999999709827339  0.9999999705886023  0.9999999875895358  1.0000
  S   S1        1.0  0.25757560794849477  0.25757565096206525  0.7424243341182525  1.0000
  S   S2        1.0  0.7424242596008661  0.7424244407134484  0.2575759051929256  1.0000
  S   S3        1.0  0.7424241897971627  0.257575571921432  0.2575757419020924  1.0000
  S   S4        1.0  0.25757566115307673  0.7424244530882461  0.7424243277156771  1.0000
  S   S5        1.0  0.2575755478110017  0.7424242575024017  0.2575757577550878  1.0000
  S   S6        1.0  0.7424243472082357  0.25757571848828165  0.7424244216015771  1.0000
