data_image0
_chemical_formula_structural       Ge2CrN6
_chemical_formula_sum              "Ge2 Cr1 N6"
_cell_length_a       4.915932365509629
_cell_length_b       4.91593224156207
_cell_length_c       4.91593237482119
_cell_angle_alpha    59.99999912179834
_cell_angle_beta     59.99999999817134
_cell_angle_gamma    59.999997434187144

_space_group_name_H-M_alt    "P 1"
_space_group_IT_number       1

loop_
  _space_group_symop_operation_xyz
  'x, y, z'

loop_
  _atom_site_type_symbol
  _atom_site_label
  _atom_site_symmetry_multiplicity
  _atom_site_fract_x
  _atom_site_fract_y
  _atom_site_fract_z
  _atom_site_occupancy
  Ge  Ge1       1.0  0.25000000545754136  0.250000058128789  0.24999995667826247  1.0000
  Ge  Ge2       1.0  0.7500000118215225  0.749999920265738  0.7500000278494823  1.0000
  Cr  Cr1       1.0  1.1341465537716147e-08  0.9999999800689701  2.26058009741104e-09  1.0000
  N   N1        1.0  0.28609807654133645  0.2860982166454312  0.7139019217603082  1.0000
  N   N2        1.0  0.7139018816570576  0.7139019037576837  0.2860981779370397  1.0000
  N   N3        1.0  0.7139017835643783  0.2860982606787049  0.28609807223043643  1.0000
  N   N4        1.0  0.2860981786682772  0.7139018123882143  0.7139018558686785  1.0000
  N   N5        1.0  0.28609823041273413  0.7139017127416297  0.2860980982275483  1.0000
  N   N6        1.0  0.7139018214851124  0.28609813360982467  0.7139018922940972  1.0000
