data_image0
_chemical_formula_structural       Ge2CuSe6
_chemical_formula_sum              "Ge2 Cu1 Se6"
_cell_length_a       6.313342075602676
_cell_length_b       6.313341970208227
_cell_length_c       6.313342384848603
_cell_angle_alpha    59.99999717151572
_cell_angle_beta     59.99999705341651
_cell_angle_gamma    59.9999899002289

_space_group_name_H-M_alt    "P 1"
_space_group_IT_number       1

loop_
  _space_group_symop_operation_xyz
  'x, y, z'

loop_
  _atom_site_type_symbol
  _atom_site_label
  _atom_site_symmetry_multiplicity
  _atom_site_fract_x
  _atom_site_fract_y
  _atom_site_fract_z
  _atom_site_occupancy
  Ge  Ge1       1.0  0.2500001150781584  0.2500002721015044  0.24999989731796304  1.0000
  Ge  Ge2       1.0  0.7499997328390741  0.7499997124836809  0.7500002459441852  1.0000
  Cu  Cu1       1.0  0.9999999773517062  0.9999999088232323  2.1847512973996806e-07  1.0000
  Se  Se1       1.0  0.28455914702228596  0.28455937499996803  0.7154406325855391  1.0000
  Se  Se2       1.0  0.7154408905579088  0.7154404466309752  0.28455914885389877  1.0000
  Se  Se3       1.0  0.7154406613620994  0.28455955411686357  0.2845589964379372  1.0000
  Se  Se4       1.0  0.2845594142335294  0.7154405759631461  0.715440888959981  1.0000
  Se  Se5       1.0  0.28455943527083055  0.7154407166826708  0.28455907156614224  1.0000
  Se  Se6       1.0  0.7154406323431752  0.2845594483161021  0.7154409159913399  1.0000
