data_image0
_chemical_formula_structural       Ge2CuO6
_chemical_formula_sum              "Ge2 Cu1 O6"
_cell_length_a       5.150148015171279
_cell_length_b       5.1501480465293055
_cell_length_c       5.150148158909045
_cell_angle_alpha    60.00000103358997
_cell_angle_beta     60.000000752010585
_cell_angle_gamma    60.000001453367055

_space_group_name_H-M_alt    "P 1"
_space_group_IT_number       1

loop_
  _space_group_symop_operation_xyz
  'x, y, z'

loop_
  _atom_site_type_symbol
  _atom_site_label
  _atom_site_symmetry_multiplicity
  _atom_site_fract_x
  _atom_site_fract_y
  _atom_site_fract_z
  _atom_site_occupancy
  Ge  Ge1       1.0  0.25000001410881934  0.24999986545734976  0.24999976584241562  1.0000
  Ge  Ge2       1.0  0.7499999709841533  0.7499998103989808  0.7499994747214748  1.0000
  Cu  Cu1       1.0  2.6088844400681246e-08  4.280538689220028e-08  3.5453786913618014e-08  1.0000
  O   O1        1.0  0.2520937138007386  0.2520930603774651  0.7479066915013993  1.0000
  O   O2        1.0  0.7479065117340234  0.7479068223715813  0.2520935175939557  1.0000
  O   O3        1.0  0.7479065306237198  0.25209367930716586  0.25209314875786054  1.0000
  O   O4        1.0  0.25209343425927727  0.7479065078357308  0.7479069161398748  1.0000
  O   O5        1.0  0.2520929187696676  0.7479067579401322  0.2520938719663348  1.0000
  O   O6        1.0  0.7479068366485595  0.2520934791423838  0.7479065891897231  1.0000
