data_image0
_chemical_formula_structural       Ge2CuTe6
_chemical_formula_sum              "Ge2 Cu1 Te6"
_cell_length_a       6.9480778903681095
_cell_length_b       6.948077734042891
_cell_length_c       6.948077714641677
_cell_angle_alpha    60.000000462277896
_cell_angle_beta     59.99999943514357
_cell_angle_gamma    59.999999620110934

_space_group_name_H-M_alt    "P 1"
_space_group_IT_number       1

loop_
  _space_group_symop_operation_xyz
  'x, y, z'

loop_
  _atom_site_type_symbol
  _atom_site_label
  _atom_site_symmetry_multiplicity
  _atom_site_fract_x
  _atom_site_fract_y
  _atom_site_fract_z
  _atom_site_occupancy
  Ge  Ge1       1.0  0.25000028551958725  0.24999983473634363  0.2499999210376258  1.0000
  Ge  Ge2       1.0  0.7499997120226253  0.7499999713272795  0.7499999391869238  1.0000
  Cu  Cu1       1.0  8.37171268181395e-08  0.9999999383051364  0.9999999443722103  1.0000
  Te  Te1       1.0  0.266605118712649  0.26660492898125626  0.7333949590140301  1.0000
  Te  Te2       1.0  0.733394843909408  0.7333950815567734  0.2666051589741806  1.0000
  Te  Te3       1.0  0.733394826960941  0.2666050388139919  0.2666051009022344  1.0000
  Te  Te4       1.0  0.2666051922492055  0.7333949964019827  0.7333949620604884  1.0000
  Te  Te5       1.0  0.2666050939390145  0.733395021938572  0.26660497778223496  1.0000
  Te  Te6       1.0  0.7333948454969991  0.2666051877857295  0.7333950363741454  1.0000
