data_image0
_chemical_formula_structural       Ge2CS6
_chemical_formula_sum              "Ge2 C1 S6"
_cell_length_a       6.014377481434624
_cell_length_b       6.014377988648173
_cell_length_c       6.014378210632707
_cell_angle_alpha    59.99999695533967
_cell_angle_beta     59.99999659684492
_cell_angle_gamma    60.00000088395629

_space_group_name_H-M_alt    "P 1"
_space_group_IT_number       1

loop_
  _space_group_symop_operation_xyz
  'x, y, z'

loop_
  _atom_site_type_symbol
  _atom_site_label
  _atom_site_symmetry_multiplicity
  _atom_site_fract_x
  _atom_site_fract_y
  _atom_site_fract_z
  _atom_site_occupancy
  Ge  Ge1       1.0  0.25000049016161  0.2500000542450354  0.24999962817929608  1.0000
  Ge  Ge2       1.0  0.7499998576320527  0.7500002034623163  0.7499994394878285  1.0000
  C   C1        1.0  0.999999931795297  0.9999999857454641  1.6759347164642754e-07  1.0000
  S   S1        1.0  0.22691933659791863  0.22691887030794494  0.7730807197745128  1.0000
  S   S2        1.0  0.7730807285479293  0.773081140999621  0.2269193556353881  1.0000
  S   S3        1.0  0.7730804315323988  0.22691890264530504  0.22691941571976162  1.0000
  S   S4        1.0  0.22691936874711616  0.7730809701896578  0.7730810342785635  1.0000
  S   S5        1.0  0.22691913217488574  0.7730808116805066  0.22691906260402078  1.0000
  S   S6        1.0  0.7730806458976124  0.22691918537252198  0.7730811900727387  1.0000
