data_image0
_chemical_formula_structural       Ge2FeN6
_chemical_formula_sum              "Ge2 Fe1 N6"
_cell_length_a       4.8323530146417895
_cell_length_b       4.832336198224083
_cell_length_c       4.832334319907721
_cell_angle_alpha    59.99989944585292
_cell_angle_beta     60.00005029492285
_cell_angle_gamma    60.00003405385665

_space_group_name_H-M_alt    "P 1"
_space_group_IT_number       1

loop_
  _space_group_symop_operation_xyz
  'x, y, z'

loop_
  _atom_site_type_symbol
  _atom_site_label
  _atom_site_symmetry_multiplicity
  _atom_site_fract_x
  _atom_site_fract_y
  _atom_site_fract_z
  _atom_site_occupancy
  Ge  Ge1       1.0  0.24999960662645418  0.25000354269746  0.24999857544157397  1.0000
  Ge  Ge2       1.0  0.750001245767347  0.7499997374334215  0.7499992199447306  1.0000
  Fe  Fe1       1.0  0.9999997237689948  0.999999323293217  5.075105349612506e-07  1.0000
  N   N1        1.0  0.2892457599425345  0.2892715255504269  0.7107374484633375  1.0000
  N   N2        1.0  0.7107492796756462  0.7107301603844911  0.28926287706756804  1.0000
  N   N3        1.0  0.7107497450881347  0.2892579843123663  0.2892599306279331  1.0000
  N   N4        1.0  0.28925238959143  0.7107378216339799  0.7107440172072338  1.0000
  N   N5        1.0  0.2892481440542737  0.710734329087261  0.2892708432424451  1.0000
  N   N6        1.0  0.710754239001325  0.28926511891219714  0.7107270888783683  1.0000
