data_image0
_chemical_formula_structural       Ge2MgO6
_chemical_formula_sum              "Ge2 Mg1 O6"
_cell_length_a       5.212640065416091
_cell_length_b       5.212639966056875
_cell_length_c       5.21263991855002
_cell_angle_alpha    60.000002870151064
_cell_angle_beta     60.00000194506685
_cell_angle_gamma    59.9999995415945

_space_group_name_H-M_alt    "P 1"
_space_group_IT_number       1

loop_
  _space_group_symop_operation_xyz
  'x, y, z'

loop_
  _atom_site_type_symbol
  _atom_site_label
  _atom_site_symmetry_multiplicity
  _atom_site_fract_x
  _atom_site_fract_y
  _atom_site_fract_z
  _atom_site_occupancy
  Ge  Ge1       1.0  0.2500000391570075  0.2499999087361639  0.24999999075459434  1.0000
  Ge  Ge2       1.0  0.7500002781934009  0.7499998554346913  0.7499998694946  1.0000
  Mg  Mg1       1.0  4.64077406522837e-08  0.9999999671060571  8.590410722843714e-09  1.0000
  O   O1        1.0  0.26690505666492903  0.2669049873249984  0.7330951466547548  1.0000
  O   O2        1.0  0.7330948315367254  0.7330950940374636  0.26690519162403686  1.0000
  O   O3        1.0  0.7330948841149695  0.2669051146995605  0.26690492376594216  1.0000
  O   O4        1.0  0.26690474775002265  0.7330950113046713  0.7330949409993477  1.0000
  O   O5        1.0  0.26690499701544446  0.7330949337263625  0.26690507263270374  1.0000
  O   O6        1.0  0.7330950993030595  0.266905114742144  0.7330948403938251  1.0000
