data_image0
_chemical_formula_structural       Ge2MgS6
_chemical_formula_sum              "Ge2 Mg1 S6"
_cell_length_a       6.443544779049542
_cell_length_b       6.4435446913515255
_cell_length_c       6.4435445671340545
_cell_angle_alpha    59.9999998849737
_cell_angle_beta     60.000000216253646
_cell_angle_gamma    60.00000100895479

_space_group_name_H-M_alt    "P 1"
_space_group_IT_number       1

loop_
  _space_group_symop_operation_xyz
  'x, y, z'

loop_
  _atom_site_type_symbol
  _atom_site_label
  _atom_site_symmetry_multiplicity
  _atom_site_fract_x
  _atom_site_fract_y
  _atom_site_fract_z
  _atom_site_occupancy
  Ge  Ge1       1.0  0.2500000237086761  0.25000006474331543  0.2499997302237724  1.0000
  Ge  Ge2       1.0  0.7499999203474558  0.7499998939143568  0.7499998243788428  1.0000
  Mg  Mg1       1.0  0.9999999864060668  0.9999999923970735  3.077366098704348e-08  1.0000
  S   S1        1.0  0.2701851549592008  0.2701850293752153  0.7298149841096426  1.0000
  S   S2        1.0  0.7298149155885515  0.7298149368853812  0.2701851971632571  1.0000
  S   S3        1.0  0.7298149453109332  0.27018506753293764  0.2701851404970235  1.0000
  S   S4        1.0  0.27018513305715464  0.7298148645144916  0.7298149841349544  1.0000
  S   S5        1.0  0.27018507467318587  0.7298149657606746  0.27018512556325064  1.0000
  S   S6        1.0  0.7298148344802466  0.2701851943745383  0.7298149711841038  1.0000
