data_image0
_chemical_formula_structural       Ge2NiSe6
_chemical_formula_sum              "Ge2 Ni1 Se6"
_cell_length_a       6.498488054213081
_cell_length_b       6.498488137657266
_cell_length_c       6.4984881177330855
_cell_angle_alpha    59.99999983889135
_cell_angle_beta     59.99999891356802
_cell_angle_gamma    59.99999899871525

_space_group_name_H-M_alt    "P 1"
_space_group_IT_number       1

loop_
  _space_group_symop_operation_xyz
  'x, y, z'

loop_
  _atom_site_type_symbol
  _atom_site_label
  _atom_site_symmetry_multiplicity
  _atom_site_fract_x
  _atom_site_fract_y
  _atom_site_fract_z
  _atom_site_occupancy
  Ge  Ge1       1.0  0.24999992195534726  0.25000003247070757  0.25000002102360874  1.0000
  Ge  Ge2       1.0  0.7499999883358474  0.7500000163716868  0.7500001293110726  1.0000
  Ni  Ni1       1.0  0.9999999910263292  0.9999999736147427  7.524500890773106e-10  1.0000
  Se  Se1       1.0  0.2512471679253991  0.25124713160336554  0.7487528455593663  1.0000
  Se  Se2       1.0  0.7487528752373188  0.7487528757764801  0.25124704517492147  1.0000
  Se  Se3       1.0  0.7487528824877572  0.25124715264229397  0.2512471171919774  1.0000
  Se  Se4       1.0  0.2512470865481223  0.7487528905461162  0.74875287272006  1.0000
  Se  Se5       1.0  0.25124720598149736  0.7487528528989479  0.25124710719883997  1.0000
  Se  Se6       1.0  0.7487528845841235  0.25124706024783505  0.7487528685033064  1.0000
