data_image0
_chemical_formula_structural       Ge2NiTe6
_chemical_formula_sum              "Ge2 Ni1 Te6"
_cell_length_a       6.9292916751543485
_cell_length_b       6.929291618323088
_cell_length_c       6.929291731579343
_cell_angle_alpha    59.99999971465067
_cell_angle_beta     59.99999944154968
_cell_angle_gamma    59.99999949693928

_space_group_name_H-M_alt    "P 1"
_space_group_IT_number       1

loop_
  _space_group_symop_operation_xyz
  'x, y, z'

loop_
  _atom_site_type_symbol
  _atom_site_label
  _atom_site_symmetry_multiplicity
  _atom_site_fract_x
  _atom_site_fract_y
  _atom_site_fract_z
  _atom_site_occupancy
  Ge  Ge1       1.0  0.2500000252201611  0.25000000110438436  0.24999998738155546  1.0000
  Ge  Ge2       1.0  0.7499999835027931  0.7500000298254927  0.7500000151714271  1.0000
  Ni  Ni1       1.0  5.788812222102022e-08  0.9999999063230675  6.696146874376883e-08  1.0000
  Te  Te1       1.0  0.2573802941711328  0.2573802571561846  0.7426197110544103  1.0000
  Te  Te2       1.0  0.7426197528964771  0.7426197437263744  0.25738023539654176  1.0000
  Te  Te3       1.0  0.7426197122203633  0.25738027490706855  0.25738028359815734  1.0000
  Te  Te4       1.0  0.25738027004228176  0.7426197454178728  0.7426197100676178  1.0000
  Te  Te5       1.0  0.25738024915795416  0.7426197523207682  0.2573802538854306  1.0000
  Te  Te6       1.0  0.742619653790161  0.2573802909815339  0.7426197361996529  1.0000
