data_image0
_chemical_formula_structural       Ge2NiS6
_chemical_formula_sum              "Ge2 Ni1 S6"
_cell_length_a       6.218151467500041
_cell_length_b       6.218151376539984
_cell_length_c       6.218151379968544
_cell_angle_alpha    60.00000144655755
_cell_angle_beta     60.00000050748485
_cell_angle_gamma    59.99999956948511

_space_group_name_H-M_alt    "P 1"
_space_group_IT_number       1

loop_
  _space_group_symop_operation_xyz
  'x, y, z'

loop_
  _atom_site_type_symbol
  _atom_site_label
  _atom_site_symmetry_multiplicity
  _atom_site_fract_x
  _atom_site_fract_y
  _atom_site_fract_z
  _atom_site_occupancy
  Ge  Ge1       1.0  0.2500000684842222  0.25000007678653907  0.24999995272845962  1.0000
  Ge  Ge2       1.0  0.7499999043413681  0.7500001476352212  0.7500000742261501  1.0000
  Ni  Ni1       1.0  7.952505813655774e-09  3.7422940183372155e-08  0.9999998245337518  1.0000
  S   S1        1.0  0.24508901253291637  0.24508893637945897  0.7549110701526023  1.0000
  S   S2        1.0  0.7549110144124621  0.7549110142639278  0.24508894440847656  1.0000
  S   S3        1.0  0.7549111042815693  0.24508883385551325  0.2450889175224347  1.0000
  S   S4        1.0  0.2450889020503538  0.7549110616382748  0.7549111944233858  1.0000
  S   S5        1.0  0.2450889325046047  0.7549110197694172  0.24508889503009518  1.0000
  S   S6        1.0  0.7549110548262298  0.24508886587622652  0.7549111203748864  1.0000
