data_image0
_chemical_formula_structural       Ge2NiN6
_chemical_formula_sum              "Ge2 Ni1 N6"
_cell_length_a       4.969993096848168
_cell_length_b       4.969995168767231
_cell_length_c       4.969990049671267
_cell_angle_alpha    60.00004018138588
_cell_angle_beta     60.00002371764973
_cell_angle_gamma    60.000063633543775

_space_group_name_H-M_alt    "P 1"
_space_group_IT_number       1

loop_
  _space_group_symop_operation_xyz
  'x, y, z'

loop_
  _atom_site_type_symbol
  _atom_site_label
  _atom_site_symmetry_multiplicity
  _atom_site_fract_x
  _atom_site_fract_y
  _atom_site_fract_z
  _atom_site_occupancy
  Ge  Ge1       1.0  0.24999947492346286  0.2499995748010413  0.2500005847547984  1.0000
  Ge  Ge2       1.0  0.7499995447026875  0.7500009545735933  0.7499999846455496  1.0000
  Ni  Ni1       1.0  3.857514897656566e-07  0.9999996303586786  0.9999996700126748  1.0000
  N   N1        1.0  0.28934275925635217  0.2893394600495431  0.7106597080679696  1.0000
  N   N2        1.0  0.7106563373140012  0.7106615424662327  0.28934167683517287  1.0000
  N   N3        1.0  0.7106619564721633  0.2893356393303173  0.28934511202653407  1.0000
  N   N4        1.0  0.28933786573402875  0.710662398661165  0.7106544969426878  1.0000
  N   N5        1.0  0.2893392438431031  0.710664605123645  0.2893428048236467  1.0000
  N   N6        1.0  0.7106624599212835  0.28933617314387383  0.7106559821652175  1.0000
