data_image0
_chemical_formula_structural       Ge2NiO6
_chemical_formula_sum              "Ge2 Ni1 O6"
_cell_length_a       5.113417366612421
_cell_length_b       5.113417392047326
_cell_length_c       5.113417351943739
_cell_angle_alpha    60.00000009556269
_cell_angle_beta     59.99999966501671
_cell_angle_gamma    60.00000011254154

_space_group_name_H-M_alt    "P 1"
_space_group_IT_number       1

loop_
  _space_group_symop_operation_xyz
  'x, y, z'

loop_
  _atom_site_type_symbol
  _atom_site_label
  _atom_site_symmetry_multiplicity
  _atom_site_fract_x
  _atom_site_fract_y
  _atom_site_fract_z
  _atom_site_occupancy
  Ge  Ge1       1.0  0.249999898871787  0.2500000319105364  0.25000004014169097  1.0000
  Ge  Ge2       1.0  0.7500000869396768  0.7499999951349232  0.7500000772545012  1.0000
  Ni  Ni1       1.0  0.9999999738372346  0.9999999904193632  8.09350460749959e-09  1.0000
  O   O1        1.0  0.24738253551771133  0.24738285331579832  0.7526172532464201  1.0000
  O   O2        1.0  0.7526175080945097  0.7526171425925917  0.24738265134271817  1.0000
  O   O3        1.0  0.7526172680850609  0.24738262844924888  0.24738275353358757  1.0000
  O   O4        1.0  0.24738274683225384  0.7526173722494596  0.7526172255883026  1.0000
  O   O5        1.0  0.24738277765290428  0.7526174082947354  0.24738260397568368  1.0000
  O   O6        1.0  0.7526172116260685  0.24738259479913208  0.7526173906790765  1.0000
