data_image0
_chemical_formula_structural       Ge2OsN6
_chemical_formula_sum              "Ge2 Os1 N6"
_cell_length_a       5.13852720273396
_cell_length_b       5.138527148380795
_cell_length_c       5.138527187010702
_cell_angle_alpha    59.999998709477595
_cell_angle_beta     59.9999991307429
_cell_angle_gamma    60.00000058081462

_space_group_name_H-M_alt    "P 1"
_space_group_IT_number       1

loop_
  _space_group_symop_operation_xyz
  'x, y, z'

loop_
  _atom_site_type_symbol
  _atom_site_label
  _atom_site_symmetry_multiplicity
  _atom_site_fract_x
  _atom_site_fract_y
  _atom_site_fract_z
  _atom_site_occupancy
  Ge  Ge1       1.0  0.25000001269622235  0.2500000068740028  0.24999997600028454  1.0000
  Ge  Ge2       1.0  0.7499999767576331  0.7500000158550972  0.7499999591037436  1.0000
  Os  Os1       1.0  8.988571134785313e-09  0.9999999999999992  1.1616285590851785e-07  1.0000
  N   N1        1.0  0.26608432553509725  0.2660843542859919  0.7339155145605146  1.0000
  N   N2        1.0  0.7339156869588248  0.7339155993229121  0.2660841964310474  1.0000
  N   N3        1.0  0.7339156761144683  0.2660843405549219  0.2660844567870629  1.0000
  N   N4        1.0  0.2660844108973316  0.7339156726403578  0.7339156211288631  1.0000
  N   N5        1.0  0.26608430663557503  0.7339156216306034  0.26608446959903326  1.0000
  N   N6        1.0  0.7339155877801002  0.26608439633158326  0.7339156983393371  1.0000
