data_image0
_chemical_formula_structural       Ge2PN6
_chemical_formula_sum              "Ge2 P1 N6"
_cell_length_a       5.194906171969145
_cell_length_b       5.194904360891121
_cell_length_c       5.194904609502067
_cell_angle_alpha    59.99999509142615
_cell_angle_beta     60.00003122157405
_cell_angle_gamma    59.999997986803564

_space_group_name_H-M_alt    "P 1"
_space_group_IT_number       1

loop_
  _space_group_symop_operation_xyz
  'x, y, z'

loop_
  _atom_site_type_symbol
  _atom_site_label
  _atom_site_symmetry_multiplicity
  _atom_site_fract_x
  _atom_site_fract_y
  _atom_site_fract_z
  _atom_site_occupancy
  Ge  Ge1       1.0  0.25001253870711165  0.2499859917519008  0.2499754140766019  1.0000
  Ge  Ge2       1.0  0.7500061006803344  0.7499870726131146  0.7499953062172396  1.0000
  P   P1        1.0  5.373936713584752e-09  0.9999995237671362  0.9999989437791951  1.0000
  N   N1        1.0  0.24104575374605278  0.24106254710628114  0.7589830457016747  1.0000
  N   N2        1.0  0.7589367348446725  0.7589550143865422  0.24106948374922088  1.0000
  N   N3        1.0  0.7589563325637038  0.2410681121268604  0.24104154894682375  1.0000
  N   N4        1.0  0.24105747734722993  0.758969866096121  0.7589223037853825  1.0000
  N   N5        1.0  0.24105346514343634  0.7589264698075457  0.2410551164304565  1.0000
  N   N6        1.0  0.7589317280041952  0.24104580240395176  0.7589595647410161  1.0000
