data_image0
_chemical_formula_structural       Ge2PdN6
_chemical_formula_sum              "Ge2 Pd1 N6"
_cell_length_a       4.947440708378612
_cell_length_b       4.947440325333036
_cell_length_c       4.947440082052501
_cell_angle_alpha    59.99999956166717
_cell_angle_beta     60.000001173572194
_cell_angle_gamma    59.999999201834505

_space_group_name_H-M_alt    "P 1"
_space_group_IT_number       1

loop_
  _space_group_symop_operation_xyz
  'x, y, z'

loop_
  _atom_site_type_symbol
  _atom_site_label
  _atom_site_symmetry_multiplicity
  _atom_site_fract_x
  _atom_site_fract_y
  _atom_site_fract_z
  _atom_site_occupancy
  Ge  Ge1       1.0  0.24999994079541213  0.25000002435305846  0.250000031876883  1.0000
  Ge  Ge2       1.0  0.7500000832935294  0.7499999765142012  0.7499999669607965  1.0000
  Pd  Pd1       1.0  0.999999988706473  6.188780534341007e-08  0.999999942362903  1.0000
  N   N1        1.0  0.28826426597820737  0.28826487460421674  0.7117351817427614  1.0000
  N   N2        1.0  0.7117358212199816  0.7117352030039255  0.2882644399402584  1.0000
  N   N3        1.0  0.7117356713108776  0.2882643696225129  0.2882647412788926  1.0000
  N   N4        1.0  0.2882645714441255  0.7117352203097208  0.7117355194355509  1.0000
  N   N5        1.0  0.28826400989330686  0.7117355992017808  0.28826491778974755  1.0000
  N   N6        1.0  0.7117356645016403  0.2882646665452812  0.7117352427086239  1.0000
