data_image0
_chemical_formula_structural       Ge2PtN6
_chemical_formula_sum              "Ge2 Pt1 N6"
_cell_length_a       5.045376824734933
_cell_length_b       5.045376870078959
_cell_length_c       5.045377686006835
_cell_angle_alpha    59.99999558633898
_cell_angle_beta     59.99998799904601
_cell_angle_gamma    59.99999828391387

_space_group_name_H-M_alt    "P 1"
_space_group_IT_number       1

loop_
  _space_group_symop_operation_xyz
  'x, y, z'

loop_
  _atom_site_type_symbol
  _atom_site_label
  _atom_site_symmetry_multiplicity
  _atom_site_fract_x
  _atom_site_fract_y
  _atom_site_fract_z
  _atom_site_occupancy
  Ge  Ge1       1.0  0.25000003946549626  0.24999989400914024  0.25000002441250346  1.0000
  Ge  Ge2       1.0  0.7499998925556323  0.7500000437189103  0.750000013240256  1.0000
  Pt  Pt1       1.0  3.830378293543411e-08  1.116631471804681e-07  0.9999999250165339  1.0000
  N   N1        1.0  0.27668373825418835  0.27668301511372356  0.7233162659258168  1.0000
  N   N2        1.0  0.72331701444919  0.7233176120128841  0.27668246568711985  1.0000
  N   N3        1.0  0.7233164868904007  0.27668238567462017  0.27668370985631213  1.0000
  N   N4        1.0  0.2766830988973943  0.7233163456059803  0.723317964330131  1.0000
  N   N5        1.0  0.2766830229883872  0.7233171603345467  0.27668254195894565  1.0000
  N   N6        1.0  0.7233167037616892  0.27668342067031265  0.7233171062379027  1.0000
