data_image0
_chemical_formula_structural       Ge2RuN6
_chemical_formula_sum              "Ge2 Ru1 N6"
_cell_length_a       5.064455276857958
_cell_length_b       5.064455154036819
_cell_length_c       5.064455508759589
_cell_angle_alpha    59.99999946190409
_cell_angle_beta     60.00000222554555
_cell_angle_gamma    60.00000563794492

_space_group_name_H-M_alt    "P 1"
_space_group_IT_number       1

loop_
  _space_group_symop_operation_xyz
  'x, y, z'

loop_
  _atom_site_type_symbol
  _atom_site_label
  _atom_site_symmetry_multiplicity
  _atom_site_fract_x
  _atom_site_fract_y
  _atom_site_fract_z
  _atom_site_occupancy
  Ge  Ge1       1.0  0.24999998248927788  0.24999999560161185  0.2499999632556171  1.0000
  Ge  Ge2       1.0  0.7500000242057749  0.749999948111799  0.7499999793444266  1.0000
  Ru  Ru1       1.0  1.7825160369979843e-08  2.1764837919001695e-08  5.3263200970745196e-08  1.0000
  N   N1        1.0  0.27160406193796066  0.2716042239501503  0.7283959318151696  1.0000
  N   N2        1.0  0.7283963003239541  0.728395685906872  0.2716037709478099  1.0000
  N   N3        1.0  0.7283958738158236  0.27160426782689434  0.2716039201720473  1.0000
  N   N4        1.0  0.2716035348408896  0.7283961498762447  0.7283961673832203  1.0000
  N   N5        1.0  0.2716040957807275  0.7283959270541911  0.2716041050993553  1.0000
  N   N6        1.0  0.7283961001591613  0.2716037772460349  0.7283961113776517  1.0000
