data_image0
_chemical_formula_structural       Ge2RhN6
_chemical_formula_sum              "Ge2 Rh1 N6"
_cell_length_a       4.913580108763898
_cell_length_b       4.913579407737041
_cell_length_c       4.913578818347478
_cell_angle_alpha    60.00003040209608
_cell_angle_beta     60.00000600881942
_cell_angle_gamma    59.99999562941391

_space_group_name_H-M_alt    "P 1"
_space_group_IT_number       1

loop_
  _space_group_symop_operation_xyz
  'x, y, z'

loop_
  _atom_site_type_symbol
  _atom_site_label
  _atom_site_symmetry_multiplicity
  _atom_site_fract_x
  _atom_site_fract_y
  _atom_site_fract_z
  _atom_site_occupancy
  Ge  Ge1       1.0  0.25001208499012406  0.24999956791753825  0.24999102133478185  1.0000
  Ge  Ge2       1.0  0.7500131534713509  0.7499991574044839  0.7499817198121264  1.0000
  Rh  Rh1       1.0  0.9999980971772897  0.9999997582211197  1.446773256188554e-06  1.0000
  N   N1        1.0  0.31648509968840044  0.3164758753407078  0.6835111826769248  1.0000
  N   N2        1.0  0.6835019503693038  0.6834927621639477  0.31649426788143165  1.0000
  N   N3        1.0  0.683487853353694  0.3165176478297258  0.3165084769744201  1.0000
  N   N4        1.0  0.31647407774477915  0.6835314648445507  0.6835222752092226  1.0000
  N   N5        1.0  0.316505892223207  0.6834998400528071  0.3164869975170585  1.0000
  N   N6        1.0  0.6835217087610644  0.31648392984589924  0.6835027084721356  1.0000
