data_image0
_chemical_formula_structural       Ge2SO6
_chemical_formula_sum              "Ge2 S1 O6"
_cell_length_a       5.112171916283107
_cell_length_b       5.112171928509356
_cell_length_c       5.112171656834353
_cell_angle_alpha    59.99999912650692
_cell_angle_beta     60.000000025627784
_cell_angle_gamma    59.999999056699025

_space_group_name_H-M_alt    "P 1"
_space_group_IT_number       1

loop_
  _space_group_symop_operation_xyz
  'x, y, z'

loop_
  _atom_site_type_symbol
  _atom_site_label
  _atom_site_symmetry_multiplicity
  _atom_site_fract_x
  _atom_site_fract_y
  _atom_site_fract_z
  _atom_site_occupancy
  Ge  Ge1       1.0  0.24999998515529845  0.2499999907305732  0.25000006686708315  1.0000
  Ge  Ge2       1.0  0.7499999980176982  0.749999912298152  0.7500001427641936  1.0000
  S   S1        1.0  2.8678388717864706e-08  3.5936141876428624e-08  0.99999993639488  1.0000
  O   O1        1.0  0.226714997007546  0.2267149910112896  0.773285007092973  1.0000
  O   O2        1.0  0.7732850247673315  0.7732850198258634  0.22671495132660455  1.0000
  O   O3        1.0  0.7732849785238266  0.22671500362911154  0.22671496431685978  1.0000
  O   O4        1.0  0.22671500446514023  0.7732849880421003  0.7732849976491385  1.0000
  O   O5        1.0  0.22671502522176168  0.7732849937449697  0.22671493600082132  1.0000
  O   O6        1.0  0.7732849615995863  0.22671503386238237  0.7732850491154641  1.0000
