data_image0
_chemical_formula_structural       Ge2SiN6
_chemical_formula_sum              "Ge2 Si1 N6"
_cell_length_a       4.903010782919197
_cell_length_b       4.903011023290532
_cell_length_c       4.903010659643158
_cell_angle_alpha    60.00000253378545
_cell_angle_beta     60.00000070654714
_cell_angle_gamma    59.99999875263263

_space_group_name_H-M_alt    "P 1"
_space_group_IT_number       1

loop_
  _space_group_symop_operation_xyz
  'x, y, z'

loop_
  _atom_site_type_symbol
  _atom_site_label
  _atom_site_symmetry_multiplicity
  _atom_site_fract_x
  _atom_site_fract_y
  _atom_site_fract_z
  _atom_site_occupancy
  Ge  Ge1       1.0  0.24999985016309192  0.24999978731170486  0.2500006380764026  1.0000
  Ge  Ge2       1.0  0.7499998536705261  0.7499997241370255  0.750000651496818  1.0000
  Si  Si1       1.0  0.9999999702900823  0.9999998701068973  0.9999999880211672  1.0000
  N   N1        1.0  0.28270498095920277  0.2827050117932515  0.7172958337029396  1.0000
  N   N2        1.0  0.7172962220093463  0.7172963256527072  0.28270417062338904  1.0000
  N   N3        1.0  0.7172959771434556  0.2827036331511268  0.2827043564205967  1.0000
  N   N4        1.0  0.2827049861261533  0.7172951239183725  0.7172949612724842  1.0000
  N   N5        1.0  0.28270347542019003  0.7172959201613868  0.28270419319013534  1.0000
  N   N6        1.0  0.7172946611469336  0.2827045979589566  0.7172953187612823  1.0000
