data_image0
_chemical_formula_structural       Ge2SN6
_chemical_formula_sum              "Ge2 S1 N6"
_cell_length_a       4.859340894735721
_cell_length_b       4.859340606365542
_cell_length_c       4.85934077274948
_cell_angle_alpha    60.00000057159094
_cell_angle_beta     60.00000184975875
_cell_angle_gamma    60.00000045974377

_space_group_name_H-M_alt    "P 1"
_space_group_IT_number       1

loop_
  _space_group_symop_operation_xyz
  'x, y, z'

loop_
  _atom_site_type_symbol
  _atom_site_label
  _atom_site_symmetry_multiplicity
  _atom_site_fract_x
  _atom_site_fract_y
  _atom_site_fract_z
  _atom_site_occupancy
  Ge  Ge1       1.0  0.24999995305665793  0.2500000535867778  0.24999998610705476  1.0000
  Ge  Ge2       1.0  0.750000017349182  0.7500000070163532  0.7499999375825187  1.0000
  S   S1        1.0  0.9999999995923006  0.9999999798368553  3.703802180211895e-08  1.0000
  N   N1        1.0  0.2444670496115143  0.24446721108020986  0.7555329173360491  1.0000
  N   N2        1.0  0.7555329617671388  0.7555328192782065  0.24446715944718278  1.0000
  N   N3        1.0  0.7555328163775826  0.2444670986182131  0.24446719201153796  1.0000
  N   N4        1.0  0.24446716989606646  0.7555328359652609  0.7555327600013579  1.0000
  N   N5        1.0  0.24446718559565445  0.7555328230193809  0.2444671499051475  1.0000
  N   N6        1.0  0.7555328185348386  0.24446717205352933  0.7555328205555939  1.0000
