data_image0
_chemical_formula_structural       Ge2SeN6
_chemical_formula_sum              "Ge2 Se1 N6"
_cell_length_a       5.211430985317542
_cell_length_b       5.211430630873204
_cell_length_c       5.211431235811397
_cell_angle_alpha    59.99999814544944
_cell_angle_beta     59.99999700940169
_cell_angle_gamma    60.00000269322986

_space_group_name_H-M_alt    "P 1"
_space_group_IT_number       1

loop_
  _space_group_symop_operation_xyz
  'x, y, z'

loop_
  _atom_site_type_symbol
  _atom_site_label
  _atom_site_symmetry_multiplicity
  _atom_site_fract_x
  _atom_site_fract_y
  _atom_site_fract_z
  _atom_site_occupancy
  Ge  Ge1       1.0  0.24999992447677183  0.25000008830302806  0.2499999912790343  1.0000
  Ge  Ge2       1.0  0.7499999499305342  0.7499999946461435  0.74999994588297  1.0000
  Se  Se1       1.0  0.9999999182876406  0.9999999858993199  6.32573897073476e-08  1.0000
  N   N1        1.0  0.2570043385829031  0.25700403274346517  0.7429962691269266  1.0000
  N   N2        1.0  0.7429958009528882  0.7429957799427998  0.25700462043732225  1.0000
  N   N3        1.0  0.7429955649621787  0.25700459775463497  0.2570037244293455  1.0000
  N   N4        1.0  0.25700407600460606  0.742995952866921  0.7429957694107632  1.0000
  N   N5        1.0  0.25700424978936764  0.7429956714442698  0.25700410513967725  1.0000
  N   N6        1.0  0.7429961957868134  0.2570038944801555  0.7429955017705793  1.0000
