data_image0
_chemical_formula_structural       Ge2TiN6
_chemical_formula_sum              "Ge2 Ti1 N6"
_cell_length_a       5.08039105267778
_cell_length_b       5.080390575670803
_cell_length_c       5.08039081766479
_cell_angle_alpha    60.00000364969888
_cell_angle_beta     60.00000186064118
_cell_angle_gamma    59.99999548061898

_space_group_name_H-M_alt    "P 1"
_space_group_IT_number       1

loop_
  _space_group_symop_operation_xyz
  'x, y, z'

loop_
  _atom_site_type_symbol
  _atom_site_label
  _atom_site_symmetry_multiplicity
  _atom_site_fract_x
  _atom_site_fract_y
  _atom_site_fract_z
  _atom_site_occupancy
  Ge  Ge1       1.0  0.2500000438349722  0.25000004056798997  0.24999953548777198  1.0000
  Ge  Ge2       1.0  0.7499998344539964  0.74999984688086  0.7499999671207879  1.0000
  Ti  Ti1       1.0  6.437259701664193e-08  1.2053654273389692e-07  9.389621484567122e-07  1.0000
  N   N1        1.0  0.27969714257583833  0.27969728090317814  0.7203042038993843  1.0000
  N   N2        1.0  0.7203023151756904  0.72030201350635  0.27969870488077403  1.0000
  N   N3        1.0  0.720304099285341  0.279696565232662  0.2796967318880904  1.0000
  N   N4        1.0  0.27969927729940236  0.7203006005021075  0.7203022170879131  1.0000
  N   N5        1.0  0.27969652313621957  0.7203039764922055  0.27969617910791716  1.0000
  N   N6        1.0  0.7203006474051656  0.2796995680337299  0.7203015359449076  1.0000
