data_image0
_chemical_formula_structural       Ge2VN6
_chemical_formula_sum              "Ge2 V1 N6"
_cell_length_a       5.043157880346779
_cell_length_b       5.0431572380705525
_cell_length_c       5.0431568653057415
_cell_angle_alpha    60.00000165221957
_cell_angle_beta     60.00000133236338
_cell_angle_gamma    60.000001375965546

_space_group_name_H-M_alt    "P 1"
_space_group_IT_number       1

loop_
  _space_group_symop_operation_xyz
  'x, y, z'

loop_
  _atom_site_type_symbol
  _atom_site_label
  _atom_site_symmetry_multiplicity
  _atom_site_fract_x
  _atom_site_fract_y
  _atom_site_fract_z
  _atom_site_occupancy
  Ge  Ge1       1.0  0.24999974709494718  0.24999997576544014  0.25000041400198086  1.0000
  Ge  Ge2       1.0  0.7499998416499579  0.7500002624331964  0.7500003082769499  1.0000
  V   V1        1.0  3.168592500377263e-08  0.9999999392868  0.9999999431297774  1.0000
  N   N1        1.0  0.2748011501281875  0.2748011882736301  0.7251991580962989  1.0000
  N   N2        1.0  0.7251991296788648  0.725198590933232  0.2748013985752958  1.0000
  N   N3        1.0  0.7251988160648395  0.27480116176670183  0.2748014873930069  1.0000
  N   N4        1.0  0.2748011170741465  0.7251990667178311  0.7251989723674422  1.0000
  N   N5        1.0  0.27480087785019924  0.7251990738447999  0.27480053436218044  1.0000
  N   N6        1.0  0.7251993151808692  0.2748007733608177  0.7251976780135604  1.0000
