data_image0
_chemical_formula_structural       Hf2CrN6
_chemical_formula_sum              "Hf2 Cr1 N6"
_cell_length_a       4.898740064466719
_cell_length_b       4.898740283498947
_cell_length_c       4.89874014297736
_cell_angle_alpha    59.99999873770182
_cell_angle_beta     59.99999964723232
_cell_angle_gamma    59.99999941199714

_space_group_name_H-M_alt    "P 1"
_space_group_IT_number       1

loop_
  _space_group_symop_operation_xyz
  'x, y, z'

loop_
  _atom_site_type_symbol
  _atom_site_label
  _atom_site_symmetry_multiplicity
  _atom_site_fract_x
  _atom_site_fract_y
  _atom_site_fract_z
  _atom_site_occupancy
  Hf  Hf1       1.0  0.25000008504434656  0.2500000097263957  0.24999998112957372  1.0000
  Hf  Hf2       1.0  0.749999915705194  0.7500000291791908  0.7500000559450887  1.0000
  Cr  Cr1       1.0  4.5500540564242134e-08  0.9999999624981672  3.274478809149675e-08  1.0000
  N   N1        1.0  0.26216736464917556  0.2621673459941175  0.7378325930900838  1.0000
  N   N2        1.0  0.7378326340291946  0.7378326779107396  0.2621673320813989  1.0000
  N   N3        1.0  0.7378326104879775  0.2621673011748535  0.2621673819760724  1.0000
  N   N4        1.0  0.26216736314431516  0.737832635225729  0.7378326545867997  1.0000
  N   N5        1.0  0.26216737330797624  0.7378326799695178  0.2621673291195784  1.0000
  N   N6        1.0  0.7378326431081544  0.2621673614361924  0.7378326376314915  1.0000
