data_image0
_chemical_formula_structural       Hf2CoN6
_chemical_formula_sum              "Hf2 Co1 N6"
_cell_length_a       4.86649399762605
_cell_length_b       4.866494142190165
_cell_length_c       4.866494124786156
_cell_angle_alpha    60.00000002765344
_cell_angle_beta     60.00000020160773
_cell_angle_gamma    60.000000500315956

_space_group_name_H-M_alt    "P 1"
_space_group_IT_number       1

loop_
  _space_group_symop_operation_xyz
  'x, y, z'

loop_
  _atom_site_type_symbol
  _atom_site_label
  _atom_site_symmetry_multiplicity
  _atom_site_fract_x
  _atom_site_fract_y
  _atom_site_fract_z
  _atom_site_occupancy
  Hf  Hf1       1.0  0.2500000586494179  0.2499999518981725  0.2499999816931372  1.0000
  Hf  Hf2       1.0  0.7499999657762114  0.7500000519962017  0.7499999766729972  1.0000
  Co  Co1       1.0  0.999999993432763  1.2583441286801284e-08  0.9999999990467652  1.0000
  N   N1        1.0  0.2568900777169613  0.25689007808194214  0.7431099373946644  1.0000
  N   N2        1.0  0.7431099788251948  0.743109900645549  0.25689008119753676  1.0000
  N   N3        1.0  0.7431099031193497  0.2568900413487917  0.2568901161596803  1.0000
  N   N4        1.0  0.25689007092736044  0.7431099499621411  0.7431099024557771  1.0000
  N   N5        1.0  0.25689002984495746  0.7431099650037458  0.2568900969936096  1.0000
  N   N6        1.0  0.7431099023063368  0.25689006657419927  0.7431099162714471  1.0000
