data_image0
_chemical_formula_structural       Hf2CN6
_chemical_formula_sum              "Hf2 C1 N6"
_cell_length_a       4.875462103993333
_cell_length_b       4.875462114090868
_cell_length_c       4.875461964787134
_cell_angle_alpha    60.00000048081196
_cell_angle_beta     60.00000146127357
_cell_angle_gamma    59.9999994844389

_space_group_name_H-M_alt    "P 1"
_space_group_IT_number       1

loop_
  _space_group_symop_operation_xyz
  'x, y, z'

loop_
  _atom_site_type_symbol
  _atom_site_label
  _atom_site_symmetry_multiplicity
  _atom_site_fract_x
  _atom_site_fract_y
  _atom_site_fract_z
  _atom_site_occupancy
  Hf  Hf1       1.0  0.2499999720928238  0.2500000341212479  0.2500001543066059  1.0000
  Hf  Hf2       1.0  0.7500000501070555  0.7499999566643203  0.7500000914551039  1.0000
  C   C1        1.0  1.0060157599516193e-08  6.732318555825492e-07  0.9999957797471763  1.0000
  N   N1        1.0  0.23990121777096526  0.23990100022274238  0.7600989617813427  1.0000
  N   N2        1.0  0.7600985169752982  0.7600985810972055  0.23990149911928613  1.0000
  N   N3        1.0  0.7600979066655075  0.23990207890110854  0.2399021058942407  1.0000
  N   N4        1.0  0.23990047933184114  0.7600994668490187  0.760099509591263  1.0000
  N   N5        1.0  0.23990214074816518  0.7600978281166484  0.23990222293105526  1.0000
  N   N6        1.0  0.7600997530159581  0.23990027108842235  0.7600996347382791  1.0000
