data_image0
_chemical_formula_structural       Hf2FeN6
_chemical_formula_sum              "Hf2 Fe1 N6"
_cell_length_a       4.878302075789208
_cell_length_b       4.8783021505610265
_cell_length_c       4.878302377582756
_cell_angle_alpha    59.99999892939496
_cell_angle_beta     59.99999885679239
_cell_angle_gamma    59.99999924925572

_space_group_name_H-M_alt    "P 1"
_space_group_IT_number       1

loop_
  _space_group_symop_operation_xyz
  'x, y, z'

loop_
  _atom_site_type_symbol
  _atom_site_label
  _atom_site_symmetry_multiplicity
  _atom_site_fract_x
  _atom_site_fract_y
  _atom_site_fract_z
  _atom_site_occupancy
  Hf  Hf1       1.0  0.2500000002638626  0.24999998086150962  0.25000001637722863  1.0000
  Hf  Hf2       1.0  0.7499999901748673  0.7500000028388475  0.7499999874148053  1.0000
  Fe  Fe1       1.0  9.415546499641064e-08  0.9999999447668743  0.9999999600398966  1.0000
  N   N1        1.0  0.26366478130152804  0.26366481766799343  0.7363352160441794  1.0000
  N   N2        1.0  0.736335229722404  0.7363352036913128  0.2636647668253528  1.0000
  N   N3        1.0  0.7363351862986482  0.2636647378982234  0.26366485011107915  1.0000
  N   N4        1.0  0.26366476724831966  0.7363352357597475  0.7363352406947249  1.0000
  N   N5        1.0  0.2636647735260726  0.7363352750304714  0.263664778179816  1.0000
  N   N6        1.0  0.7363351720337199  0.26366478649838065  0.736335237835947  1.0000
