data_image0
_chemical_formula_structural       Hf2GeN6
_chemical_formula_sum              "Hf2 Ge1 N6"
_cell_length_a       4.934693774427674
_cell_length_b       4.934693704722848
_cell_length_c       4.934693471073982
_cell_angle_alpha    60.000000552753654
_cell_angle_beta     60.000000748316445
_cell_angle_gamma    59.99999971283815

_space_group_name_H-M_alt    "P 1"
_space_group_IT_number       1

loop_
  _space_group_symop_operation_xyz
  'x, y, z'

loop_
  _atom_site_type_symbol
  _atom_site_label
  _atom_site_symmetry_multiplicity
  _atom_site_fract_x
  _atom_site_fract_y
  _atom_site_fract_z
  _atom_site_occupancy
  Hf  Hf1       1.0  0.24999996587054216  0.25000001616584877  0.24999998122544134  1.0000
  Hf  Hf2       1.0  0.7500000289578436  0.7499999914136941  0.7499999774715321  1.0000
  Ge  Ge1       1.0  2.091773232259663e-08  7.445719500081568e-09  0.9999999979770837  1.0000
  N   N1        1.0  0.26351825769960463  0.26351827282132523  0.7364817522350416  1.0000
  N   N2        1.0  0.7364817320473781  0.7364817149029647  0.2635183101213346  1.0000
  N   N3        1.0  0.7364817400729496  0.26351827195235766  0.26351827264538025  1.0000
  N   N4        1.0  0.2635182834027736  0.7364817058443063  0.7364817109369838  1.0000
  N   N5        1.0  0.26351826356996455  0.7364817064995264  0.26351831080621874  1.0000
  N   N6        1.0  0.7364817272638525  0.2635183060438296  0.7364816859090306  1.0000
