data_image0
_chemical_formula_structural       Hf2IrN6
_chemical_formula_sum              "Hf2 Ir1 N6"
_cell_length_a       5.05516430135837
_cell_length_b       5.055164583480683
_cell_length_c       5.05516466709302
_cell_angle_alpha    59.99999735768619
_cell_angle_beta     59.99999732673754
_cell_angle_gamma    59.99999776195552

_space_group_name_H-M_alt    "P 1"
_space_group_IT_number       1

loop_
  _space_group_symop_operation_xyz
  'x, y, z'

loop_
  _atom_site_type_symbol
  _atom_site_label
  _atom_site_symmetry_multiplicity
  _atom_site_fract_x
  _atom_site_fract_y
  _atom_site_fract_z
  _atom_site_occupancy
  Hf  Hf1       1.0  0.24999994744394696  0.24999998132488985  0.2500000541645508  1.0000
  Hf  Hf2       1.0  0.7500000438481248  0.7499999972753808  0.7499999876089549  1.0000
  Ir  Ir1       1.0  2.985693172345172e-08  0.9999999515448043  6.864438056171645e-08  1.0000
  N   N1        1.0  0.2669627727001895  0.2669627763686376  0.7330372252049325  1.0000
  N   N2        1.0  0.7330371582089924  0.7330372942965039  0.2669627334696337  1.0000
  N   N3        1.0  0.7330372862509348  0.2669627258344294  0.26696275503775235  1.0000
  N   N4        1.0  0.26696282381953124  0.7330372527658396  0.7330372134993323  1.0000
  N   N5        1.0  0.26696273455592684  0.7330372366923137  0.26696280269154393  1.0000
  N   N6        1.0  0.7330372043143342  0.26696277582659467  0.7330371988791746  1.0000
