data_image0
_chemical_formula_structural       Hf2MnN6
_chemical_formula_sum              "Hf2 Mn1 N6"
_cell_length_a       4.9022033185557845
_cell_length_b       4.902203312474655
_cell_length_c       4.902203461963441
_cell_angle_alpha    59.999999585438715
_cell_angle_beta     59.9999993615721
_cell_angle_gamma    60.00000039591895

_space_group_name_H-M_alt    "P 1"
_space_group_IT_number       1

loop_
  _space_group_symop_operation_xyz
  'x, y, z'

loop_
  _atom_site_type_symbol
  _atom_site_label
  _atom_site_symmetry_multiplicity
  _atom_site_fract_x
  _atom_site_fract_y
  _atom_site_fract_z
  _atom_site_occupancy
  Hf  Hf1       1.0  0.2500000009921686  0.25000000490998653  0.24999999247371876  1.0000
  Hf  Hf2       1.0  0.7500000009068002  0.7499999997398241  0.7500000083899658  1.0000
  Mn  Mn1       1.0  3.1192676664707924e-08  0.9999999700197294  6.26306662853255e-08  1.0000
  N   N1        1.0  0.2630361052934672  0.2630360867464583  0.7369639033753497  1.0000
  N   N2        1.0  0.7369638877551442  0.7369638879230811  0.26303608222536595  1.0000
  N   N3        1.0  0.7369639179889772  0.26303607937437284  0.26303608372574505  1.0000
  N   N4        1.0  0.26303614172728257  0.7369638578198281  0.7369638689197245  1.0000
  N   N5        1.0  0.26303609369643033  0.7369639901284729  0.2630360822417492  1.0000
  N   N6        1.0  0.7369638384404861  0.26303613194406633  0.7369638886719005  1.0000
