data_image0
_chemical_formula_structural       Hf2NiN6
_chemical_formula_sum              "Hf2 Ni1 N6"
_cell_length_a       4.850483943804084
_cell_length_b       4.850483561886537
_cell_length_c       4.850483738926056
_cell_angle_alpha    60.00000053754053
_cell_angle_beta     59.99999938796924
_cell_angle_gamma    60.00000011674889

_space_group_name_H-M_alt    "P 1"
_space_group_IT_number       1

loop_
  _space_group_symop_operation_xyz
  'x, y, z'

loop_
  _atom_site_type_symbol
  _atom_site_label
  _atom_site_symmetry_multiplicity
  _atom_site_fract_x
  _atom_site_fract_y
  _atom_site_fract_z
  _atom_site_occupancy
  Hf  Hf1       1.0  0.2499999881869373  0.24999998118680491  0.24999999636953615  1.0000
  Hf  Hf2       1.0  0.7500000107780603  0.7499999334604353  0.7500000267145243  1.0000
  Ni  Ni1       1.0  0.9999999864137287  5.049990216571969e-09  0.9999999898365906  1.0000
  N   N1        1.0  0.2604721349550955  0.2604721407535273  0.7395278783399306  1.0000
  N   N2        1.0  0.739527886491345  0.7395278849935115  0.2604721026933106  1.0000
  N   N3        1.0  0.7395278669203602  0.2604721788726017  0.2604720930264982  1.0000
  N   N4        1.0  0.26047211937010667  0.7395278594994138  0.7395279013338923  1.0000
  N   N5        1.0  0.26047214926304246  0.7395278489109799  0.26047215722937356  1.0000
  N   N6        1.0  0.7395278689859213  0.26047213643613265  0.7395278517875189  1.0000
