data_image0
_chemical_formula_structural       Hf2NbN6
_chemical_formula_sum              "Hf2 Nb1 N6"
_cell_length_a       5.087416860715961
_cell_length_b       5.087416700739941
_cell_length_c       5.0874168414233045
_cell_angle_alpha    59.999997499961516
_cell_angle_beta     60.000000022683814
_cell_angle_gamma    59.999999596690536

_space_group_name_H-M_alt    "P 1"
_space_group_IT_number       1

loop_
  _space_group_symop_operation_xyz
  'x, y, z'

loop_
  _atom_site_type_symbol
  _atom_site_label
  _atom_site_symmetry_multiplicity
  _atom_site_fract_x
  _atom_site_fract_y
  _atom_site_fract_z
  _atom_site_occupancy
  Hf  Hf1       1.0  0.2499999423082748  0.2500000270217832  0.2500000493527942  1.0000
  Hf  Hf2       1.0  0.7500000555488757  0.7499999943989397  0.7500000043511013  1.0000
  Nb  Nb1       1.0  0.9999999499285063  7.222200868234199e-09  0.9999999978370372  1.0000
  N   N1        1.0  0.2739348159527405  0.273934790688188  0.7260651142797182  1.0000
  N   N2        1.0  0.726065164549127  0.7260652283251351  0.27393488640522795  1.0000
  N   N3        1.0  0.7260652069660385  0.2739348088714129  0.2739348893312439  1.0000
  N   N4        1.0  0.27393474552036035  0.7260651716235019  0.7260652291429073  1.0000
  N   N5        1.0  0.2739348657893891  0.7260651458696116  0.2739347782448768  1.0000
  N   N6        1.0  0.7260652291621847  0.273934822588307  0.7260650725548731  1.0000
