data_image0
_chemical_formula_structural       Hf2OsN6
_chemical_formula_sum              "Hf2 Os1 N6"
_cell_length_a       5.0351418814810565
_cell_length_b       5.035142213347206
_cell_length_c       5.035142118563913
_cell_angle_alpha    59.999999900836265
_cell_angle_beta     60.000000314629126
_cell_angle_gamma    60.000000099545176

_space_group_name_H-M_alt    "P 1"
_space_group_IT_number       1

loop_
  _space_group_symop_operation_xyz
  'x, y, z'

loop_
  _atom_site_type_symbol
  _atom_site_label
  _atom_site_symmetry_multiplicity
  _atom_site_fract_x
  _atom_site_fract_y
  _atom_site_fract_z
  _atom_site_occupancy
  Hf  Hf1       1.0  0.24999996123593995  0.2500000373600193  0.2500000169203396  1.0000
  Hf  Hf2       1.0  0.7500000269128761  0.7499999782983985  0.749999982496003  1.0000
  Os  Os1       1.0  0.9999999774845026  0.9999999781084559  3.610580934296249e-08  1.0000
  N   N1        1.0  0.25893757608374884  0.2589376271210185  0.741062398947913  1.0000
  N   N2        1.0  0.7410623769702674  0.7410624250233068  0.2589375977868336  1.0000
  N   N3        1.0  0.7410624068225327  0.25893759618068957  0.2589376065539904  1.0000
  N   N4        1.0  0.2589376332848613  0.7410623805594274  0.7410623545655545  1.0000
  N   N5        1.0  0.2589376420985343  0.7410624025099936  0.25893757629940845  1.0000
  N   N6        1.0  0.7410623975915274  0.25893759612166733  0.7410623840132367  1.0000
