data_image0
_chemical_formula_structural       Hf2PN6
_chemical_formula_sum              "Hf2 P1 N6"
_cell_length_a       4.901024836485219
_cell_length_b       4.9010248891908335
_cell_length_c       4.901025014404881
_cell_angle_alpha    59.999999678475966
_cell_angle_beta     60.000000134723486
_cell_angle_gamma    59.99999969735785

_space_group_name_H-M_alt    "P 1"
_space_group_IT_number       1

loop_
  _space_group_symop_operation_xyz
  'x, y, z'

loop_
  _atom_site_type_symbol
  _atom_site_label
  _atom_site_symmetry_multiplicity
  _atom_site_fract_x
  _atom_site_fract_y
  _atom_site_fract_z
  _atom_site_occupancy
  Hf  Hf1       1.0  0.24999999868693543  0.24999998885369334  0.2499999817477999  1.0000
  Hf  Hf2       1.0  0.7500000166934867  0.7499999965485599  0.749999989306563  1.0000
  P   P1        1.0  0.9999999933361153  1.9991653248003637e-08  0.9999999790533892  1.0000
  N   N1        1.0  0.24812206900090406  0.2481220933504789  0.7518779050887946  1.0000
  N   N2        1.0  0.7518779143463555  0.751877924538211  0.24812209430438364  1.0000
  N   N3        1.0  0.7518779041029579  0.24812210366713744  0.24812207083013466  1.0000
  N   N4        1.0  0.24812208978727895  0.7518778967288559  0.7518779483610195  1.0000
  N   N5        1.0  0.24812208689296691  0.7518779062768811  0.2481220893216423  1.0000
  N   N6        1.0  0.7518779196104504  0.24812209162015558  0.7518779390951267  1.0000
