data_image0
_chemical_formula_structural       Hf2PdN6
_chemical_formula_sum              "Hf2 Pd1 N6"
_cell_length_a       4.866104154114557
_cell_length_b       4.866104294306068
_cell_length_c       4.866104081737389
_cell_angle_alpha    59.99999864819464
_cell_angle_beta     60.00000025787931
_cell_angle_gamma    60.000001009751934

_space_group_name_H-M_alt    "P 1"
_space_group_IT_number       1

loop_
  _space_group_symop_operation_xyz
  'x, y, z'

loop_
  _atom_site_type_symbol
  _atom_site_label
  _atom_site_symmetry_multiplicity
  _atom_site_fract_x
  _atom_site_fract_y
  _atom_site_fract_z
  _atom_site_occupancy
  Hf  Hf1       1.0  0.24999997705220697  0.2500000276375526  0.24999998969490128  1.0000
  Hf  Hf2       1.0  0.7499999793599652  0.750000002372181  0.7499999934734003  1.0000
  Pd  Pd1       1.0  0.9999999784995374  7.550669577470095e-09  2.8648322448717046e-09  1.0000
  N   N1        1.0  0.2766108097114551  0.2766106768450688  0.7233892603036307  1.0000
  N   N2        1.0  0.723389282990972  0.7233892575228483  0.27661074980619144  1.0000
  N   N3        1.0  0.7233892926671686  0.2766107626263284  0.27661067402384165  1.0000
  N   N4        1.0  0.2766106467025476  0.7233892900354145  0.7233892919544583  1.0000
  N   N5        1.0  0.27661070795588033  0.7233892660522133  0.2766107224537541  1.0000
  N   N6        1.0  0.7233893096018267  0.27661075137307056  0.7233892652044541  1.0000
