data_image0
_chemical_formula_structural       Hf2PbN6
_chemical_formula_sum              "Hf2 Pb1 N6"
_cell_length_a       5.442719672699919
_cell_length_b       5.44271988759378
_cell_length_c       5.44272054365872
_cell_angle_alpha    59.99999648151813
_cell_angle_beta     60.00000700855341
_cell_angle_gamma    60.00000933122731

_space_group_name_H-M_alt    "P 1"
_space_group_IT_number       1

loop_
  _space_group_symop_operation_xyz
  'x, y, z'

loop_
  _atom_site_type_symbol
  _atom_site_label
  _atom_site_symmetry_multiplicity
  _atom_site_fract_x
  _atom_site_fract_y
  _atom_site_fract_z
  _atom_site_occupancy
  Hf  Hf1       1.0  0.24999937928807964  0.24999910444651885  0.2500008848154675  1.0000
  Hf  Hf2       1.0  0.750000517954933  0.7500017058165389  0.7499976274392094  1.0000
  Pb  Pb1       1.0  0.9999999569217204  2.565278440638312e-07  0.9999996360509114  1.0000
  N   N1        1.0  0.27432998351240967  0.27433033105668064  0.7256702029123022  1.0000
  N   N2        1.0  0.7256691794354939  0.7256706772276654  0.2743315759796676  1.0000
  N   N3        1.0  0.7256707766935716  0.2743279305075405  0.27433180830511794  1.0000
  N   N4        1.0  0.274329762188947  0.7256710503069763  0.7256692288737208  1.0000
  N   N5        1.0  0.27432925224417665  0.7256700382768648  0.274330618255474  1.0000
  N   N6        1.0  0.7256712397728061  0.2743288412767398  0.7256685141967648  1.0000
