data_image0
_chemical_formula_structural       Hf2PtN6
_chemical_formula_sum              "Hf2 Pt1 N6"
_cell_length_a       5.05098571581526
_cell_length_b       5.0509853808094105
_cell_length_c       5.050985819411346
_cell_angle_alpha    59.999999659173724
_cell_angle_beta     60.00000015890572
_cell_angle_gamma    59.99999912930771

_space_group_name_H-M_alt    "P 1"
_space_group_IT_number       1

loop_
  _space_group_symop_operation_xyz
  'x, y, z'

loop_
  _atom_site_type_symbol
  _atom_site_label
  _atom_site_symmetry_multiplicity
  _atom_site_fract_x
  _atom_site_fract_y
  _atom_site_fract_z
  _atom_site_occupancy
  Hf  Hf1       1.0  0.2499999760928429  0.2499999817757071  0.2499999839334881  1.0000
  Hf  Hf2       1.0  0.7499999794718395  0.7500000180700517  0.7499999809036761  1.0000
  Pt  Pt1       1.0  0.9999999803483304  3.152193524511139e-08  0.9999999901052447  1.0000
  N   N1        1.0  0.2693139243014929  0.2693139039457467  0.7306861205673895  1.0000
  N   N2        1.0  0.7306860974924909  0.73068597951133  0.2693139584409825  1.0000
  N   N3        1.0  0.730686083144894  0.2693139412125719  0.26931395509661316  1.0000
  N   N4        1.0  0.2693139557808205  0.7306860828808329  0.7306860707652822  1.0000
  N   N5        1.0  0.26931387954186625  0.7306861147453669  0.26931393050369945  1.0000
  N   N6        1.0  0.7306861038243267  0.26931394571950035  0.7306860633761832  1.0000
