data_image0
_chemical_formula_structural       Hf2RuN6
_chemical_formula_sum              "Hf2 Ru1 N6"
_cell_length_a       4.966936747248453
_cell_length_b       4.966936687431592
_cell_length_c       4.966936715965815
_cell_angle_alpha    60.000000587558276
_cell_angle_beta     60.000001183906754
_cell_angle_gamma    60.000000805520976

_space_group_name_H-M_alt    "P 1"
_space_group_IT_number       1

loop_
  _space_group_symop_operation_xyz
  'x, y, z'

loop_
  _atom_site_type_symbol
  _atom_site_label
  _atom_site_symmetry_multiplicity
  _atom_site_fract_x
  _atom_site_fract_y
  _atom_site_fract_z
  _atom_site_occupancy
  Hf  Hf1       1.0  0.2500000252451006  0.2499999839419898  0.24999996087198156  1.0000
  Hf  Hf2       1.0  0.7499999794082267  0.7500000455261872  0.7500000027148609  1.0000
  Ru  Ru1       1.0  0.9999999638833952  2.465795176416669e-08  0.9999999996893864  1.0000
  N   N1        1.0  0.2642214217534715  0.2642213568448293  0.7357786190404871  1.0000
  N   N2        1.0  0.7357786516116865  0.735778564128359  0.2642213342382341  1.0000
  N   N3        1.0  0.7357786136098076  0.264221368244414  0.2642214017988019  1.0000
  N   N4        1.0  0.2642213816275981  0.7357786267026302  0.735778591809821  1.0000
  N   N5        1.0  0.2642213728665375  0.735778639078971  0.2642214061807714  1.0000
  N   N6        1.0  0.735778611544735  0.2642213953207965  0.7357786133808236  1.0000
