data_image0
_chemical_formula_structural       Hf2RhN6
_chemical_formula_sum              "Hf2 Rh1 N6"
_cell_length_a       4.915293276619048
_cell_length_b       4.915293349273582
_cell_length_c       4.915293163899989
_cell_angle_alpha    60.00000194636097
_cell_angle_beta     60.000001461565
_cell_angle_gamma    60.00000193814296

_space_group_name_H-M_alt    "P 1"
_space_group_IT_number       1

loop_
  _space_group_symop_operation_xyz
  'x, y, z'

loop_
  _atom_site_type_symbol
  _atom_site_label
  _atom_site_symmetry_multiplicity
  _atom_site_fract_x
  _atom_site_fract_y
  _atom_site_fract_z
  _atom_site_occupancy
  Hf  Hf1       1.0  0.24999992681459668  0.25000007937387464  0.25000000526091964  1.0000
  Hf  Hf2       1.0  0.7500000854653245  0.7499999291505229  0.7499999648614095  1.0000
  Rh  Rh1       1.0  3.371936262325293e-08  0.9999999975082979  2.304103616497408e-08  1.0000
  N   N1        1.0  0.27165175736098657  0.2716518301261579  0.7283481534102408  1.0000
  N   N2        1.0  0.7283481039756974  0.7283482506576091  0.2716517665374895  1.0000
  N   N3        1.0  0.7283482998489653  0.2716517391997609  0.2716517842638715  1.0000
  N   N4        1.0  0.27165181935830973  0.728348082446955  0.7283483438326868  1.0000
  N   N5        1.0  0.27165174041901885  0.7283482320360829  0.27165177075357105  1.0000
  N   N6        1.0  0.7283482325881244  0.2716518238306608  0.7283482095752407  1.0000
