data_image0
_chemical_formula_structural       Hf2ReN6
_chemical_formula_sum              "Hf2 Re1 N6"
_cell_length_a       5.1360498942911645
_cell_length_b       5.136049953088326
_cell_length_c       5.136049806317331
_cell_angle_alpha    60.000000192813424
_cell_angle_beta     60.000000774267015
_cell_angle_gamma    60.00000089220604

_space_group_name_H-M_alt    "P 1"
_space_group_IT_number       1

loop_
  _space_group_symop_operation_xyz
  'x, y, z'

loop_
  _atom_site_type_symbol
  _atom_site_label
  _atom_site_symmetry_multiplicity
  _atom_site_fract_x
  _atom_site_fract_y
  _atom_site_fract_z
  _atom_site_occupancy
  Hf  Hf1       1.0  0.25000001874621514  0.2499999868700771  0.24999999360042785  1.0000
  Hf  Hf2       1.0  0.749999983204364  0.7500000178407427  0.7499999770210386  1.0000
  Re  Re1       1.0  0.9999999749967492  1.430762761561848e-08  2.8712070863062455e-08  1.0000
  N   N1        1.0  0.26166450186658696  0.26166443336093  0.738335502820506  1.0000
  N   N2        1.0  0.7383355006061049  0.7383355832729134  0.26166443042604676  1.0000
  N   N3        1.0  0.7383354989149398  0.26166448108368795  0.2616645315356283  1.0000
  N   N4        1.0  0.2616645122117217  0.738335435396759  0.7383355253415028  1.0000
  N   N5        1.0  0.26166451300327465  0.7383355042213379  0.26166453477504187  1.0000
  N   N6        1.0  0.7383354965998331  0.261664531489342  0.7383354768779005  1.0000
