data_image0
_chemical_formula_structural       Hf2SeN6
_chemical_formula_sum              "Hf2 Se1 N6"
_cell_length_a       5.0147459053253085
_cell_length_b       5.014746406754518
_cell_length_c       5.014746212715411
_cell_angle_alpha    60.000002000067695
_cell_angle_beta     60.00000010769181
_cell_angle_gamma    60.00000127822999

_space_group_name_H-M_alt    "P 1"
_space_group_IT_number       1

loop_
  _space_group_symop_operation_xyz
  'x, y, z'

loop_
  _atom_site_type_symbol
  _atom_site_label
  _atom_site_symmetry_multiplicity
  _atom_site_fract_x
  _atom_site_fract_y
  _atom_site_fract_z
  _atom_site_occupancy
  Hf  Hf1       1.0  0.2500000032837649  0.2500000390066131  0.2499999470879375  1.0000
  Hf  Hf2       1.0  0.7499999993399441  0.7500000242129458  0.7499999607229753  1.0000
  Se  Se1       1.0  1.3955338925284174e-08  0.9999999926731398  3.257990032700821e-08  1.0000
  N   N1        1.0  0.2552594533911789  0.2552593812200866  0.7447405816790935  1.0000
  N   N2        1.0  0.7447406712030888  0.74474056476971  0.2552593397143734  1.0000
  N   N3        1.0  0.7447405299082706  0.25525941986766343  0.25525944135802814  1.0000
  N   N4        1.0  0.2552593897057572  0.7447406091598834  0.7447405968420088  1.0000
  N   N5        1.0  0.2552594054950938  0.7447405578258364  0.2552594253617461  1.0000
  N   N6        1.0  0.7447405373086772  0.25525942235597643  0.744740641619237  1.0000
