data_image0
_chemical_formula_structural       Hf2SnN6
_chemical_formula_sum              "Hf2 Sn1 N6"
_cell_length_a       5.013900745670431
_cell_length_b       5.013901406511331
_cell_length_c       5.013900824445993
_cell_angle_alpha    60.00000055765591
_cell_angle_beta     60.00000092911915
_cell_angle_gamma    60.00000228939346

_space_group_name_H-M_alt    "P 1"
_space_group_IT_number       1

loop_
  _space_group_symop_operation_xyz
  'x, y, z'

loop_
  _atom_site_type_symbol
  _atom_site_label
  _atom_site_symmetry_multiplicity
  _atom_site_fract_x
  _atom_site_fract_y
  _atom_site_fract_z
  _atom_site_occupancy
  Hf  Hf1       1.0  0.2499998739162831  0.24999991672839061  0.2500000728473219  1.0000
  Hf  Hf2       1.0  0.750000131222362  0.7499998039245251  0.7500001144420395  1.0000
  Sn  Sn1       1.0  0.9999999529861018  9.770790240295862e-09  9.241639139573727e-08  1.0000
  N   N1        1.0  0.27465080965471916  0.27465065148713486  0.7253491271187177  1.0000
  N   N2        1.0  0.7253491850824157  0.7253492523681778  0.2746504093394065  1.0000
  N   N3        1.0  0.7253495050479697  0.2746508231106155  0.27465068795241804  1.0000
  N   N4        1.0  0.27465060141440456  0.7253493811965582  0.7253493444653398  1.0000
  N   N5        1.0  0.2746506680244996  0.7253494932580418  0.2746509048585913  1.0000
  N   N6        1.0  0.725349253012607  0.2746506524243716  0.7253492914677372  1.0000
