data_image0
_chemical_formula_structural       Hf2SN6
_chemical_formula_sum              "Hf2 S1 N6"
_cell_length_a       4.925122729593753
_cell_length_b       4.925122436799657
_cell_length_c       4.925122781108747
_cell_angle_alpha    59.999999929349
_cell_angle_beta     60.00000158363985
_cell_angle_gamma    60.000000394173746

_space_group_name_H-M_alt    "P 1"
_space_group_IT_number       1

loop_
  _space_group_symop_operation_xyz
  'x, y, z'

loop_
  _atom_site_type_symbol
  _atom_site_label
  _atom_site_symmetry_multiplicity
  _atom_site_fract_x
  _atom_site_fract_y
  _atom_site_fract_z
  _atom_site_occupancy
  Hf  Hf1       1.0  0.25000000683557255  0.24999998952479782  0.2500000339537544  1.0000
  Hf  Hf2       1.0  0.7500000326315264  0.7499999884682303  0.7499999843316294  1.0000
  S   S1        1.0  4.428986652577367e-09  0.9999999726459722  1.1462520206030505e-08  1.0000
  N   N1        1.0  0.24458878059471387  0.24458875757108575  0.7554112404334138  1.0000
  N   N2        1.0  0.7554112551300899  0.7554112527494303  0.24458877980262386  1.0000
  N   N3        1.0  0.7554111524492518  0.2445887944091364  0.244588815043952  1.0000
  N   N4        1.0  0.2445887872928123  0.7554112084511876  0.7554111797581131  1.0000
  N   N5        1.0  0.2445887860818692  0.7554112315209232  0.24458877884687252  1.0000
  N   N6        1.0  0.7554111733630114  0.244588803666889  0.7554112143049159  1.0000
