data_image0
_chemical_formula_structural       Hf2SiN6
_chemical_formula_sum              "Hf2 Si1 N6"
_cell_length_a       4.916195197597688
_cell_length_b       4.916195504881935
_cell_length_c       4.91619493709304
_cell_angle_alpha    59.99999977149395
_cell_angle_beta     60.00000135442315
_cell_angle_gamma    59.99999849016084

_space_group_name_H-M_alt    "P 1"
_space_group_IT_number       1

loop_
  _space_group_symop_operation_xyz
  'x, y, z'

loop_
  _atom_site_type_symbol
  _atom_site_label
  _atom_site_symmetry_multiplicity
  _atom_site_fract_x
  _atom_site_fract_y
  _atom_site_fract_z
  _atom_site_occupancy
  Hf  Hf1       1.0  0.2500000166096961  0.2500000229208031  0.2499999660252353  1.0000
  Hf  Hf2       1.0  0.750000003020638  0.7500000189375027  0.7500000074151901  1.0000
  Si  Si1       1.0  0.9999999813523269  0.9999999925262663  0.9999999784811148  1.0000
  N   N1        1.0  0.2547460193291557  0.25474603208283647  0.7452539846297415  1.0000
  N   N2        1.0  0.745253955271589  0.745253989845507  0.25474605790414284  1.0000
  N   N3        1.0  0.7452540004684226  0.2547459858557347  0.2547460346344128  1.0000
  N   N4        1.0  0.2547460413226126  0.7452539613352513  0.7452539506502032  1.0000
  N   N5        1.0  0.25474600564178634  0.7452539756375531  0.25474605210145407  1.0000
  N   N6        1.0  0.7452539691014345  0.2547460388170566  0.7452539473139096  1.0000
