data_image0
_chemical_formula_structural       Hf2TaN6
_chemical_formula_sum              "Hf2 Ta1 N6"
_cell_length_a       5.056913035478771
_cell_length_b       5.056913181311909
_cell_length_c       5.056913353777769
_cell_angle_alpha    59.99999850863372
_cell_angle_beta     59.999999561889695
_cell_angle_gamma    59.99999943190444

_space_group_name_H-M_alt    "P 1"
_space_group_IT_number       1

loop_
  _space_group_symop_operation_xyz
  'x, y, z'

loop_
  _atom_site_type_symbol
  _atom_site_label
  _atom_site_symmetry_multiplicity
  _atom_site_fract_x
  _atom_site_fract_y
  _atom_site_fract_z
  _atom_site_occupancy
  Hf  Hf1       1.0  0.24999979767172292  0.250000024079336  0.2500001119346125  1.0000
  Hf  Hf2       1.0  0.7500001580763179  0.7499998663746437  0.7499999869927747  1.0000
  Ta  Ta1       1.0  0.9999999684477976  0.9999999782027025  5.633711271465057e-08  1.0000
  N   N1        1.0  0.271861749346645  0.2718618022300584  0.7281382162087822  1.0000
  N   N2        1.0  0.7281382603246328  0.7281382141638609  0.27186179278701683  1.0000
  N   N3        1.0  0.7281383825332532  0.27186187122950894  0.2718616371847307  1.0000
  N   N4        1.0  0.27186161509563134  0.728138297745492  0.7281382441944884  1.0000
  N   N5        1.0  0.2718617484395022  0.728138135346005  0.2718618132743468  1.0000
  N   N6        1.0  0.7281383397225492  0.2718617962806473  0.7281381711748282  1.0000
