data_image0
_chemical_formula_structural       Hf2TiN6
_chemical_formula_sum              "Hf2 Ti1 N6"
_cell_length_a       4.963493580227886
_cell_length_b       4.963493802300288
_cell_length_c       4.9634937255928255
_cell_angle_alpha    60.00000051377219
_cell_angle_beta     59.99999998050518
_cell_angle_gamma    59.99999921718127

_space_group_name_H-M_alt    "P 1"
_space_group_IT_number       1

loop_
  _space_group_symop_operation_xyz
  'x, y, z'

loop_
  _atom_site_type_symbol
  _atom_site_label
  _atom_site_symmetry_multiplicity
  _atom_site_fract_x
  _atom_site_fract_y
  _atom_site_fract_z
  _atom_site_occupancy
  Hf  Hf1       1.0  0.24999995269243397  0.2500000611538079  0.2500000184884072  1.0000
  Hf  Hf2       1.0  0.7500000080507331  0.7499999638534239  0.7500000882677971  1.0000
  Ti  Ti1       1.0  0.9999999897308323  9.870022521676154e-09  2.2142824390664523e-09  1.0000
  N   N1        1.0  0.2664806244218835  0.26648067193030606  0.7335193546287839  1.0000
  N   N2        1.0  0.7335193579401456  0.7335193580119368  0.26648063207085876  1.0000
  N   N3        1.0  0.7335193673986635  0.2664806288107118  0.26648064969580143  1.0000
  N   N4        1.0  0.26648060965342113  0.7335193542489252  0.7335193409383073  1.0000
  N   N5        1.0  0.2664807088032012  0.7335193016256696  0.26648057678832743  1.0000
  N   N6        1.0  0.7335193841690736  0.26648066169392054  0.7335193335203519  1.0000
