data_image0
_chemical_formula_structural       Hf2TeN6
_chemical_formula_sum              "Hf2 Te1 N6"
_cell_length_a       5.219025494148447
_cell_length_b       5.219025455192473
_cell_length_c       5.2190255834135515
_cell_angle_alpha    59.99999893779843
_cell_angle_beta     59.99999875645001
_cell_angle_gamma    59.99999989085394

_space_group_name_H-M_alt    "P 1"
_space_group_IT_number       1

loop_
  _space_group_symop_operation_xyz
  'x, y, z'

loop_
  _atom_site_type_symbol
  _atom_site_label
  _atom_site_symmetry_multiplicity
  _atom_site_fract_x
  _atom_site_fract_y
  _atom_site_fract_z
  _atom_site_occupancy
  Hf  Hf1       1.0  0.24999993382653093  0.2500000956650145  0.24999999658772265  1.0000
  Hf  Hf2       1.0  0.7500000158720328  0.7499999889650754  0.7500000124212666  1.0000
  Te  Te1       1.0  7.799281697722128e-09  1.64268487862413e-08  7.027779350307218e-08  1.0000
  N   N1        1.0  0.26941820252383736  0.2694180576989139  0.7305818232770175  1.0000
  N   N2        1.0  0.7305818576686202  0.7305818016486799  0.2694181204980178  1.0000
  N   N3        1.0  0.7305818697225207  0.26941810158917945  0.2694181449201154  1.0000
  N   N4        1.0  0.26941817712595867  0.7305818774397408  0.7305817782593758  1.0000
  N   N5        1.0  0.26941812972691265  0.7305818963365439  0.26941816119030104  1.0000
  N   N6        1.0  0.7305818008645607  0.2694181460530777  0.730581911065598  1.0000
