data_image0
_chemical_formula_structural       Hf2VN6
_chemical_formula_sum              "Hf2 V1 N6"
_cell_length_a       4.932373132753113
_cell_length_b       4.932373486615026
_cell_length_c       4.932373271201476
_cell_angle_alpha    59.99999952558137
_cell_angle_beta     59.99999962995366
_cell_angle_gamma    59.999999464275746

_space_group_name_H-M_alt    "P 1"
_space_group_IT_number       1

loop_
  _space_group_symop_operation_xyz
  'x, y, z'

loop_
  _atom_site_type_symbol
  _atom_site_label
  _atom_site_symmetry_multiplicity
  _atom_site_fract_x
  _atom_site_fract_y
  _atom_site_fract_z
  _atom_site_occupancy
  Hf  Hf1       1.0  0.24999999458757285  0.2500000260991266  0.25000001636170227  1.0000
  Hf  Hf2       1.0  0.7500000065120486  0.750000031118974  0.7499999842576255  1.0000
  V   V1        1.0  0.9999999723088846  1.9864593719854794e-08  0.9999999755293584  1.0000
  N   N1        1.0  0.26710911489635036  0.267109054760707  0.7328909142086044  1.0000
  N   N2        1.0  0.7328909069199204  0.7328908981682827  0.2671091018404751  1.0000
  N   N3        1.0  0.7328909411502758  0.2671090701842465  0.2671090832252111  1.0000
  N   N4        1.0  0.26710908723879695  0.7328909473046692  0.7328908891478173  1.0000
  N   N5        1.0  0.2671090642893648  0.7328908888949474  0.26710910966106044  1.0000
  N   N6        1.0  0.7328909323432296  0.267109034237154  0.7328909298234587  1.0000
