data_image0
_chemical_formula_structural       Hf2WN6
_chemical_formula_sum              "Hf2 W1 N6"
_cell_length_a       5.048953294626025
_cell_length_b       5.0489528629457565
_cell_length_c       5.048953178071765
_cell_angle_alpha    59.999999003954464
_cell_angle_beta     59.99999955092678
_cell_angle_gamma    59.99999856513949

_space_group_name_H-M_alt    "P 1"
_space_group_IT_number       1

loop_
  _space_group_symop_operation_xyz
  'x, y, z'

loop_
  _atom_site_type_symbol
  _atom_site_label
  _atom_site_symmetry_multiplicity
  _atom_site_fract_x
  _atom_site_fract_y
  _atom_site_fract_z
  _atom_site_occupancy
  Hf  Hf1       1.0  0.2500000476278492  0.24999997654776546  0.24999996406355382  1.0000
  Hf  Hf2       1.0  0.7499999881278564  0.7500000096927302  0.7500000186711785  1.0000
  W   W1        1.0  1.4923027233581286e-08  1.698018261419168e-08  0.9999999662229179  1.0000
  N   N1        1.0  0.2685395041019703  0.2685395453452954  0.7314604436760566  1.0000
  N   N2        1.0  0.7314604689571619  0.7314604505981609  0.2685395318851369  1.0000
  N   N3        1.0  0.7314604998961706  0.26853950314071  0.2685395472250023  1.0000
  N   N4        1.0  0.2685395154151768  0.7314604758225652  0.7314605048275599  1.0000
  N   N5        1.0  0.2685395423369614  0.7314604874993638  0.2685394922912856  1.0000
  N   N6        1.0  0.7314603957233705  0.2685395448301992  0.7314605340720783  1.0000
