data_image0
_chemical_formula_structural       Hf2ZrN6
_chemical_formula_sum              "Hf2 Zr1 N6"
_cell_length_a       5.036220791339077
_cell_length_b       5.036220936748206
_cell_length_c       5.036220927063876
_cell_angle_alpha    59.9999996010518
_cell_angle_beta     59.99999882826788
_cell_angle_gamma    60.000000085002355

_space_group_name_H-M_alt    "P 1"
_space_group_IT_number       1

loop_
  _space_group_symop_operation_xyz
  'x, y, z'

loop_
  _atom_site_type_symbol
  _atom_site_label
  _atom_site_symmetry_multiplicity
  _atom_site_fract_x
  _atom_site_fract_y
  _atom_site_fract_z
  _atom_site_occupancy
  Hf  Hf1       1.0  0.25000001263617116  0.24999994575033618  0.24999999288900535  1.0000
  Hf  Hf2       1.0  0.7500000314671523  0.7500000147777228  0.749999950707198  1.0000
  Zr  Zr1       1.0  0.9999999885360412  8.021357742634302e-18  3.7463635821848864e-09  1.0000
  N   N1        1.0  0.2795922366173876  0.2795921634972679  0.7204078088842029  1.0000
  N   N2        1.0  0.7204077940987043  0.720407857827611  0.2795921566763704  1.0000
  N   N3        1.0  0.7204078552025126  0.27959213281633405  0.2795922169467549  1.0000
  N   N4        1.0  0.2795921685199849  0.7204078544623256  0.7204077750905725  1.0000
  N   N5        1.0  0.27959219288845316  0.720407853875139  0.2795922068231606  1.0000
  N   N6        1.0  0.7204077637867592  0.27959216258599395  0.7204078696718953  1.0000
