data_image0
_chemical_formula_structural       Hg2AuO6
_chemical_formula_sum              "Hg2 Au1 O6"
_cell_length_a       5.513910568908298
_cell_length_b       5.513910575631137
_cell_length_c       5.5139105291929775
_cell_angle_alpha    60.000001600763994
_cell_angle_beta     60.00000105281036
_cell_angle_gamma    60.00000070691909

_space_group_name_H-M_alt    "P 1"
_space_group_IT_number       1

loop_
  _space_group_symop_operation_xyz
  'x, y, z'

loop_
  _atom_site_type_symbol
  _atom_site_label
  _atom_site_symmetry_multiplicity
  _atom_site_fract_x
  _atom_site_fract_y
  _atom_site_fract_z
  _atom_site_occupancy
  Hg  Hg1       1.0  0.2500000632972654  0.2500000071327747  0.24999999337874046  1.0000
  Hg  Hg2       1.0  0.7499999881121377  0.7500000236195143  0.7499999656589756  1.0000
  Au  Au1       1.0  0.9999999874350461  0.0  2.655287044675911e-09  1.0000
  O   O1        1.0  0.25339340090171303  0.25339344872588376  0.7466065848651937  1.0000
  O   O2        1.0  0.7466066103811643  0.7466065264966307  0.2533934455774056  1.0000
  O   O3        1.0  0.7466065553616491  0.2533933331127417  0.25339343008571313  1.0000
  O   O4        1.0  0.2533934019594277  0.7466066532157275  0.7466065782585314  1.0000
  O   O5        1.0  0.2533933926141717  0.7466066251294284  0.25339337641121856  1.0000
  O   O6        1.0  0.7466065962245264  0.2533933922957148  0.7466066205754226  1.0000
