data_image0
_chemical_formula_structural       Hg2AgO6
_chemical_formula_sum              "Hg2 Ag1 O6"
_cell_length_a       5.4884287695161555
_cell_length_b       5.488428577361878
_cell_length_c       5.488428430535259
_cell_angle_alpha    59.99999975861394
_cell_angle_beta     59.99999898659207
_cell_angle_gamma    59.99999687297597

_space_group_name_H-M_alt    "P 1"
_space_group_IT_number       1

loop_
  _space_group_symop_operation_xyz
  'x, y, z'

loop_
  _atom_site_type_symbol
  _atom_site_label
  _atom_site_symmetry_multiplicity
  _atom_site_fract_x
  _atom_site_fract_y
  _atom_site_fract_z
  _atom_site_occupancy
  Hg  Hg1       1.0  0.24999986095708204  0.2500001344852263  0.24999998612806226  1.0000
  Hg  Hg2       1.0  0.7500000473699686  0.7499999125248444  0.7499999807103124  1.0000
  Ag  Ag1       1.0  0.9999999880986461  3.570406013482102e-08  0.9999999789885708  1.0000
  O   O1        1.0  0.25396501726836185  0.25396516557195004  0.7460349004540218  1.0000
  O   O2        1.0  0.7460349755968266  0.7460348613545847  0.2539650942835513  1.0000
  O   O3        1.0  0.7460350114837717  0.25396501938393673  0.25396510516971277  1.0000
  O   O4        1.0  0.2539650810733904  0.7460348915044009  0.7460349214271685  1.0000
  O   O5        1.0  0.25396514371819107  0.746034818464439  0.25396511571594205  1.0000
  O   O6        1.0  0.7460348804937755  0.25396514597999026  0.7460349237415378  1.0000
