data_image0
_chemical_formula_structural       Hg2AgTe6
_chemical_formula_sum              "Hg2 Ag1 Te6"
_cell_length_a       7.297934912012769
_cell_length_b       7.2979349352153
_cell_length_c       7.2979344378103015
_cell_angle_alpha    60.0000003540041
_cell_angle_beta     59.999999783130654
_cell_angle_gamma    60.000000353162974

_space_group_name_H-M_alt    "P 1"
_space_group_IT_number       1

loop_
  _space_group_symop_operation_xyz
  'x, y, z'

loop_
  _atom_site_type_symbol
  _atom_site_label
  _atom_site_symmetry_multiplicity
  _atom_site_fract_x
  _atom_site_fract_y
  _atom_site_fract_z
  _atom_site_occupancy
  Hg  Hg1       1.0  0.25000000213962453  0.2499999977612258  0.2500000263940523  1.0000
  Hg  Hg2       1.0  0.7500000069782772  0.7499999916054709  0.7500000098587709  1.0000
  Ag  Ag1       1.0  1.8686771561958695e-07  0.9999997147047394  0.9999998518976679  1.0000
  Te  Te1       1.0  0.2797552834185745  0.2797553510564989  0.7202447357024502  1.0000
  Te  Te2       1.0  0.7202446968983326  0.7202447104731167  0.279755321347183  1.0000
  Te  Te3       1.0  0.7202445506757373  0.27975535630824977  0.2797553903202232  1.0000
  Te  Te4       1.0  0.27975531212289617  0.7202448109484328  0.7202447575805591  1.0000
  Te  Te5       1.0  0.279755394246364  0.7202447527285145  0.27975516362528474  1.0000
  Te  Te6       1.0  0.7202445670837965  0.27975530880110305  0.7202447398578842  1.0000
