data_image0
_chemical_formula_structural       Hg2AgS6
_chemical_formula_sum              "Hg2 Ag1 S6"
_cell_length_a       6.464897221960083
_cell_length_b       6.464896460276954
_cell_length_c       6.464897134047208
_cell_angle_alpha    59.999997205663696
_cell_angle_beta     59.999996223620506
_cell_angle_gamma    60.00000049980704

_space_group_name_H-M_alt    "P 1"
_space_group_IT_number       1

loop_
  _space_group_symop_operation_xyz
  'x, y, z'

loop_
  _atom_site_type_symbol
  _atom_site_label
  _atom_site_symmetry_multiplicity
  _atom_site_fract_x
  _atom_site_fract_y
  _atom_site_fract_z
  _atom_site_occupancy
  Hg  Hg1       1.0  0.2499999046992636  0.250000065797629  0.2499999388545665  1.0000
  Hg  Hg2       1.0  0.7500000037941087  0.7499999605861579  0.7500001025755291  1.0000
  Ag  Ag1       1.0  5.010076970239629e-08  2.652236575424174e-08  2.6486417503471343e-07  1.0000
  S   S1        1.0  0.26983870490586787  0.2698386758397333  0.7301612522166816  1.0000
  S   S2        1.0  0.7301613438450683  0.7301611762542881  0.2698386422671172  1.0000
  S   S3        1.0  0.7301614199844498  0.269838746856845  0.26983857675430867  1.0000
  S   S4        1.0  0.26983857341253165  0.7301612605824039  0.7301613373405322  1.0000
  S   S5        1.0  0.2698387426114582  0.7301613047615662  0.2698387076019965  1.0000
  S   S6        1.0  0.7301612541038707  0.26983877845584325  0.7301611669445907  1.0000
