data_image0
_chemical_formula_structural       Hg2AuS6
_chemical_formula_sum              "Hg2 Au1 S6"
_cell_length_a       6.343012950227916
_cell_length_b       6.343012674204447
_cell_length_c       6.3430126070641055
_cell_angle_alpha    59.999997966614025
_cell_angle_beta     60.00000293285686
_cell_angle_gamma    59.999998296128155

_space_group_name_H-M_alt    "P 1"
_space_group_IT_number       1

loop_
  _space_group_symop_operation_xyz
  'x, y, z'

loop_
  _atom_site_type_symbol
  _atom_site_label
  _atom_site_symmetry_multiplicity
  _atom_site_fract_x
  _atom_site_fract_y
  _atom_site_fract_z
  _atom_site_occupancy
  Hg  Hg1       1.0  0.25000015016430477  0.2499998466385331  0.24999996401447097  1.0000
  Hg  Hg2       1.0  0.749999889901421  0.7500001075874968  0.7499999988608514  1.0000
  Au  Au1       1.0  0.9999998993242626  2.8962853251498202e-08  1.0631833699618602e-08  1.0000
  S   S1        1.0  0.26723122758063356  0.26723098615093077  0.7327688548317456  1.0000
  S   S2        1.0  0.7327687587366954  0.7327689545591013  0.2672311574411533  1.0000
  S   S3        1.0  0.7327688084471641  0.2672312381878616  0.26723098205739876  1.0000
  S   S4        1.0  0.26723104798851205  0.7327690539381111  0.7327688232795347  1.0000
  S   S5        1.0  0.2672312017145973  0.7327688715807682  0.26723110766674363  1.0000
  S   S6        1.0  0.732769014273444  0.26723092624585215  0.7327691039993517  1.0000
