data_image0
_chemical_formula_structural       Hg2BeO6
_chemical_formula_sum              "Hg2 Be1 O6"
_cell_length_a       5.257501911578831
_cell_length_b       5.257501072242966
_cell_length_c       5.257501321503156
_cell_angle_alpha    60.000003097294446
_cell_angle_beta     60.00000134269053
_cell_angle_gamma    59.99999978665237

_space_group_name_H-M_alt    "P 1"
_space_group_IT_number       1

loop_
  _space_group_symop_operation_xyz
  'x, y, z'

loop_
  _atom_site_type_symbol
  _atom_site_label
  _atom_site_symmetry_multiplicity
  _atom_site_fract_x
  _atom_site_fract_y
  _atom_site_fract_z
  _atom_site_occupancy
  Hg  Hg1       1.0  0.2500000950017965  0.25000001192185384  0.2500000420306005  1.0000
  Hg  Hg2       1.0  0.7500000192998858  0.7499999565618979  0.7500000322601964  1.0000
  Be  Be1       1.0  2.990691856575404e-08  0.9999998905126143  1.3679448438465398e-07  1.0000
  O   O1        1.0  0.2252319727163736  0.22523188406625813  0.7747680466996683  1.0000
  O   O2        1.0  0.774768017793644  0.7747681263488216  0.22523186500256928  1.0000
  O   O3        1.0  0.7747680681369734  0.22523192706012102  0.22523172858284835  1.0000
  O   O4        1.0  0.22523154123453676  0.7747683372725347  0.7747684122077177  1.0000
  O   O5        1.0  0.22523198263269972  0.7747680144253969  0.2252318215416498  1.0000
  O   O6        1.0  0.7747682870081121  0.2252318701956551  0.7747679298022494  1.0000
