data_image0
_chemical_formula_structural       Hg2BeSe6
_chemical_formula_sum              "Hg2 Be1 Se6"
_cell_length_a       6.474313676632675
_cell_length_b       6.474313722950718
_cell_length_c       6.474313123076419
_cell_angle_alpha    59.999994860729565
_cell_angle_beta     59.99999273717561
_cell_angle_gamma    60.0000001368878

_space_group_name_H-M_alt    "P 1"
_space_group_IT_number       1

loop_
  _space_group_symop_operation_xyz
  'x, y, z'

loop_
  _atom_site_type_symbol
  _atom_site_label
  _atom_site_symmetry_multiplicity
  _atom_site_fract_x
  _atom_site_fract_y
  _atom_site_fract_z
  _atom_site_occupancy
  Hg  Hg1       1.0  0.24999999031436335  0.24999997199610255  0.24999999330769382  1.0000
  Hg  Hg2       1.0  0.7499999593579594  0.7499999935479391  0.7500000148967045  1.0000
  Be  Be1       1.0  0.999999961340834  0.9999999073067779  1.4705544747399596e-08  1.0000
  Se  Se1       1.0  0.2861972116156369  0.2861967178978664  0.7138032624061408  1.0000
  Se  Se2       1.0  0.7138033783708605  0.7138033706065872  0.286196615925067  1.0000
  Se  Se3       1.0  0.7138030449577097  0.2861967385853596  0.28619663840932097  1.0000
  Se  Se4       1.0  0.2861963994895449  0.713803533413803  0.7138035340518172  1.0000
  Se  Se5       1.0  0.28619645007294864  0.7138031482712435  0.286196801978281  1.0000
  Se  Se6       1.0  0.7138036153329234  0.2861966091859824  0.7138031257483924  1.0000
