data_image0
_chemical_formula_structural       Hg2BaS6
_chemical_formula_sum              "Hg2 Ba1 S6"
_cell_length_a       7.518235535016255
_cell_length_b       7.51823600446222
_cell_length_c       7.51823529898885
_cell_angle_alpha    59.99999932436108
_cell_angle_beta     60.000003531767604
_cell_angle_gamma    59.999999972607874

_space_group_name_H-M_alt    "P 1"
_space_group_IT_number       1

loop_
  _space_group_symop_operation_xyz
  'x, y, z'

loop_
  _atom_site_type_symbol
  _atom_site_label
  _atom_site_symmetry_multiplicity
  _atom_site_fract_x
  _atom_site_fract_y
  _atom_site_fract_z
  _atom_site_occupancy
  Hg  Hg1       1.0  0.2499999416607481  0.2500001096186725  0.2500000238708947  1.0000
  Hg  Hg2       1.0  0.7499999644693246  0.7500001822431193  0.7499999754181474  1.0000
  Ba  Ba1       1.0  0.9999999792724202  6.679032764487878e-08  0.9999998705606745  1.0000
  S   S1        1.0  0.308462460227434  0.3084623680393327  0.6915377027111681  1.0000
  S   S2        1.0  0.6915376231529545  0.6915376224514859  0.3084624836675551  1.0000
  S   S3        1.0  0.6915374843539888  0.3084623788738493  0.3084625040509241  1.0000
  S   S4        1.0  0.3084622679766252  0.6915376556008619  0.6915374946659906  1.0000
  S   S5        1.0  0.3084626002160554  0.6915373856559628  0.3084624764420044  1.0000
  S   S6        1.0  0.6915376910867457  0.30846222527035816  0.6915374685533323  1.0000
