data_image0
_chemical_formula_structural       Hg2BeTe6
_chemical_formula_sum              "Hg2 Be1 Te6"
_cell_length_a       8.044786866364289
_cell_length_b       8.044786158742317
_cell_length_c       8.04478675364713
_cell_angle_alpha    59.99996490813306
_cell_angle_beta     59.99995198250142
_cell_angle_gamma    59.999860473919554

_space_group_name_H-M_alt    "P 1"
_space_group_IT_number       1

loop_
  _space_group_symop_operation_xyz
  'x, y, z'

loop_
  _atom_site_type_symbol
  _atom_site_label
  _atom_site_symmetry_multiplicity
  _atom_site_fract_x
  _atom_site_fract_y
  _atom_site_fract_z
  _atom_site_occupancy
  Hg  Hg1       1.0  0.2500006420744008  0.24999995791169033  0.2500000020761324  1.0000
  Hg  Hg2       1.0  0.7499992802227117  0.7499998585145328  0.7500003697539644  1.0000
  Be  Be1       1.0  4.9819538657011234e-08  0.999999846236688  0.9999995037908128  1.0000
  Te  Te1       1.0  0.19682980058687954  0.19682985960553634  0.803171769140196  1.0000
  Te  Te2       1.0  0.8031706158658543  0.8031695594709604  0.19682983213304753  1.0000
  Te  Te3       1.0  0.803170787781317  0.19682992686555642  0.19683032614864415  1.0000
  Te  Te4       1.0  0.1968293810270403  0.8031709628590267  0.8031691868897306  1.0000
  Te  Te5       1.0  0.19682982074721342  0.8031707777796945  0.19683079363702446  1.0000
  Te  Te6       1.0  0.803169910563026  0.1968290432142683  0.803168238176402  1.0000
