data_image0
_chemical_formula_structural       Hg2BaTe6
_chemical_formula_sum              "Hg2 Ba1 Te6"
_cell_length_a       8.230449933973285
_cell_length_b       8.230449961602712
_cell_length_c       8.230450022482488
_cell_angle_alpha    59.99999914949838
_cell_angle_beta     59.999999136812455
_cell_angle_gamma    60.000000207943614

_space_group_name_H-M_alt    "P 1"
_space_group_IT_number       1

loop_
  _space_group_symop_operation_xyz
  'x, y, z'

loop_
  _atom_site_type_symbol
  _atom_site_label
  _atom_site_symmetry_multiplicity
  _atom_site_fract_x
  _atom_site_fract_y
  _atom_site_fract_z
  _atom_site_occupancy
  Hg  Hg1       1.0  0.2500000027472645  0.2499999929924878  0.25000000109093456  1.0000
  Hg  Hg2       1.0  0.7500000137539349  0.7500000087387739  0.7499999674110719  1.0000
  Ba  Ba1       1.0  0.9999999706083083  2.083291682810017e-08  3.9514398845861316e-08  1.0000
  Te  Te1       1.0  0.3017086431077209  0.30170864865307484  0.6982913670745549  1.0000
  Te  Te2       1.0  0.6982913463967921  0.6982913709349725  0.3017086606724197  1.0000
  Te  Te3       1.0  0.6982913548513848  0.3017086677591444  0.30170862292072514  1.0000
  Te  Te4       1.0  0.3017086174066708  0.6982913488527722  0.6982913517575234  1.0000
  Te  Te5       1.0  0.30170867475764934  0.6982913091500704  0.30170865048232404  1.0000
  Te  Te6       1.0  0.6982913804745526  0.3017086479392261  0.6982913319101675  1.0000
