data_image0
_chemical_formula_structural       Hg2CdO6
_chemical_formula_sum              "Hg2 Cd1 O6"
_cell_length_a       5.509161423646271
_cell_length_b       5.509161758848757
_cell_length_c       5.5091621768618815
_cell_angle_alpha    59.99999817711201
_cell_angle_beta     59.99999554679141
_cell_angle_gamma    60.00000546839005

_space_group_name_H-M_alt    "P 1"
_space_group_IT_number       1

loop_
  _space_group_symop_operation_xyz
  'x, y, z'

loop_
  _atom_site_type_symbol
  _atom_site_label
  _atom_site_symmetry_multiplicity
  _atom_site_fract_x
  _atom_site_fract_y
  _atom_site_fract_z
  _atom_site_occupancy
  Hg  Hg1       1.0  0.24999996774412434  0.2500000094063474  0.2500000367360164  1.0000
  Hg  Hg2       1.0  0.7500000978192505  0.7499999726414147  0.7500000243670019  1.0000
  Cd  Cd1       1.0  7.93811865025206e-07  0.9999979769739341  9.249991145693159e-07  1.0000
  O   O1        1.0  0.2800761583422749  0.28007602894737893  0.7199239720566726  1.0000
  O   O2        1.0  0.719924676893778  0.7199246622711325  0.28007533328821355  1.0000
  O   O3        1.0  0.7199234420516414  0.2800764223755765  0.2800766333563531  1.0000
  O   O4        1.0  0.280075929994392  0.7199239865084232  0.7199241782409511  1.0000
  O   O5        1.0  0.28007551603586744  0.7199244100342518  0.2800755318294926  1.0000
  O   O6        1.0  0.7199234056863976  0.28007653239505403  0.7199234030322704  1.0000
