data_image0
_chemical_formula_structural       Hg2CrO6
_chemical_formula_sum              "Hg2 Cr1 O6"
_cell_length_a       5.542262699688962
_cell_length_b       5.54226233438826
_cell_length_c       5.542262675825814
_cell_angle_alpha    59.99999952451751
_cell_angle_beta     59.999998887830046
_cell_angle_gamma    59.99999746183128

_space_group_name_H-M_alt    "P 1"
_space_group_IT_number       1

loop_
  _space_group_symop_operation_xyz
  'x, y, z'

loop_
  _atom_site_type_symbol
  _atom_site_label
  _atom_site_symmetry_multiplicity
  _atom_site_fract_x
  _atom_site_fract_y
  _atom_site_fract_z
  _atom_site_occupancy
  Hg  Hg1       1.0  0.2499999266323386  0.25000012910163094  0.24999994602644807  1.0000
  Hg  Hg2       1.0  0.7500001301148508  0.7499998304281241  0.7500000099728554  1.0000
  Cr  Cr1       1.0  7.797218124298612e-08  0.9999999535936032  3.834662321154882e-08  1.0000
  O   O1        1.0  0.2395321199004177  0.2395321522066841  0.7604678436050567  1.0000
  O   O2        1.0  0.7604678890935364  0.7604679443324347  0.23953206235323318  1.0000
  O   O3        1.0  0.7604679711091245  0.239532082850408  0.23953193594775998  1.0000
  O   O4        1.0  0.23953211236540156  0.7604678590007196  0.7604680245487745  1.0000
  O   O5        1.0  0.23953195181600315  0.760467966634908  0.23953209598692732  1.0000
  O   O6        1.0  0.7604678619442437  0.23953213432387174  0.7604679883769796  1.0000
