data_image0
_chemical_formula_structural       Hg2CaSe6
_chemical_formula_sum              "Hg2 Ca1 Se6"
_cell_length_a       7.016298807776674
_cell_length_b       7.016298939972775
_cell_length_c       7.016298451813029
_cell_angle_alpha    60.000001809150504
_cell_angle_beta     60.000002984141126
_cell_angle_gamma    60.000000339260524

_space_group_name_H-M_alt    "P 1"
_space_group_IT_number       1

loop_
  _space_group_symop_operation_xyz
  'x, y, z'

loop_
  _atom_site_type_symbol
  _atom_site_label
  _atom_site_symmetry_multiplicity
  _atom_site_fract_x
  _atom_site_fract_y
  _atom_site_fract_z
  _atom_site_occupancy
  Hg  Hg1       1.0  0.2500001219313371  0.24999971090301487  0.250000013015366  1.0000
  Hg  Hg2       1.0  0.7500000902790748  0.7499998012627724  0.749999993603509  1.0000
  Ca  Ca1       1.0  1.7755208925184008e-08  0.9999999319227246  2.9025808056482473e-07  1.0000
  Se  Se1       1.0  0.30020945754606  0.3002094284646416  0.6997906369708637  1.0000
  Se  Se2       1.0  0.6997901466330773  0.6997903821938056  0.3002099833487583  1.0000
  Se  Se3       1.0  0.6997907174213859  0.30020934229860197  0.3002096418321041  1.0000
  Se  Se4       1.0  0.3002101070699594  0.6997902239798792  0.6997900586697688  1.0000
  Se  Se5       1.0  0.30020940363522436  0.6997909805231294  0.3002094471026805  1.0000
  Se  Se6       1.0  0.6997899414746008  0.30021018993520326  0.6997899344544767  1.0000
