data_image0
_chemical_formula_structural       Hg2CrTe6
_chemical_formula_sum              "Hg2 Cr1 Te6"
_cell_length_a       7.161169188680026
_cell_length_b       7.161168982322183
_cell_length_c       7.16116666852799
_cell_angle_alpha    60.000005380891324
_cell_angle_beta     60.00000779373158
_cell_angle_gamma    60.00000303356944

_space_group_name_H-M_alt    "P 1"
_space_group_IT_number       1

loop_
  _space_group_symop_operation_xyz
  'x, y, z'

loop_
  _atom_site_type_symbol
  _atom_site_label
  _atom_site_symmetry_multiplicity
  _atom_site_fract_x
  _atom_site_fract_y
  _atom_site_fract_z
  _atom_site_occupancy
  Hg  Hg1       1.0  0.25000008299898036  0.2500000366662588  0.2499998887607726  1.0000
  Hg  Hg2       1.0  0.749999863116305  0.75000016472703  0.750000087403471  1.0000
  Cr  Cr1       1.0  0.9999999189921744  0.9999996818919591  4.509136398522826e-07  1.0000
  Te  Te1       1.0  0.2639926129018308  0.26399217846910655  0.7360073921524489  1.0000
  Te  Te2       1.0  0.7360079570069684  0.7360077527034078  0.2639917844218709  1.0000
  Te  Te3       1.0  0.7360076682188521  0.2639924603140875  0.26399189321067723  1.0000
  Te  Te4       1.0  0.2639922211227744  0.7360075050635566  0.7360084499826693  1.0000
  Te  Te5       1.0  0.2639922246017932  0.7360077865586268  0.2639915151962078  1.0000
  Te  Te6       1.0  0.7360074478698074  0.263992418255181  0.7360085723404778  1.0000
