data_image0
_chemical_formula_structural       Hg2CuO6
_chemical_formula_sum              "Hg2 Cu1 O6"
_cell_length_a       5.346067194209418
_cell_length_b       5.346067125554163
_cell_length_c       5.346067201150496
_cell_angle_alpha    59.99999775048934
_cell_angle_beta     59.999998205347616
_cell_angle_gamma    59.999997750672385

_space_group_name_H-M_alt    "P 1"
_space_group_IT_number       1

loop_
  _space_group_symop_operation_xyz
  'x, y, z'

loop_
  _atom_site_type_symbol
  _atom_site_label
  _atom_site_symmetry_multiplicity
  _atom_site_fract_x
  _atom_site_fract_y
  _atom_site_fract_z
  _atom_site_occupancy
  Hg  Hg1       1.0  0.2500000392938878  0.24999997481454989  0.2499999711979014  1.0000
  Hg  Hg2       1.0  0.7499999564313715  0.7500000848085328  0.7500000375916466  1.0000
  Cu  Cu1       1.0  9.141227387438765e-09  1.1454634085668922e-08  1.9630611593406997e-08  1.0000
  O   O1        1.0  0.24812945711042902  0.24812939414211616  0.7518705619208674  1.0000
  O   O2        1.0  0.7518705233008853  0.7518705623892571  0.24812939383947483  1.0000
  O   O3        1.0  0.7518706508270072  0.2481293757339923  0.24812938697549308  1.0000
  O   O4        1.0  0.24812939780665322  0.7518705899610871  0.751870612395314  1.0000
  O   O5        1.0  0.24812938074533025  0.7518706678201511  0.24812937024728102  1.0000
  O   O6        1.0  0.7518705877958067  0.2481293826392244  0.7518706380108433  1.0000
