data_image0
_chemical_formula_structural       Hg2CrSe6
_chemical_formula_sum              "Hg2 Cr1 Se6"
_cell_length_a       6.517200451918176
_cell_length_b       6.517200380149632
_cell_length_c       6.517200389235996
_cell_angle_alpha    60.0000003173003
_cell_angle_beta     60.00000040682043
_cell_angle_gamma    60.00000273916426

_space_group_name_H-M_alt    "P 1"
_space_group_IT_number       1

loop_
  _space_group_symop_operation_xyz
  'x, y, z'

loop_
  _atom_site_type_symbol
  _atom_site_label
  _atom_site_symmetry_multiplicity
  _atom_site_fract_x
  _atom_site_fract_y
  _atom_site_fract_z
  _atom_site_occupancy
  Hg  Hg1       1.0  0.250000014019418  0.25000000338042266  0.24999999451444646  1.0000
  Hg  Hg2       1.0  0.7499999903728244  0.7499999951072666  0.7499999892838336  1.0000
  Cr  Cr1       1.0  5.261583515727036e-08  2.8188751186107686e-08  0.9999999979577365  1.0000
  Se  Se1       1.0  0.26712145313648034  0.26712152333305933  0.7328785618959449  1.0000
  Se  Se2       1.0  0.7328786874120776  0.7328785822718821  0.2671213800544131  1.0000
  Se  Se3       1.0  0.7328785070467969  0.2671213656685533  0.26712149760024156  1.0000
  Se  Se4       1.0  0.26712142098109715  0.7328785802001344  0.7328785230704918  1.0000
  Se  Se5       1.0  0.26712137354808346  0.7328785352145873  0.26712147747492115  1.0000
  Se  Se6       1.0  0.7328785017564994  0.26712138810309927  0.7328785762297646  1.0000
