data_image0
_chemical_formula_structural       Hg2CS6
_chemical_formula_sum              "Hg2 C1 S6"
_cell_length_a       6.914227499590117
_cell_length_b       7.356329676661242
_cell_length_c       2.3131780629789014
_cell_angle_alpha    67.91266226453654
_cell_angle_beta     65.07389295655226
_cell_angle_gamma    37.18976282693722

_space_group_name_H-M_alt    "P 1"
_space_group_IT_number       1

loop_
  _space_group_symop_operation_xyz
  'x, y, z'

loop_
  _atom_site_type_symbol
  _atom_site_label
  _atom_site_symmetry_multiplicity
  _atom_site_fract_x
  _atom_site_fract_y
  _atom_site_fract_z
  _atom_site_occupancy
  Hg  Hg1       1.0  0.24293358300527657  0.01213626610794835  0.5170069475352108  1.0000
  Hg  Hg2       1.0  0.10781940813114718  0.6418408752748728  0.8041288233894448  1.0000
  C   C1        1.0  0.0665591074218824  0.10110751115488752  0.07040088102991801  1.0000
  S   S1        1.0  0.0529023310897606  0.31150920401542237  0.8858083030949618  1.0000
  S   S2        1.0  0.9263161527997735  0.23789356157183184  0.09553794977822921  1.0000
  S   S3        1.0  0.031035225393267973  0.25502378671572384  0.15337554626151262  1.0000
  S   S4        1.0  0.2456423277916177  0.04864073551161252  0.8302905872159985  1.0000
  S   S5        1.0  0.11135302737043534  0.01575721444271072  0.23812903252877693  1.0000
  S   S6        1.0  0.08098665658863013  0.19292020699881796  0.38546559994540874  1.0000
