data_image0
_chemical_formula_structural       Hg2CuSe6
_chemical_formula_sum              "Hg2 Cu1 Se6"
_cell_length_a       6.498429346233434
_cell_length_b       6.4984292660585075
_cell_length_c       6.498430068640303
_cell_angle_alpha    59.99999772066865
_cell_angle_beta     59.999994778927025
_cell_angle_gamma    60.00000078672264

_space_group_name_H-M_alt    "P 1"
_space_group_IT_number       1

loop_
  _space_group_symop_operation_xyz
  'x, y, z'

loop_
  _atom_site_type_symbol
  _atom_site_label
  _atom_site_symmetry_multiplicity
  _atom_site_fract_x
  _atom_site_fract_y
  _atom_site_fract_z
  _atom_site_occupancy
  Hg  Hg1       1.0  0.24999995128820024  0.25000005619906324  0.2500000053203958  1.0000
  Hg  Hg2       1.0  0.7500000117955637  0.7499999933221108  0.7500000446380728  1.0000
  Cu  Cu1       1.0  0.9999999701716746  0.9999998869192985  5.144968049336707e-08  1.0000
  Se  Se1       1.0  0.28747865707035125  0.28747857473915733  0.7125214433502992  1.0000
  Se  Se2       1.0  0.7125211709358161  0.7125213522779215  0.2874787723310123  1.0000
  Se  Se3       1.0  0.7125213345231239  0.28747866653213305  0.2874786131417955  1.0000
  Se  Se4       1.0  0.2874787566231319  0.7125213452954751  0.7125212531372193  1.0000
  Se  Se5       1.0  0.2874787794713189  0.712521392538375  0.2874785445805446  1.0000
  Se  Se6       1.0  0.7125213742233264  0.28747872483122333  0.7125212930512765  1.0000
