data_image0
_chemical_formula_structural       Hg2CoS6
_chemical_formula_sum              "Hg2 Co1 S6"
_cell_length_a       6.260350980348218
_cell_length_b       6.2603456659907115
_cell_length_c       6.260348552484946
_cell_angle_alpha    60.00001293406931
_cell_angle_beta     60.000012672471485
_cell_angle_gamma    60.000007199452426

_space_group_name_H-M_alt    "P 1"
_space_group_IT_number       1

loop_
  _space_group_symop_operation_xyz
  'x, y, z'

loop_
  _atom_site_type_symbol
  _atom_site_label
  _atom_site_symmetry_multiplicity
  _atom_site_fract_x
  _atom_site_fract_y
  _atom_site_fract_z
  _atom_site_occupancy
  Hg  Hg1       1.0  0.25000033423802664  0.2500007436345121  0.24999967755342353  1.0000
  Hg  Hg2       1.0  0.7499998982705264  0.7500000495694449  0.7500006228359098  1.0000
  Co  Co1       1.0  0.9999999837864403  2.6997669158132623e-07  0.9999996862279391  1.0000
  S   S1        1.0  0.24588879856748638  0.2458886113214489  0.7541112684763706  1.0000
  S   S2        1.0  0.7541115031047627  0.7541107791769824  0.245888986263182  1.0000
  S   S3        1.0  0.7541113789306523  0.24588849336368312  0.24588851609826445  1.0000
  S   S4        1.0  0.2458883914044211  0.7541109362615395  0.7541113649726912  1.0000
  S   S5        1.0  0.24588848462254512  0.7541111570154436  0.2458884208166385  1.0000
  S   S6        1.0  0.7541113729936013  0.24588856410644155  0.7541113028126142  1.0000
