data_image0
_chemical_formula_structural       Hg2CrTe6
_chemical_formula_sum              "Hg2 Cr1 Te6"
_cell_length_a       7.161589488436956
_cell_length_b       7.161579933871974
_cell_length_c       7.161584053274471
_cell_angle_alpha    60.00003993829738
_cell_angle_beta     60.00000082606699
_cell_angle_gamma    59.99991053991031

_space_group_name_H-M_alt    "P 1"
_space_group_IT_number       1

loop_
  _space_group_symop_operation_xyz
  'x, y, z'

loop_
  _atom_site_type_symbol
  _atom_site_label
  _atom_site_symmetry_multiplicity
  _atom_site_fract_x
  _atom_site_fract_y
  _atom_site_fract_z
  _atom_site_occupancy
  Hg  Hg1       1.0  0.24999940370579504  0.2500020875660027  0.24999858868943783  1.0000
  Hg  Hg2       1.0  0.7499999985896967  0.7499968516869245  0.7500028690044918  1.0000
  Cr  Cr1       1.0  1.2696043168084613e-06  9.508481866169843e-07  0.9999993519621889  1.0000
  Te  Te1       1.0  0.2639444148956824  0.26393573472365167  0.7360607423590204  1.0000
  Te  Te2       1.0  0.7360574855700209  0.7360658775061987  0.2639367390083075  1.0000
  Te  Te3       1.0  0.736061092817048  0.2639369852437161  0.26394155349799164  1.0000
  Te  Te4       1.0  0.26393617321091734  0.7360627663361025  0.7360587997980181  1.0000
  Te  Te5       1.0  0.26393722745617804  0.7360643228113124  0.26394030851280426  1.0000
  Te  Te6       1.0  0.7360625221435624  0.26393480797853275  0.736059979121829  1.0000
