data_image0
_chemical_formula_structural       Hg2CO6
_chemical_formula_sum              "Hg2 C1 O6"
_cell_length_a       5.05216363607612
_cell_length_b       5.052163749884275
_cell_length_c       5.052164588866013
_cell_angle_alpha    59.99999714475993
_cell_angle_beta     59.999998159802864
_cell_angle_gamma    60.000000408832996

_space_group_name_H-M_alt    "P 1"
_space_group_IT_number       1

loop_
  _space_group_symop_operation_xyz
  'x, y, z'

loop_
  _atom_site_type_symbol
  _atom_site_label
  _atom_site_symmetry_multiplicity
  _atom_site_fract_x
  _atom_site_fract_y
  _atom_site_fract_z
  _atom_site_occupancy
  Hg  Hg1       1.0  0.2499999662070489  0.24999999570217354  0.24999994239166426  1.0000
  Hg  Hg2       1.0  0.7500000442749201  0.7499998998353717  0.7499999978979942  1.0000
  C   C1        1.0  8.776245444073347e-08  0.9999993527389215  0.9999989021219746  1.0000
  O   O1        1.0  0.21935535993336486  0.21935520857516655  0.7806448760862488  1.0000
  O   O2        1.0  0.7806446830017598  0.7806450627131886  0.2193552698268044  1.0000
  O   O3        1.0  0.7806447429541935  0.21935533974659432  0.21935545454981173  1.0000
  O   O4        1.0  0.2193550499758601  0.7806450576000946  0.7806451076401841  1.0000
  O   O5        1.0  0.21935520043575493  0.7806448949940431  0.21935531008149106  1.0000
  O   O6        1.0  0.7806448013396498  0.21935517751001773  0.7806451656146223  1.0000
