data_image0
_chemical_formula_structural       Hg2CaS6
_chemical_formula_sum              "Hg2 Ca1 S6"
_cell_length_a       6.8597412579050046
_cell_length_b       6.859741109073589
_cell_length_c       6.859741346076925
_cell_angle_alpha    59.99999797089312
_cell_angle_beta     59.999998274357395
_cell_angle_gamma    60.00000099347228

_space_group_name_H-M_alt    "P 1"
_space_group_IT_number       1

loop_
  _space_group_symop_operation_xyz
  'x, y, z'

loop_
  _atom_site_type_symbol
  _atom_site_label
  _atom_site_symmetry_multiplicity
  _atom_site_fract_x
  _atom_site_fract_y
  _atom_site_fract_z
  _atom_site_occupancy
  Hg  Hg1       1.0  0.25000005335042674  0.2500001350267895  0.24999995809049208  1.0000
  Hg  Hg2       1.0  0.7499999653370151  0.7500001408397153  0.7500000425221409  1.0000
  Ca  Ca1       1.0  0.9999998214009717  0.9999999500085205  1.6531758797162007e-07  1.0000
  S   S1        1.0  0.2832372532167178  0.283237296970257  0.7167627251710735  1.0000
  S   S2        1.0  0.7167628342527929  0.7167626968015052  0.28323721007974983  1.0000
  S   S3        1.0  0.716762755972816  0.2832371397289994  0.2832372789778798  1.0000
  S   S4        1.0  0.28323724381340926  0.7167627736993201  0.716762718419595  1.0000
  S   S5        1.0  0.2832373089111204  0.7167626812975298  0.28323716310819935  1.0000
  S   S6        1.0  0.7167627748709464  0.28323718213931864  0.7167627371091396  1.0000
