data_image0
_chemical_formula_structural       Hg2CdSe6
_chemical_formula_sum              "Hg2 Cd1 Se6"
_cell_length_a       6.814285515885874
_cell_length_b       6.814286473501617
_cell_length_c       6.814285894581509
_cell_angle_alpha    60.000002723933456
_cell_angle_beta     59.99999756009462
_cell_angle_gamma    59.99999758668304

_space_group_name_H-M_alt    "P 1"
_space_group_IT_number       1

loop_
  _space_group_symop_operation_xyz
  'x, y, z'

loop_
  _atom_site_type_symbol
  _atom_site_label
  _atom_site_symmetry_multiplicity
  _atom_site_fract_x
  _atom_site_fract_y
  _atom_site_fract_z
  _atom_site_occupancy
  Hg  Hg1       1.0  0.24999996646803122  0.24999995692238391  0.2499999787023621  1.0000
  Hg  Hg2       1.0  0.7500000795205064  0.7499998743617788  0.7499999616519817  1.0000
  Cd  Cd1       1.0  0.9999999257843561  0.9999999227152766  2.313057354274171e-07  1.0000
  Se  Se1       1.0  0.3004630160047487  0.3004627984052137  0.6995372064934171  1.0000
  Se  Se2       1.0  0.699537030870604  0.6995372233947914  0.30046298008831007  1.0000
  Se  Se3       1.0  0.6995369913669578  0.3004630419899296  0.30046289482478833  1.0000
  Se  Se4       1.0  0.3004632345263633  0.6995371595419899  0.6995367821933258  1.0000
  Se  Se5       1.0  0.30046299904638707  0.6995370547813093  0.30046292576563843  1.0000
  Se  Se6       1.0  0.6995367722198118  0.3004629652213938  0.699537051720585  1.0000
