data_image0
_chemical_formula_structural       Hg2CoTe6
_chemical_formula_sum              "Hg2 Co1 Te6"
_cell_length_a       7.102244760130227
_cell_length_b       7.102243653549468
_cell_length_c       7.102243825834978
_cell_angle_alpha    60.000002921525635
_cell_angle_beta     60.00000284204861
_cell_angle_gamma    60.000000804996056

_space_group_name_H-M_alt    "P 1"
_space_group_IT_number       1

loop_
  _space_group_symop_operation_xyz
  'x, y, z'

loop_
  _atom_site_type_symbol
  _atom_site_label
  _atom_site_symmetry_multiplicity
  _atom_site_fract_x
  _atom_site_fract_y
  _atom_site_fract_z
  _atom_site_occupancy
  Hg  Hg1       1.0  0.2500000386599238  0.24999998882639315  0.24999995342174236  1.0000
  Hg  Hg2       1.0  0.7500000138965384  0.7500000337326459  0.7499999466723944  1.0000
  Co  Co1       1.0  0.9999999065699464  1.5347584652031952e-07  0.9999998207285016  1.0000
  Te  Te1       1.0  0.24260074248557364  0.24260047780912097  0.7573994803874384  1.0000
  Te  Te2       1.0  0.7573993536273346  0.7573993067761302  0.242600716852176  1.0000
  Te  Te3       1.0  0.7573994744080993  0.24260044805574846  0.2426005726919871  1.0000
  Te  Te4       1.0  0.24260062196683863  0.7573993796406902  0.7573994381243494  1.0000
  Te  Te5       1.0  0.24260064356872035  0.7573995187940089  0.2426006209447032  1.0000
  Te  Te6       1.0  0.7573991931107888  0.24260071242321923  0.7573994376394543  1.0000
