data_image0
_chemical_formula_structural       Hg2CaTe6
_chemical_formula_sum              "Hg2 Ca1 Te6"
_cell_length_a       7.885821369106489
_cell_length_b       7.885821073120182
_cell_length_c       7.885821187829813
_cell_angle_alpha    59.99999969199887
_cell_angle_beta     60.000000084186595
_cell_angle_gamma    60.000004401719586

_space_group_name_H-M_alt    "P 1"
_space_group_IT_number       1

loop_
  _space_group_symop_operation_xyz
  'x, y, z'

loop_
  _atom_site_type_symbol
  _atom_site_label
  _atom_site_symmetry_multiplicity
  _atom_site_fract_x
  _atom_site_fract_y
  _atom_site_fract_z
  _atom_site_occupancy
  Hg  Hg1       1.0  0.2499999752513358  0.24999999451610963  0.25000001747367023  1.0000
  Hg  Hg2       1.0  0.7500000204877192  0.7500000068447961  0.749999961703452  1.0000
  Ca  Ca1       1.0  1.249836229198942e-08  0.999999984469026  0.999999944451862  1.0000
  Te  Te1       1.0  0.29123130053707336  0.2912313894824739  0.7087686655711078  1.0000
  Te  Te2       1.0  0.7087686758568396  0.7087685513076307  0.2912314245775161  1.0000
  Te  Te3       1.0  0.7087687417284951  0.29123130891727644  0.2912314134612748  1.0000
  Te  Te4       1.0  0.29123125767756014  0.7087687561206251  0.7087685916444908  1.0000
  Te  Te5       1.0  0.29123125480733697  0.7087687029817127  0.2912314270632685  1.0000
  Te  Te6       1.0  0.7087687593607611  0.291231304591584  0.7087685499379266  1.0000
