data_image0
_chemical_formula_structural       Hg2CdTe6
_chemical_formula_sum              "Hg2 Cd1 Te6"
_cell_length_a       7.581979604885122
_cell_length_b       7.581978067095614
_cell_length_c       7.581979336435624
_cell_angle_alpha    59.999973817521195
_cell_angle_beta     59.99999289588321
_cell_angle_gamma    60.000004454133276

_space_group_name_H-M_alt    "P 1"
_space_group_IT_number       1

loop_
  _space_group_symop_operation_xyz
  'x, y, z'

loop_
  _atom_site_type_symbol
  _atom_site_label
  _atom_site_symmetry_multiplicity
  _atom_site_fract_x
  _atom_site_fract_y
  _atom_site_fract_z
  _atom_site_occupancy
  Hg  Hg1       1.0  0.2500003532864912  0.25000006192189156  0.24999988966600273  1.0000
  Hg  Hg2       1.0  0.7500000316252041  0.750000757594991  0.7499989568127742  1.0000
  Cd  Cd1       1.0  1.940645208755277e-07  0.9999998061595811  0.9999999932933831  1.0000
  Te  Te1       1.0  0.28913076602263454  0.2891313583002795  0.7108685823163128  1.0000
  Te  Te2       1.0  0.7108697244826909  0.7108684225546278  0.28913150094420936  1.0000
  Te  Te3       1.0  0.7108691646228612  0.2891298848397684  0.289130974759907  1.0000
  Te  Te4       1.0  0.2891306460594318  0.710869047963099  0.7108689768938118  1.0000
  Te  Te5       1.0  0.28913007084954784  0.7108690058626556  0.2891320915904703  1.0000
  Te  Te6       1.0  0.7108690044168725  0.2891316488891854  0.7108690470964915  1.0000
