data_image0
_chemical_formula_structural       Hg2CoO6
_chemical_formula_sum              "Hg2 Co1 O6"
_cell_length_a       5.394097707753167
_cell_length_b       5.394097702346769
_cell_length_c       5.394097378532217
_cell_angle_alpha    60.000000691740134
_cell_angle_beta     60.00000298828591
_cell_angle_gamma    59.999999578914036

_space_group_name_H-M_alt    "P 1"
_space_group_IT_number       1

loop_
  _space_group_symop_operation_xyz
  'x, y, z'

loop_
  _atom_site_type_symbol
  _atom_site_label
  _atom_site_symmetry_multiplicity
  _atom_site_fract_x
  _atom_site_fract_y
  _atom_site_fract_z
  _atom_site_occupancy
  Hg  Hg1       1.0  0.2499999617064896  0.24999997323032186  0.2500001006475416  1.0000
  Hg  Hg2       1.0  0.7499999216407768  0.7499999128793875  0.749999968220695  1.0000
  Co  Co1       1.0  0.9999999951992365  2.724633352154063e-08  0.9999999887772146  1.0000
  O   O1        1.0  0.23574463738065865  0.23574465308589831  0.7642553600218502  1.0000
  O   O2        1.0  0.7642553680034833  0.7642554192070866  0.23574462147592826  1.0000
  O   O3        1.0  0.7642553131962596  0.23574460731067678  0.23574469714885055  1.0000
  O   O4        1.0  0.2357446510625008  0.7642553764317246  0.7642553695795722  1.0000
  O   O5        1.0  0.23574470090294078  0.7642552884881001  0.23574459063445982  1.0000
  O   O6        1.0  0.7642554449235526  0.23574471568905073  0.764255278691052  1.0000
