data_image0
_chemical_formula_structural       Hg2CS6
_chemical_formula_sum              "Hg2 C1 S6"
_cell_length_a       6.125478861335231
_cell_length_b       6.125476842296122
_cell_length_c       6.125478907112074
_cell_angle_alpha    60.000009918375554
_cell_angle_beta     60.000018235803836
_cell_angle_gamma    60.000009968896535

_space_group_name_H-M_alt    "P 1"
_space_group_IT_number       1

loop_
  _space_group_symop_operation_xyz
  'x, y, z'

loop_
  _atom_site_type_symbol
  _atom_site_label
  _atom_site_symmetry_multiplicity
  _atom_site_fract_x
  _atom_site_fract_y
  _atom_site_fract_z
  _atom_site_occupancy
  Hg  Hg1       1.0  0.24999983828641262  0.25000011953388657  0.24999992708796767  1.0000
  Hg  Hg2       1.0  0.7500000087367411  0.7499999967053427  0.749999989537591  1.0000
  C   C1        1.0  1.6931078960548933e-07  2.159385066190913e-07  1.6178460960789027e-06  1.0000
  S   S1        1.0  0.22109131781159352  0.22109017127190916  0.778909178354833  1.0000
  S   S2        1.0  0.7789089456540742  0.7789092611631763  0.2210913339561827  1.0000
  S   S3        1.0  0.7789091702577539  0.22109001911363685  0.22109048971229783  1.0000
  S   S4        1.0  0.22109152678230654  0.7789090174345321  0.7789083598018832  1.0000
  S   S5        1.0  0.2210904405865471  0.7789096909423199  0.2210904539925311  1.0000
  S   S6        1.0  0.7789085760314288  0.22109153098020473  0.7789085772973885  1.0000
