data_image0
_chemical_formula_structural       Hg2CuS6
_chemical_formula_sum              "Hg2 Cu1 S6"
_cell_length_a       6.2531924220574835
_cell_length_b       6.25319310879074
_cell_length_c       6.253193159149452
_cell_angle_alpha    59.99999906212326
_cell_angle_beta     60.000001087056134
_cell_angle_gamma    60.000003913632696

_space_group_name_H-M_alt    "P 1"
_space_group_IT_number       1

loop_
  _space_group_symop_operation_xyz
  'x, y, z'

loop_
  _atom_site_type_symbol
  _atom_site_label
  _atom_site_symmetry_multiplicity
  _atom_site_fract_x
  _atom_site_fract_y
  _atom_site_fract_z
  _atom_site_occupancy
  Hg  Hg1       1.0  0.24999991135304966  0.250000030351838  0.25000001977689207  1.0000
  Hg  Hg2       1.0  0.7500000484830495  0.7499999676642796  0.7500000101906619  1.0000
  Cu  Cu1       1.0  2.6300139491060034e-08  0.9999999764969073  0.9999999890063799  1.0000
  S   S1        1.0  0.26041235010778957  0.2604123579368231  0.7395877217712802  1.0000
  S   S2        1.0  0.7395877259891309  0.7395875793629672  0.2604124819210854  1.0000
  S   S3        1.0  0.739587622889599  0.2604124007332423  0.26041233832677796  1.0000
  S   S4        1.0  0.26041220807646603  0.7395876736679283  0.7395876347257467  1.0000
  S   S5        1.0  0.26041232087951083  0.7395876785096932  0.26041228357836627  1.0000
  S   S6        1.0  0.7395877152806927  0.2604123841399377  0.7395875303847311  1.0000
