data_image0
_chemical_formula_structural       Hg2CuTe6
_chemical_formula_sum              "Hg2 Cu1 Te6"
_cell_length_a       7.086512937235744
_cell_length_b       7.086465575570953
_cell_length_c       7.086303308517365
_cell_angle_alpha    60.00196908071662
_cell_angle_beta     59.999582552894836
_cell_angle_gamma    59.998085108817634

_space_group_name_H-M_alt    "P 1"
_space_group_IT_number       1

loop_
  _space_group_symop_operation_xyz
  'x, y, z'

loop_
  _atom_site_type_symbol
  _atom_site_label
  _atom_site_symmetry_multiplicity
  _atom_site_fract_x
  _atom_site_fract_y
  _atom_site_fract_z
  _atom_site_occupancy
  Hg  Hg1       1.0  0.25002674926923396  0.2500601261682645  0.24996988089953337  1.0000
  Hg  Hg2       1.0  0.7499837895402814  0.7499721106415637  0.7499274001364856  1.0000
  Cu  Cu1       1.0  1.6378781480293964e-05  2.6449117930143797e-05  0.9999903609473209  1.0000
  Te  Te1       1.0  0.26934816281477664  0.2692436558871571  0.730634853768994  1.0000
  Te  Te2       1.0  0.7307757296476445  0.7307447340611826  0.26928236369521447  1.0000
  Te  Te3       1.0  0.7305982731150643  0.26931483069265244  0.2693189570420484  1.0000
  Te  Te4       1.0  0.26931360917539704  0.7306704248491807  0.730760934169868  1.0000
  Te  Te5       1.0  0.26920629458787815  0.7306689215855694  0.2693698276627906  1.0000
  Te  Te6       1.0  0.7307235805366208  0.2692985931465927  0.7307313093999592  1.0000
