data_image0
_chemical_formula_structural       Hg2FeSe6
_chemical_formula_sum              "Hg2 Fe1 Se6"
_cell_length_a       6.720782517502351
_cell_length_b       6.72078315140707
_cell_length_c       6.720783108210225
_cell_angle_alpha    59.99999332401087
_cell_angle_beta     59.99999730703553
_cell_angle_gamma    60.00000331280773

_space_group_name_H-M_alt    "P 1"
_space_group_IT_number       1

loop_
  _space_group_symop_operation_xyz
  'x, y, z'

loop_
  _atom_site_type_symbol
  _atom_site_label
  _atom_site_symmetry_multiplicity
  _atom_site_fract_x
  _atom_site_fract_y
  _atom_site_fract_z
  _atom_site_occupancy
  Hg  Hg1       1.0  0.249999993658591  0.24999999961270483  0.25000001841418507  1.0000
  Hg  Hg2       1.0  0.749999984221419  0.7499999787925465  0.7500000190048618  1.0000
  Fe  Fe1       1.0  0.9999994741231448  0.9999998870158613  0.9999999861360087  1.0000
  Se  Se1       1.0  0.23904897469873795  0.23904917476419385  0.7609509551391317  1.0000
  Se  Se2       1.0  0.760951363298117  0.7609512902017741  0.23904870209084317  1.0000
  Se  Se3       1.0  0.7609507834558664  0.23904919897086552  0.23904926163076173  1.0000
  Se  Se4       1.0  0.239049156625849  0.7609507794343823  0.7609508095666524  1.0000
  Se  Se5       1.0  0.23904917667257325  0.7609507622987911  0.23904927914862453  1.0000
  Se  Se6       1.0  0.7609510649320966  0.2390489609809975  0.7609510098933946  1.0000
