data_image0
_chemical_formula_structural       Hg2FeSe6
_chemical_formula_sum              "Hg2 Fe1 Se6"
_cell_length_a       6.720818070612004
_cell_length_b       6.720817955328278
_cell_length_c       6.7208187180090375
_cell_angle_alpha    59.99999952236865
_cell_angle_beta     59.999999454193734
_cell_angle_gamma    60.00000102113569

_space_group_name_H-M_alt    "P 1"
_space_group_IT_number       1

loop_
  _space_group_symop_operation_xyz
  'x, y, z'

loop_
  _atom_site_type_symbol
  _atom_site_label
  _atom_site_symmetry_multiplicity
  _atom_site_fract_x
  _atom_site_fract_y
  _atom_site_fract_z
  _atom_site_occupancy
  Hg  Hg1       1.0  0.24999995577530282  0.24999998369210658  0.25000003415415334  1.0000
  Hg  Hg2       1.0  0.7499999868630353  0.7499999893449427  0.7500000801003187  1.0000
  Fe  Fe1       1.0  0.9999999664897348  0.9999999252850748  5.011431955581427e-09  1.0000
  Se  Se1       1.0  0.23905105573043017  0.23905113919020374  0.7609488971585734  1.0000
  Se  Se2       1.0  0.7609489376348845  0.7609488466030501  0.23905107971241835  1.0000
  Se  Se3       1.0  0.7609489232281792  0.23905116728574854  0.23905105554631367  1.0000
  Se  Se4       1.0  0.23905115642301392  0.760948858598441  0.7609488462329621  1.0000
  Se  Se5       1.0  0.23905113328997685  0.7609488863358199  0.23905114557432075  1.0000
  Se  Se6       1.0  0.7609489023666384  0.23905119421782683  0.7609488282390419  1.0000
