data_image0
_chemical_formula_structural       Hg2FeTe6
_chemical_formula_sum              "Hg2 Fe1 Te6"
_cell_length_a       7.579597146741674
_cell_length_b       7.579598147529959
_cell_length_c       7.57960176517253
_cell_angle_alpha    60.00000189353774
_cell_angle_beta     59.99998189487259
_cell_angle_gamma    60.00004245896319

_space_group_name_H-M_alt    "P 1"
_space_group_IT_number       1

loop_
  _space_group_symop_operation_xyz
  'x, y, z'

loop_
  _atom_site_type_symbol
  _atom_site_label
  _atom_site_symmetry_multiplicity
  _atom_site_fract_x
  _atom_site_fract_y
  _atom_site_fract_z
  _atom_site_occupancy
  Hg  Hg1       1.0  0.24999995368701658  0.24999991990586437  0.25000004209523013  1.0000
  Hg  Hg2       1.0  0.749999887170653  0.7500000150209096  0.7499999723859598  1.0000
  Fe  Fe1       1.0  0.9999999994004372  0.9999980868411453  1.4819725033166987e-06  1.0000
  Te  Te1       1.0  0.21941729478510671  0.21941778079289218  0.7805821855278267  1.0000
  Te  Te2       1.0  0.7805835221626146  0.7805830557751312  0.21941683467596618  1.0000
  Te  Te3       1.0  0.7805816494439397  0.21941866991529702  0.2194183246813114  1.0000
  Te  Te4       1.0  0.21941851694516165  0.7805816366557855  0.7805818517929776  1.0000
  Te  Te5       1.0  0.21941809565935816  0.7805813620889173  0.2194185302051324  1.0000
  Te  Te6       1.0  0.7805810749197523  0.21941945024056153  0.7805808134019646  1.0000
