data_image0
_chemical_formula_structural       Hg2FeO6
_chemical_formula_sum              "Hg2 Fe1 O6"
_cell_length_a       5.39288606652446
_cell_length_b       5.392886028309678
_cell_length_c       5.3928857948854265
_cell_angle_alpha    60.00000058170063
_cell_angle_beta     60.00000174131112
_cell_angle_gamma    60.000000059936085

_space_group_name_H-M_alt    "P 1"
_space_group_IT_number       1

loop_
  _space_group_symop_operation_xyz
  'x, y, z'

loop_
  _atom_site_type_symbol
  _atom_site_label
  _atom_site_symmetry_multiplicity
  _atom_site_fract_x
  _atom_site_fract_y
  _atom_site_fract_z
  _atom_site_occupancy
  Hg  Hg1       1.0  0.250000003585693  0.2500000204543117  0.24999991281808998  1.0000
  Hg  Hg2       1.0  0.7499999709843147  0.7500000136711359  0.7500000733108331  1.0000
  Fe  Fe1       1.0  0.9999999930570032  2.725245519216727e-08  0.9999999824280915  1.0000
  O   O1        1.0  0.240165879755639  0.2401657672695158  0.7598341927177575  1.0000
  O   O2        1.0  0.7598342336666525  0.7598341714723381  0.24016577538541076  1.0000
  O   O3        1.0  0.7598341786567151  0.24016578790705057  0.2401658733342131  1.0000
  O   O4        1.0  0.2401658091721568  0.7598341871714104  0.7598341876090255  1.0000
  O   O5        1.0  0.240165736142554  0.7598342059531854  0.24016582445145362  1.0000
  O   O6        1.0  0.759834235659169  0.2401658236301866  0.7598341338096385  1.0000
