data_image0
_chemical_formula_structural       Hg2FeS6
_chemical_formula_sum              "Hg2 Fe1 S6"
_cell_length_a       6.411136653186355
_cell_length_b       6.411141297655015
_cell_length_c       6.41114002681957
_cell_angle_alpha    59.999992510562755
_cell_angle_beta     59.99999173763512
_cell_angle_gamma    59.99999784461574

_space_group_name_H-M_alt    "P 1"
_space_group_IT_number       1

loop_
  _space_group_symop_operation_xyz
  'x, y, z'

loop_
  _atom_site_type_symbol
  _atom_site_label
  _atom_site_symmetry_multiplicity
  _atom_site_fract_x
  _atom_site_fract_y
  _atom_site_fract_z
  _atom_site_occupancy
  Hg  Hg1       1.0  0.2500003743057946  0.2499997564803265  0.25000005583550744  1.0000
  Hg  Hg2       1.0  0.7499996586218786  0.7500000259351961  0.7500000581508424  1.0000
  Fe  Fe1       1.0  0.9999998892753029  2.0249587145700053e-07  0.9999999665926637  1.0000
  S   S1        1.0  0.23931082220444405  0.2393102632364656  0.7606893537632311  1.0000
  S   S2        1.0  0.760689696345284  0.7606893969173756  0.23931046935802897  1.0000
  S   S3        1.0  0.7606894197999083  0.2393106196124  0.23931013641986149  1.0000
  S   S4        1.0  0.2393104199681773  0.7606895639742334  0.7606896536309866  1.0000
  S   S5        1.0  0.23931047891354731  0.7606895293788717  0.2393103772351364  1.0000
  S   S6        1.0  0.7606893634016996  0.23931064656635553  0.760689686765424  1.0000
