data_image0
_chemical_formula_structural       Hg2GeTe6
_chemical_formula_sum              "Hg2 Ge1 Te6"
_cell_length_a       7.372906711209967
_cell_length_b       7.3729070009402555
_cell_length_c       7.372907199436348
_cell_angle_alpha    60.0000006349928
_cell_angle_beta     59.999999419405654
_cell_angle_gamma    60.0000056600311

_space_group_name_H-M_alt    "P 1"
_space_group_IT_number       1

loop_
  _space_group_symop_operation_xyz
  'x, y, z'

loop_
  _atom_site_type_symbol
  _atom_site_label
  _atom_site_symmetry_multiplicity
  _atom_site_fract_x
  _atom_site_fract_y
  _atom_site_fract_z
  _atom_site_occupancy
  Hg  Hg1       1.0  0.24999999845260512  0.25000000655318527  0.24999996955151724  1.0000
  Hg  Hg2       1.0  0.7500000106093989  0.7499999316190108  0.7500000196464712  1.0000
  Ge  Ge1       1.0  0.9999999438415487  0.9999999335542968  0.9999996435564137  1.0000
  Te  Te1       1.0  0.2801752269530703  0.2801753263922232  0.7198247151234766  1.0000
  Te  Te2       1.0  0.7198248635454365  0.719824776233073  0.2801750955207129  1.0000
  Te  Te3       1.0  0.7198243462692652  0.2801756202250782  0.28017543640664244  1.0000
  Te  Te4       1.0  0.28017520765650933  0.7198246966875604  0.7198248608963383  1.0000
  Te  Te5       1.0  0.28017567185465014  0.719824480793655  0.2801753647505263  1.0000
  Te  Te6       1.0  0.7198247072318222  0.28017521651291893  0.7198249111541657  1.0000
