data_image0
_chemical_formula_structural       Hg2GeO6
_chemical_formula_sum              "Hg2 Ge1 O6"
_cell_length_a       5.395704405887858
_cell_length_b       5.395703952480691
_cell_length_c       5.395704295073222
_cell_angle_alpha    60.000004496874226
_cell_angle_beta     60.00000408092721
_cell_angle_gamma    60.00000552537901

_space_group_name_H-M_alt    "P 1"
_space_group_IT_number       1

loop_
  _space_group_symop_operation_xyz
  'x, y, z'

loop_
  _atom_site_type_symbol
  _atom_site_label
  _atom_site_symmetry_multiplicity
  _atom_site_fract_x
  _atom_site_fract_y
  _atom_site_fract_z
  _atom_site_occupancy
  Hg  Hg1       1.0  0.2500000646933057  0.2499998941048291  0.2499999954690759  1.0000
  Hg  Hg2       1.0  0.7499999979900787  0.750000052300315  0.7499999031658988  1.0000
  Ge  Ge1       1.0  0.9999998748616314  1.5888953085071042e-08  0.9999999971715939  1.0000
  O   O1        1.0  0.2512548717611459  0.25125486260920227  0.748745143447542  1.0000
  O   O2        1.0  0.748745173820402  0.7487452699237943  0.25125482079385364  1.0000
  O   O3        1.0  0.7487451409124114  0.2512547947816761  0.2512548600262287  1.0000
  O   O4        1.0  0.2512548440805825  0.748745185671243  0.748745097496577  1.0000
  O   O5        1.0  0.2512547081179318  0.7487451957169318  0.25125494542399257  1.0000
  O   O6        1.0  0.7487452408616162  0.25125480289481394  0.7487452508385684  1.0000
