data_image0
_chemical_formula_structural       Hg2GeS6
_chemical_formula_sum              "Hg2 Ge1 S6"
_cell_length_a       6.46989309883549
_cell_length_b       6.469893306455527
_cell_length_c       6.469892384594859
_cell_angle_alpha    60.000004155571794
_cell_angle_beta     60.00000670246772
_cell_angle_gamma    59.99999918020727

_space_group_name_H-M_alt    "P 1"
_space_group_IT_number       1

loop_
  _space_group_symop_operation_xyz
  'x, y, z'

loop_
  _atom_site_type_symbol
  _atom_site_label
  _atom_site_symmetry_multiplicity
  _atom_site_fract_x
  _atom_site_fract_y
  _atom_site_fract_z
  _atom_site_occupancy
  Hg  Hg1       1.0  0.24999990816572878  0.24999992999688203  0.25000005899799377  1.0000
  Hg  Hg2       1.0  0.7500000258594891  0.7500000531163483  0.749999956574815  1.0000
  Ge  Ge1       1.0  0.9999999447816648  0.9999999943210321  0.9999999377114045  1.0000
  S   S1        1.0  0.2545788670824844  0.25457875319818585  0.7454212155843797  1.0000
  S   S2        1.0  0.7454211483010006  0.7454212374870036  0.2545787493408349  1.0000
  S   S3        1.0  0.7454211988550213  0.254578809899626  0.25457885165927446  1.0000
  S   S4        1.0  0.2545786624075929  0.7454213700846484  0.7454211714122461  1.0000
  S   S5        1.0  0.25457879336292116  0.7454212103703849  0.2545788546949131  1.0000
  S   S6        1.0  0.7454214500360078  0.25457861562459194  0.7454212223104226  1.0000
