data_image0
_chemical_formula_structural       Hg2GeSe6
_chemical_formula_sum              "Hg2 Ge1 Se6"
_cell_length_a       6.702421943495909
_cell_length_b       6.702421414254472
_cell_length_c       6.702421181159871
_cell_angle_alpha    60.000000314614574
_cell_angle_beta     60.000001120388575
_cell_angle_gamma    59.99999954891517

_space_group_name_H-M_alt    "P 1"
_space_group_IT_number       1

loop_
  _space_group_symop_operation_xyz
  'x, y, z'

loop_
  _atom_site_type_symbol
  _atom_site_label
  _atom_site_symmetry_multiplicity
  _atom_site_fract_x
  _atom_site_fract_y
  _atom_site_fract_z
  _atom_site_occupancy
  Hg  Hg1       1.0  0.24999998145326216  0.24999997899700793  0.2500000220692044  1.0000
  Hg  Hg2       1.0  0.749999984730831  0.7500000484573628  0.7499999201650068  1.0000
  Ge  Ge1       1.0  0.9999999716348388  0.9999999817268296  5.912712211874163e-08  1.0000
  Se  Se1       1.0  0.2971003117115129  0.2971003166909395  0.7028995584567378  1.0000
  Se  Se2       1.0  0.7028997908015828  0.7028996687351402  0.29710025009122254  1.0000
  Se  Se3       1.0  0.7028997006633573  0.2971002293994727  0.29710029753762096  1.0000
  Se  Se4       1.0  0.2971003319818941  0.7028996555241701  0.7028997916472397  1.0000
  Se  Se5       1.0  0.2971002597923579  0.702899764956718  0.2971002467820965  1.0000
  Se  Se6       1.0  0.7028996926599559  0.29710035020886993  0.7028998449621644  1.0000
