data_image0
_chemical_formula_structural       Hg2GeO6
_chemical_formula_sum              "Hg2 Ge1 O6"
_cell_length_a       5.396548670827276
_cell_length_b       5.396548734379953
_cell_length_c       5.396548745259528
_cell_angle_alpha    60.00000022020608
_cell_angle_beta     59.99999782801914
_cell_angle_gamma    59.9999973817099

_space_group_name_H-M_alt    "P 1"
_space_group_IT_number       1

loop_
  _space_group_symop_operation_xyz
  'x, y, z'

loop_
  _atom_site_type_symbol
  _atom_site_label
  _atom_site_symmetry_multiplicity
  _atom_site_fract_x
  _atom_site_fract_y
  _atom_site_fract_z
  _atom_site_occupancy
  Hg  Hg1       1.0  0.24999991511533992  0.24999993988875344  0.25000003966247175  1.0000
  Hg  Hg2       1.0  0.7499999680455308  0.7499999603750415  0.7500000725549067  1.0000
  Ge  Ge1       1.0  0.9999999248731133  0.9999999750355394  0.9999999796303003  1.0000
  O   O1        1.0  0.2513032664611048  0.2513033869434615  0.7486966566381822  1.0000
  O   O2        1.0  0.7486966861379546  0.7486967992768964  0.2513031944951927  1.0000
  O   O3        1.0  0.7486967463374462  0.2513033019959456  0.2513032498215192  1.0000
  O   O4        1.0  0.25130340264337414  0.7486966096153254  0.7486968146109151  1.0000
  O   O5        1.0  0.25130337596274227  0.7486966320068458  0.2513032942086989  1.0000
  O   O6        1.0  0.7486967491549588  0.2513034089657287  0.7486966581774863  1.0000
