data_image0
_chemical_formula_structural       Hg2GeTe6
_chemical_formula_sum              "Hg2 Ge1 Te6"
_cell_length_a       7.3745794683137404
_cell_length_b       7.3745809112813205
_cell_length_c       7.374585671686374
_cell_angle_alpha    59.9999807559708
_cell_angle_beta     59.99998371551991
_cell_angle_gamma    60.00002292046165

_space_group_name_H-M_alt    "P 1"
_space_group_IT_number       1

loop_
  _space_group_symop_operation_xyz
  'x, y, z'

loop_
  _atom_site_type_symbol
  _atom_site_label
  _atom_site_symmetry_multiplicity
  _atom_site_fract_x
  _atom_site_fract_y
  _atom_site_fract_z
  _atom_site_occupancy
  Hg  Hg1       1.0  0.24999925253323846  0.249999031891663  0.2500003851320708  1.0000
  Hg  Hg2       1.0  0.7500006834685753  0.7500008224337041  0.7500012638519763  1.0000
  Ge  Ge1       1.0  1.637075615038988e-06  0.9999985601169608  0.9999983080939806  1.0000
  Te  Te1       1.0  0.28010331188048965  0.28010437306989255  0.7198961468696322  1.0000
  Te  Te2       1.0  0.7198956245639834  0.7198955393819606  0.28010306554778025  1.0000
  Te  Te3       1.0  0.719895854193854  0.2801044905403298  0.2801059084524938  1.0000
  Te  Te4       1.0  0.28010234804165673  0.7198962904915283  0.719896832913582  1.0000
  Te  Te5       1.0  0.2801042352367988  0.7198968920492705  0.2801035440225796  1.0000
  Te  Te6       1.0  0.7198969684209487  0.28010373453254733  0.7198947743671117  1.0000
