data_image0
_chemical_formula_structural       Hg2GeSe6
_chemical_formula_sum              "Hg2 Ge1 Se6"
_cell_length_a       6.701654105855771
_cell_length_b       6.701654059374291
_cell_length_c       6.7016547008180725
_cell_angle_alpha    59.9999981936511
_cell_angle_beta     59.99999513282786
_cell_angle_gamma    59.999998652088706

_space_group_name_H-M_alt    "P 1"
_space_group_IT_number       1

loop_
  _space_group_symop_operation_xyz
  'x, y, z'

loop_
  _atom_site_type_symbol
  _atom_site_label
  _atom_site_symmetry_multiplicity
  _atom_site_fract_x
  _atom_site_fract_y
  _atom_site_fract_z
  _atom_site_occupancy
  Hg  Hg1       1.0  0.25000002455869275  0.250000073358734  0.24999996780829073  1.0000
  Hg  Hg2       1.0  0.7499999639471417  0.749999980670258  0.7500000197977287  1.0000
  Ge  Ge1       1.0  1.4537773421519077e-07  0.9999999360365862  1.7864164947440753e-07  1.0000
  Se  Se1       1.0  0.2970365588517892  0.29703646097097613  0.7029635483724921  1.0000
  Se  Se2       1.0  0.702963508637811  0.70296336644476  0.29703659810189  1.0000
  Se  Se3       1.0  0.7029632526271667  0.2970366139156016  0.297036616683469  1.0000
  Se  Se4       1.0  0.29703661605350956  0.702963308531494  0.7029633280110045  1.0000
  Se  Se5       1.0  0.29703654551544173  0.7029635076508365  0.29703658569144653  1.0000
  Se  Se6       1.0  0.7029633919241804  0.2970366944077793  0.7029631713882768  1.0000
