data_image0
_chemical_formula_structural       Hg2HfSe6
_chemical_formula_sum              "Hg2 Hf1 Se6"
_cell_length_a       6.659084538176184
_cell_length_b       6.659084613806921
_cell_length_c       6.6590844502190185
_cell_angle_alpha    60.00000084324884
_cell_angle_beta     59.99999757277311
_cell_angle_gamma    59.999999308536886

_space_group_name_H-M_alt    "P 1"
_space_group_IT_number       1

loop_
  _space_group_symop_operation_xyz
  'x, y, z'

loop_
  _atom_site_type_symbol
  _atom_site_label
  _atom_site_symmetry_multiplicity
  _atom_site_fract_x
  _atom_site_fract_y
  _atom_site_fract_z
  _atom_site_occupancy
  Hg  Hg1       1.0  0.25000001715591075  0.2499999461586167  0.25000006478157116  1.0000
  Hg  Hg2       1.0  0.7499999231469404  0.7500000205575442  0.750000018795179  1.0000
  Hf  Hf1       1.0  0.9999998449717497  0.9999999760902825  0.9999999362947773  1.0000
  Se  Se1       1.0  0.2783547387978637  0.2783546104444798  0.7216452698287278  1.0000
  Se  Se2       1.0  0.7216454092211433  0.7216452845425264  0.27835473674426975  1.0000
  Se  Se3       1.0  0.7216453445561024  0.27835472485186996  0.2783546197769292  1.0000
  Se  Se4       1.0  0.2783547098586605  0.7216452896837249  0.7216454038580569  1.0000
  Se  Se5       1.0  0.27835470773215387  0.7216453656573976  0.2783546109653238  1.0000
  Se  Se6       1.0  0.7216452986528015  0.2783548033717562  0.721645324898505  1.0000
