data_image0
_chemical_formula_structural       Hg2HfO6
_chemical_formula_sum              "Hg2 Hf1 O6"
_cell_length_a       5.4872388710970865
_cell_length_b       5.487238731302565
_cell_length_c       5.487239070935537
_cell_angle_alpha    60.000002029749105
_cell_angle_beta     60.00000155723779
_cell_angle_gamma    60.00000325176271

_space_group_name_H-M_alt    "P 1"
_space_group_IT_number       1

loop_
  _space_group_symop_operation_xyz
  'x, y, z'

loop_
  _atom_site_type_symbol
  _atom_site_label
  _atom_site_symmetry_multiplicity
  _atom_site_fract_x
  _atom_site_fract_y
  _atom_site_fract_z
  _atom_site_occupancy
  Hg  Hg1       1.0  0.25000005984651  0.25000004793117253  0.2499998359350058  1.0000
  Hg  Hg2       1.0  0.7499999850763038  0.7499997107879445  0.750000149573221  1.0000
  Hf  Hf1       1.0  8.419541858110564e-08  0.999999962056213  0.9999999386035723  1.0000
  O   O1        1.0  0.2670818061041582  0.2670818774868859  0.7329180861853944  1.0000
  O   O2        1.0  0.7329179664179581  0.7329182249583033  0.26708189281871153  1.0000
  O   O3        1.0  0.7329181169198835  0.26708196663502143  0.2670819341838969  1.0000
  O   O4        1.0  0.26708192287505855  0.7329180978663941  0.7329181251535699  1.0000
  O   O5        1.0  0.2670819476480589  0.7329180856610585  0.26708187463914074  1.0000
  O   O6        1.0  0.7329180614534586  0.2670819699124058  0.7329181953969626  1.0000
