data_image0
_chemical_formula_structural       Hg2HfTe6
_chemical_formula_sum              "Hg2 Hf1 Te6"
_cell_length_a       7.517552757274868
_cell_length_b       7.517553148746642
_cell_length_c       7.517553114999168
_cell_angle_alpha    59.9999972453474
_cell_angle_beta     60.00000155668073
_cell_angle_gamma    59.999996081258544

_space_group_name_H-M_alt    "P 1"
_space_group_IT_number       1

loop_
  _space_group_symop_operation_xyz
  'x, y, z'

loop_
  _atom_site_type_symbol
  _atom_site_label
  _atom_site_symmetry_multiplicity
  _atom_site_fract_x
  _atom_site_fract_y
  _atom_site_fract_z
  _atom_site_occupancy
  Hg  Hg1       1.0  0.2499999973575619  0.24999995934100455  0.25000002507385566  1.0000
  Hg  Hg2       1.0  0.7500000255053549  0.7500000311659574  0.7499999686315572  1.0000
  Hf  Hf1       1.0  4.705714662824904e-08  2.9325231934549262e-08  2.039088631814128e-07  1.0000
  Te  Te1       1.0  0.26948995756271943  0.26949003143162453  0.7305099773668232  1.0000
  Te  Te2       1.0  0.7305098798321648  0.7305099118291222  0.2694900329292052  1.0000
  Te  Te3       1.0  0.7305102747381352  0.2694898271039516  0.2694900580276073  1.0000
  Te  Te4       1.0  0.2694899492191476  0.7305100623938318  0.7305097552736523  1.0000
  Te  Te5       1.0  0.26948968372609894  0.7305102899263627  0.2694901037596413  1.0000
  Te  Te6       1.0  0.7305101904982074  0.26948987001535324  0.7305098715663723  1.0000
