data_image0
_chemical_formula_structural       Hg2HfS6
_chemical_formula_sum              "Hg2 Hf1 S6"
_cell_length_a       6.46050708283078
_cell_length_b       6.460506895655161
_cell_length_c       6.460507067473047
_cell_angle_alpha    60.000000317999614
_cell_angle_beta     60.000001076217245
_cell_angle_gamma    60.000000996712984

_space_group_name_H-M_alt    "P 1"
_space_group_IT_number       1

loop_
  _space_group_symop_operation_xyz
  'x, y, z'

loop_
  _atom_site_type_symbol
  _atom_site_label
  _atom_site_symmetry_multiplicity
  _atom_site_fract_x
  _atom_site_fract_y
  _atom_site_fract_z
  _atom_site_occupancy
  Hg  Hg1       1.0  0.24999982668358423  0.25000010828017294  0.2500001212202145  1.0000
  Hg  Hg2       1.0  0.7500000497945241  0.7500001276834443  0.7499998058794292  1.0000
  Hf  Hf1       1.0  1.8934769336270822e-07  5.687227032342921e-09  2.321609854777561e-08  1.0000
  S   S1        1.0  0.26972401290581394  0.26972395397711585  0.7302759703451585  1.0000
  S   S2        1.0  0.7302759659423116  0.7302759748764388  0.2697240560287734  1.0000
  S   S3        1.0  0.7302760806871371  0.2697239823021162  0.26972399936050284  1.0000
  S   S4        1.0  0.26972394899894614  0.7302760299640493  0.7302759877497363  1.0000
  S   S5        1.0  0.2697239514385144  0.7302758586215135  0.2697240444849492  1.0000
  S   S6        1.0  0.7302759842630366  0.26972395838331276  0.7302759773497287  1.0000
