data_image0
_chemical_formula_structural       Hg2IrSe6
_chemical_formula_sum              "Hg2 Ir1 Se6"
_cell_length_a       6.619793121273925
_cell_length_b       6.619792954414241
_cell_length_c       6.619792288587469
_cell_angle_alpha    60.00000811969832
_cell_angle_beta     60.00000314525463
_cell_angle_gamma    60.00000162473759

_space_group_name_H-M_alt    "P 1"
_space_group_IT_number       1

loop_
  _space_group_symop_operation_xyz
  'x, y, z'

loop_
  _atom_site_type_symbol
  _atom_site_label
  _atom_site_symmetry_multiplicity
  _atom_site_fract_x
  _atom_site_fract_y
  _atom_site_fract_z
  _atom_site_occupancy
  Hg  Hg1       1.0  0.25000001583236087  0.25000002738814736  0.2499999727918315  1.0000
  Hg  Hg2       1.0  0.749999993988677  0.7499999915082937  0.7499999889471475  1.0000
  Ir  Ir1       1.0  0.9999999420143597  2.220150695594213e-08  4.296475171568664e-09  1.0000
  Se  Se1       1.0  0.264088148747789  0.2640880013945781  0.7359120021685676  1.0000
  Se  Se2       1.0  0.7359117997047843  0.7359120341530024  0.26408812090624517  1.0000
  Se  Se3       1.0  0.7359120449533649  0.26408801292622924  0.2640880202640829  1.0000
  Se  Se4       1.0  0.2640880413545719  0.735911928264935  0.735911881659225  1.0000
  Se  Se5       1.0  0.26408803212698184  0.7359119285721342  0.2640881288416118  1.0000
  Se  Se6       1.0  0.7359119790514379  0.2640880496215467  0.7359118676762689  1.0000
