data_image0
_chemical_formula_structural       Hg2InS6
_chemical_formula_sum              "Hg2 In1 S6"
_cell_length_a       6.544824037862757
_cell_length_b       6.544823911693265
_cell_length_c       6.544823985204116
_cell_angle_alpha    60.000000928108584
_cell_angle_beta     59.999999758086304
_cell_angle_gamma    59.99999886098334

_space_group_name_H-M_alt    "P 1"
_space_group_IT_number       1

loop_
  _space_group_symop_operation_xyz
  'x, y, z'

loop_
  _atom_site_type_symbol
  _atom_site_label
  _atom_site_symmetry_multiplicity
  _atom_site_fract_x
  _atom_site_fract_y
  _atom_site_fract_z
  _atom_site_occupancy
  Hg  Hg1       1.0  0.24999989645370094  0.25000004192219816  0.25000005177311024  1.0000
  Hg  Hg2       1.0  0.7500000230821401  0.7500000191014462  0.74999996997891  1.0000
  In  In1       1.0  0.9999999041745514  5.98821874633036e-08  7.450485546906622e-08  1.0000
  S   S1        1.0  0.27793020356466586  0.27793003854892373  0.7220699134251032  1.0000
  S   S2        1.0  0.7220699463846426  0.7220698128870717  0.27793024153895235  1.0000
  S   S3        1.0  0.7220699000286463  0.277930256888717  0.27792992565309904  1.0000
  S   S4        1.0  0.2779301350945386  0.7220698490465607  0.7220697805489873  1.0000
  S   S5        1.0  0.27793004224405987  0.7220699015324499  0.2779301819162561  1.0000
  S   S6        1.0  0.7220699549055868  0.2779300060430939  0.7220698731691352  1.0000
