data_image0
_chemical_formula_structural       Hg2InTe6
_chemical_formula_sum              "Hg2 In1 Te6"
_cell_length_a       7.533618101654635
_cell_length_b       7.533615550277158
_cell_length_c       7.533616565894534
_cell_angle_alpha    60.00000045736731
_cell_angle_beta     60.00000807003054
_cell_angle_gamma    60.00000381424816

_space_group_name_H-M_alt    "P 1"
_space_group_IT_number       1

loop_
  _space_group_symop_operation_xyz
  'x, y, z'

loop_
  _atom_site_type_symbol
  _atom_site_label
  _atom_site_symmetry_multiplicity
  _atom_site_fract_x
  _atom_site_fract_y
  _atom_site_fract_z
  _atom_site_occupancy
  Hg  Hg1       1.0  0.2500001503926152  0.24999989192367236  0.2500001083840604  1.0000
  Hg  Hg2       1.0  0.7499999967563531  0.7500000090408235  0.7500000432630316  1.0000
  In  In1       1.0  1.0362543133987637e-07  0.9999997902838638  3.092304040834214e-07  1.0000
  Te  Te1       1.0  0.2785718109005294  0.2785722702664644  0.72142791337364  1.0000
  Te  Te2       1.0  0.7214285093671847  0.7214277688830977  0.2785717905971338  1.0000
  Te  Te3       1.0  0.7214280948316012  0.278572150464599  0.27857191259822855  1.0000
  Te  Te4       1.0  0.2785717841346937  0.7214278285337901  0.721428288992207  1.0000
  Te  Te5       1.0  0.27857161445141465  0.7214280255397252  0.27857192329621583  1.0000
  Te  Te6       1.0  0.7214279243362547  0.2785722704714018  0.7214277124652528  1.0000
