data_image0
_chemical_formula_structural       Hg2InSe6
_chemical_formula_sum              "Hg2 In1 Se6"
_cell_length_a       6.800814513397504
_cell_length_b       6.800814204339754
_cell_length_c       6.80081395918605
_cell_angle_alpha    59.99999154892334
_cell_angle_beta     59.99999766092979
_cell_angle_gamma    59.999994905217434

_space_group_name_H-M_alt    "P 1"
_space_group_IT_number       1

loop_
  _space_group_symop_operation_xyz
  'x, y, z'

loop_
  _atom_site_type_symbol
  _atom_site_label
  _atom_site_symmetry_multiplicity
  _atom_site_fract_x
  _atom_site_fract_y
  _atom_site_fract_z
  _atom_site_occupancy
  Hg  Hg1       1.0  0.2499998729712471  0.2500000580973228  0.250000133248157  1.0000
  Hg  Hg2       1.0  0.7499997894409435  0.7500001058585364  0.7500002869402707  1.0000
  In  In1       1.0  2.508781416645388e-07  0.9999998433234368  4.9946419619120006e-08  1.0000
  Se  Se1       1.0  0.2980332220685033  0.2980337853254775  0.7019660251785652  1.0000
  Se  Se2       1.0  0.7019664601619471  0.7019668234478331  0.2980330010663143  1.0000
  Se  Se3       1.0  0.7019663112273926  0.2980337003577788  0.29803375063712506  1.0000
  Se  Se4       1.0  0.2980334356963712  0.7019667805529437  0.7019665511611429  1.0000
  Se  Se5       1.0  0.29803389685271375  0.701965804932015  0.2980336679655764  1.0000
  Se  Se6       1.0  0.701966768945874  0.29803308580175775  0.7019665415938773  1.0000
