data_image0
_chemical_formula_structural       Hg2MnO6
_chemical_formula_sum              "Hg2 Mn1 O6"
_cell_length_a       5.388528134108211
_cell_length_b       5.388528066379383
_cell_length_c       5.388527852695348
_cell_angle_alpha    60.000001154989725
_cell_angle_beta     59.99999993933807
_cell_angle_gamma    60.000000960742746

_space_group_name_H-M_alt    "P 1"
_space_group_IT_number       1

loop_
  _space_group_symop_operation_xyz
  'x, y, z'

loop_
  _atom_site_type_symbol
  _atom_site_label
  _atom_site_symmetry_multiplicity
  _atom_site_fract_x
  _atom_site_fract_y
  _atom_site_fract_z
  _atom_site_occupancy
  Hg  Hg1       1.0  0.24999994089093566  0.2500000176346157  0.25000004000966175  1.0000
  Hg  Hg2       1.0  0.7500000571796772  0.7499999665346139  0.7499999884305363  1.0000
  Mn  Mn1       1.0  2.3549454166193413e-08  3.8638867657751246e-08  0.999999846423406  1.0000
  O   O1        1.0  0.24800739445796627  0.24800740913688366  0.751992640451632  1.0000
  O   O2        1.0  0.7519925868372136  0.7519925932153427  0.24800741512170071  1.0000
  O   O3        1.0  0.7519926326560602  0.24800738631551453  0.24800743221972596  1.0000
  O   O4        1.0  0.24800735985120367  0.7519926274010845  0.7519925508241619  1.0000
  O   O5        1.0  0.24800740580840808  0.7519926453472263  0.24800742790899152  1.0000
  O   O6        1.0  0.7519925907469546  0.24800734336775251  0.751992624997079  1.0000
