data_image0
_chemical_formula_structural       Hg2MnO6
_chemical_formula_sum              "Hg2 Mn1 O6"
_cell_length_a       5.3883948118600475
_cell_length_b       5.388395050881612
_cell_length_c       5.388394728364652
_cell_angle_alpha    60.00000356439124
_cell_angle_beta     59.999996739496616
_cell_angle_gamma    59.9999974238152

_space_group_name_H-M_alt    "P 1"
_space_group_IT_number       1

loop_
  _space_group_symop_operation_xyz
  'x, y, z'

loop_
  _atom_site_type_symbol
  _atom_site_label
  _atom_site_symmetry_multiplicity
  _atom_site_fract_x
  _atom_site_fract_y
  _atom_site_fract_z
  _atom_site_occupancy
  Hg  Hg1       1.0  0.25000001714861914  0.24999996228581714  0.25000002021815093  1.0000
  Hg  Hg2       1.0  0.7500000144513107  0.7499999914122624  0.7499999879016773  1.0000
  Mn  Mn1       1.0  3.6767271882486235e-10  1.81834435749409e-08  0.9999999387609141  1.0000
  O   O1        1.0  0.24801405740104748  0.24801400760783357  0.7519859803992861  1.0000
  O   O2        1.0  0.7519859769471677  0.7519859892759309  0.2480140771313285  1.0000
  O   O3        1.0  0.7519858853389555  0.24801404168988564  0.24801408587254925  1.0000
  O   O4        1.0  0.24801404636352653  0.75198601883594  0.7519859150704532  1.0000
  O   O5        1.0  0.24801407182475102  0.751985993506687  0.24801401300088555  1.0000
  O   O6        1.0  0.7519859357905647  0.24801401928759026  0.7519859552930687  1.0000
