data_image0
_chemical_formula_structural       Hg2MgS6
_chemical_formula_sum              "Hg2 Mg1 S6"
_cell_length_a       6.477155172109363
_cell_length_b       6.477155001660238
_cell_length_c       6.477155234959195
_cell_angle_alpha    60.000001681059615
_cell_angle_beta     59.99999987052559
_cell_angle_gamma    60.00000251862388

_space_group_name_H-M_alt    "P 1"
_space_group_IT_number       1

loop_
  _space_group_symop_operation_xyz
  'x, y, z'

loop_
  _atom_site_type_symbol
  _atom_site_label
  _atom_site_symmetry_multiplicity
  _atom_site_fract_x
  _atom_site_fract_y
  _atom_site_fract_z
  _atom_site_occupancy
  Hg  Hg1       1.0  0.2499997866797178  0.2500000446653563  0.2500001028568394  1.0000
  Hg  Hg2       1.0  0.7499999874915244  0.7499998881831748  0.7500000220297407  1.0000
  Mg  Mg1       1.0  0.9999999260615842  1.3236081705569506e-08  1.5386217953438201e-07  1.0000
  S   S1        1.0  0.2719706618931107  0.27197081677885315  0.7280292569329704  1.0000
  S   S2        1.0  0.728029258279466  0.728029250321347  0.27197077723151597  1.0000
  S   S3        1.0  0.7280292703604172  0.2719709037541104  0.2719706414008863  1.0000
  S   S4        1.0  0.2719706880403558  0.7280292465443059  0.7280293598403734  1.0000
  S   S5        1.0  0.2719708500516596  0.728029201769382  0.2719706160672314  1.0000
  S   S6        1.0  0.728029569630888  0.27197062897226004  0.728029078096711  1.0000
