data_image0
_chemical_formula_structural       Hg2MoS6
_chemical_formula_sum              "Hg2 Mo1 S6"
_cell_length_a       6.528825683346662
_cell_length_b       6.528825470587604
_cell_length_c       6.528825706714139
_cell_angle_alpha    59.99999534635237
_cell_angle_beta     59.999999154764716
_cell_angle_gamma    60.00000194627318

_space_group_name_H-M_alt    "P 1"
_space_group_IT_number       1

loop_
  _space_group_symop_operation_xyz
  'x, y, z'

loop_
  _atom_site_type_symbol
  _atom_site_label
  _atom_site_symmetry_multiplicity
  _atom_site_fract_x
  _atom_site_fract_y
  _atom_site_fract_z
  _atom_site_occupancy
  Hg  Hg1       1.0  0.2499999376878319  0.24999999221629637  0.2500000480717798  1.0000
  Hg  Hg2       1.0  0.7499999875130708  0.7500000104151706  0.7499999956890082  1.0000
  Mo  Mo1       1.0  3.542759951576901e-08  0.999999904328899  1.419335907150175e-07  1.0000
  S   S1        1.0  0.24944542798104646  0.24944536484989477  0.7505547034168526  1.0000
  S   S2        1.0  0.7505545311607251  0.7505547747225555  0.249445348334815  1.0000
  S   S3        1.0  0.7505547331541564  0.249445375855211  0.24944542165477418  1.0000
  S   S4        1.0  0.24944568347775614  0.7505543303834733  0.7505543591666521  1.0000
  S   S5        1.0  0.24944540872333598  0.7505546562950192  0.2494454624115264  1.0000
  S   S6        1.0  0.7505542508228951  0.24944561271478918  0.7505545120623158  1.0000
