data_image0
_chemical_formula_structural       Hg2MnTe6
_chemical_formula_sum              "Hg2 Mn1 Te6"
_cell_length_a       7.081683084434552
_cell_length_b       7.081683920404346
_cell_length_c       7.081683174833872
_cell_angle_alpha    60.00000746654908
_cell_angle_beta     60.00000337383724
_cell_angle_gamma    60.00001732644741

_space_group_name_H-M_alt    "P 1"
_space_group_IT_number       1

loop_
  _space_group_symop_operation_xyz
  'x, y, z'

loop_
  _atom_site_type_symbol
  _atom_site_label
  _atom_site_symmetry_multiplicity
  _atom_site_fract_x
  _atom_site_fract_y
  _atom_site_fract_z
  _atom_site_occupancy
  Hg  Hg1       1.0  0.2500000375451224  0.2499999369660741  0.24999999956656405  1.0000
  Hg  Hg2       1.0  0.7499999840002686  0.7500000011381553  0.7500000399140541  1.0000
  Mn  Mn1       1.0  0.9999998984455895  0.9999999671403653  2.3807035304153638e-07  1.0000
  Te  Te1       1.0  0.2507352831500751  0.25073537340714214  0.7492644231318996  1.0000
  Te  Te2       1.0  0.7492643996375311  0.7492645439435831  0.25073538236090653  1.0000
  Te  Te3       1.0  0.7492644518351717  0.250735793249187  0.2507354376957716  1.0000
  Te  Te4       1.0  0.2507358379419532  0.7492642157626956  0.7492645282375324  1.0000
  Te  Te5       1.0  0.25073580389829697  0.7492642851425169  0.25073546841375993  1.0000
  Te  Te6       1.0  0.7492643066148812  0.2507358898969323  0.7492644744837668  1.0000
