data_image0
_chemical_formula_structural       Hg2MoSe6
_chemical_formula_sum              "Hg2 Mo1 Se6"
_cell_length_a       6.83816502590527
_cell_length_b       6.838165171162219
_cell_length_c       6.838164807489556
_cell_angle_alpha    60.0000004584545
_cell_angle_beta     60.000002884796196
_cell_angle_gamma    60.00000049861801

_space_group_name_H-M_alt    "P 1"
_space_group_IT_number       1

loop_
  _space_group_symop_operation_xyz
  'x, y, z'

loop_
  _atom_site_type_symbol
  _atom_site_label
  _atom_site_symmetry_multiplicity
  _atom_site_fract_x
  _atom_site_fract_y
  _atom_site_fract_z
  _atom_site_occupancy
  Hg  Hg1       1.0  0.25000000684296114  0.24999999949918994  0.24999999727772695  1.0000
  Hg  Hg2       1.0  0.7499999937159598  0.7499999877513116  0.7499999916018228  1.0000
  Mo  Mo1       1.0  0.9999999783377659  1.4328347352497065e-08  0.9999998998379157  1.0000
  Se  Se1       1.0  0.25054713104965637  0.2505471863715493  0.7494528967632159  1.0000
  Se  Se2       1.0  0.7494529067260061  0.749452856401286  0.2505471773610559  1.0000
  Se  Se3       1.0  0.7494529128070245  0.2505470650086544  0.250547085995115  1.0000
  Se  Se4       1.0  0.2505469862976181  0.7494529885104423  0.7494529672734555  1.0000
  Se  Se5       1.0  0.25054708290819405  0.7494529294634227  0.25054702035970206  1.0000
  Se  Se6       1.0  0.7494530026286157  0.2505469700259657  0.7494529625995585  1.0000
