data_image0
_chemical_formula_structural       Hg2MnS6
_chemical_formula_sum              "Hg2 Mn1 S6"
_cell_length_a       6.575466099809154
_cell_length_b       6.575464988527667
_cell_length_c       6.57546542992805
_cell_angle_alpha    60.000003972345255
_cell_angle_beta     60.00000262051079
_cell_angle_gamma    60.00000911085768

_space_group_name_H-M_alt    "P 1"
_space_group_IT_number       1

loop_
  _space_group_symop_operation_xyz
  'x, y, z'

loop_
  _atom_site_type_symbol
  _atom_site_label
  _atom_site_symmetry_multiplicity
  _atom_site_fract_x
  _atom_site_fract_y
  _atom_site_fract_z
  _atom_site_occupancy
  Hg  Hg1       1.0  0.24999995104202663  0.24999991139904146  0.25000003876826216  1.0000
  Hg  Hg2       1.0  0.7500000257476899  0.7500000750525803  0.7499998732535128  1.0000
  Mn  Mn1       1.0  4.452583615508597e-09  0.9999999813740215  2.229474549655975e-08  1.0000
  S   S1        1.0  0.23798010853051374  0.23798000747815942  0.7620200536907064  1.0000
  S   S2        1.0  0.7620199667575565  0.7620200627904029  0.23798003179347596  1.0000
  S   S3        1.0  0.7620199092422741  0.23798014339529946  0.2379801252869188  1.0000
  S   S4        1.0  0.23798017582143546  0.7620198132547659  0.7620197490194405  1.0000
  S   S5        1.0  0.2379801393773478  0.7620197079270384  0.2379803314888236  1.0000
  S   S6        1.0  0.762019706132914  0.23798025617339924  0.7620197425133443  1.0000
