data_image0
_chemical_formula_structural       Hg2MnS6
_chemical_formula_sum              "Hg2 Mn1 S6"
_cell_length_a       6.57387782269289
_cell_length_b       6.573877978342337
_cell_length_c       6.5738776946851205
_cell_angle_alpha    59.99999685682642
_cell_angle_beta     59.999998678702696
_cell_angle_gamma    60.00000066459661

_space_group_name_H-M_alt    "P 1"
_space_group_IT_number       1

loop_
  _space_group_symop_operation_xyz
  'x, y, z'

loop_
  _atom_site_type_symbol
  _atom_site_label
  _atom_site_symmetry_multiplicity
  _atom_site_fract_x
  _atom_site_fract_y
  _atom_site_fract_z
  _atom_site_occupancy
  Hg  Hg1       1.0  0.24999995849956178  0.25000017889710796  0.24999997259804055  1.0000
  Hg  Hg2       1.0  0.7500001380604477  0.749999970324798  0.7499999921167367  1.0000
  Mn  Mn1       1.0  7.403773720076898e-08  7.82480072271013e-08  0.999999984704012  1.0000
  S   S1        1.0  0.23808353584789402  0.23808354555457822  0.7619164027118146  1.0000
  S   S2        1.0  0.761916345536628  0.7619163428406353  0.23808365701387824  1.0000
  S   S3        1.0  0.7619164088792507  0.23808356385213025  0.23808358422791875  1.0000
  S   S4        1.0  0.23808352274958625  0.7619164530933832  0.7619163921851502  1.0000
  S   S5        1.0  0.23808358110388203  0.7619164092744285  0.23808354531596002  1.0000
  S   S6        1.0  0.7619164790172727  0.23808350147736318  0.7619164092996075  1.0000
