data_image0
_chemical_formula_structural       Hg2MgO6
_chemical_formula_sum              "Hg2 Mg1 O6"
_cell_length_a       5.314215144033685
_cell_length_b       5.314215282671496
_cell_length_c       5.314215071450396
_cell_angle_alpha    60.000000403614635
_cell_angle_beta     59.99999917860395
_cell_angle_gamma    60.000000415552826

_space_group_name_H-M_alt    "P 1"
_space_group_IT_number       1

loop_
  _space_group_symop_operation_xyz
  'x, y, z'

loop_
  _atom_site_type_symbol
  _atom_site_label
  _atom_site_symmetry_multiplicity
  _atom_site_fract_x
  _atom_site_fract_y
  _atom_site_fract_z
  _atom_site_occupancy
  Hg  Hg1       1.0  0.2499999832552546  0.2500000243345013  0.24999997782842498  1.0000
  Hg  Hg2       1.0  0.749999992895237  0.7499999762078687  0.7500000374699194  1.0000
  Mg  Mg1       1.0  0.9999999493653641  3.4569868765193155e-08  1.604537648217121e-07  1.0000
  O   O1        1.0  0.26572415235029756  0.2657241129023098  0.7342758796497523  1.0000
  O   O2        1.0  0.7342758667526353  0.7342758761167705  0.26572410864354323  1.0000
  O   O3        1.0  0.7342759402154708  0.26572410685170206  0.2657240726908565  1.0000
  O   O4        1.0  0.26572416926985526  0.734275852206825  0.7342758063582098  1.0000
  O   O5        1.0  0.26572409389202134  0.7342758617064067  0.2657241366428908  1.0000
  O   O6        1.0  0.734275861539163  0.2657241618825435  0.7342758172759629  1.0000
