data_image0
_chemical_formula_structural       Hg2MnSe6
_chemical_formula_sum              "Hg2 Mn1 Se6"
_cell_length_a       6.752328309198422
_cell_length_b       6.752328030609946
_cell_length_c       6.7523282516019085
_cell_angle_alpha    59.999999519206305
_cell_angle_beta     59.99999927162536
_cell_angle_gamma    59.99999905291745

_space_group_name_H-M_alt    "P 1"
_space_group_IT_number       1

loop_
  _space_group_symop_operation_xyz
  'x, y, z'

loop_
  _atom_site_type_symbol
  _atom_site_label
  _atom_site_symmetry_multiplicity
  _atom_site_fract_x
  _atom_site_fract_y
  _atom_site_fract_z
  _atom_site_occupancy
  Hg  Hg1       1.0  0.2500000036808471  0.24999999022862235  0.25000001474272426  1.0000
  Hg  Hg2       1.0  0.7499999931296945  0.7499999833825459  0.7500000261026677  1.0000
  Mn  Mn1       1.0  0.9999999522393588  0.9999999637237741  4.3499404377278964e-08  1.0000
  Se  Se1       1.0  0.24512370960024432  0.2451236709006601  0.7548763265268463  1.0000
  Se  Se2       1.0  0.754876331740452  0.7548763589386582  0.24512366838230498  1.0000
  Se  Se3       1.0  0.7548763095192711  0.24512369232918818  0.24512366770175684  1.0000
  Se  Se4       1.0  0.2451236517411813  0.7548763520206198  0.7548762903866515  1.0000
  Se  Se5       1.0  0.24512370563830074  0.7548763085061613  0.24512368997997028  1.0000
  Se  Se6       1.0  0.7548763434763095  0.24512367236025207  0.7548763166428526  1.0000
