data_image0
_chemical_formula_structural       Hg2MnSe6
_chemical_formula_sum              "Hg2 Mn1 Se6"
_cell_length_a       6.75198654895425
_cell_length_b       6.751986427121652
_cell_length_c       6.751986655048011
_cell_angle_alpha    59.999997255984475
_cell_angle_beta     60.00000080547467
_cell_angle_gamma    59.999999116388295

_space_group_name_H-M_alt    "P 1"
_space_group_IT_number       1

loop_
  _space_group_symop_operation_xyz
  'x, y, z'

loop_
  _atom_site_type_symbol
  _atom_site_label
  _atom_site_symmetry_multiplicity
  _atom_site_fract_x
  _atom_site_fract_y
  _atom_site_fract_z
  _atom_site_occupancy
  Hg  Hg1       1.0  0.24999996052092108  0.24999991682670286  0.250000098148273  1.0000
  Hg  Hg2       1.0  0.750000020047403  0.7499999917292229  0.7500000586655273  1.0000
  Mn  Mn1       1.0  1.0675939509201492e-08  0.999999978233164  0.99999995815199  1.0000
  Se  Se1       1.0  0.2451275156509675  0.24512759264578618  0.7548724874946736  1.0000
  Se  Se2       1.0  0.7548723509201376  0.7548725245089961  0.24512758647321053  1.0000
  Se  Se3       1.0  0.7548724688578761  0.24512752439727156  0.24512751142689965  1.0000
  Se  Se4       1.0  0.24512754071203818  0.754872507504069  0.7548724033362919  1.0000
  Se  Se5       1.0  0.24512759722037103  0.7548725176466367  0.24512748219670497  1.0000
  Se  Se6       1.0  0.7548725095532817  0.24512746890712622  0.7548724510697755  1.0000
