data_image0
_chemical_formula_structural       Hg2NbSe6
_chemical_formula_sum              "Hg2 Nb1 Se6"
_cell_length_a       6.766538868707483
_cell_length_b       6.7665388280838314
_cell_length_c       6.766539293326716
_cell_angle_alpha    59.999999244566126
_cell_angle_beta     59.999996692130296
_cell_angle_gamma    60.00000107174249

_space_group_name_H-M_alt    "P 1"
_space_group_IT_number       1

loop_
  _space_group_symop_operation_xyz
  'x, y, z'

loop_
  _atom_site_type_symbol
  _atom_site_label
  _atom_site_symmetry_multiplicity
  _atom_site_fract_x
  _atom_site_fract_y
  _atom_site_fract_z
  _atom_site_occupancy
  Hg  Hg1       1.0  0.25000008774000687  0.24999995746486536  0.2499999813886166  1.0000
  Hg  Hg2       1.0  0.7499999617220054  0.7499999628946886  0.7500000762663009  1.0000
  Nb  Nb1       1.0  3.5528707843892066e-08  0.9999998370998212  0.9999999986598788  1.0000
  Se  Se1       1.0  0.26061704409736014  0.2606170294023002  0.7393829515008966  1.0000
  Se  Se2       1.0  0.739383036631462  0.7393829814573519  0.26061696546611  1.0000
  Se  Se3       1.0  0.7393829446976778  0.2606170753836876  0.2606170440473253  1.0000
  Se  Se4       1.0  0.2606169325599328  0.7393831056161465  0.7393829250538474  1.0000
  Se  Se5       1.0  0.26061713434864814  0.7393828815627421  0.26061709746639455  1.0000
  Se  Se6       1.0  0.7393828170657583  0.26061716911695304  0.7393829765651849  1.0000
