data_image0
_chemical_formula_structural       Hg2NiO6
_chemical_formula_sum              "Hg2 Ni1 O6"
_cell_length_a       5.252734727265079
_cell_length_b       5.252734695864022
_cell_length_c       5.252734792591008
_cell_angle_alpha    60.000000927300306
_cell_angle_beta     60.00000068781384
_cell_angle_gamma    60.00000322224861

_space_group_name_H-M_alt    "P 1"
_space_group_IT_number       1

loop_
  _space_group_symop_operation_xyz
  'x, y, z'

loop_
  _atom_site_type_symbol
  _atom_site_label
  _atom_site_symmetry_multiplicity
  _atom_site_fract_x
  _atom_site_fract_y
  _atom_site_fract_z
  _atom_site_occupancy
  Hg  Hg1       1.0  0.25000007462866936  0.2500000212656261  0.2499999367963847  1.0000
  Hg  Hg2       1.0  0.7500001048472349  0.7499999658682959  0.749999819876779  1.0000
  Ni  Ni1       1.0  0.9999999693573653  0.9999999930051005  0.9999999997810647  1.0000
  O   O1        1.0  0.24306799216970074  0.24306818364403315  0.7569318402907328  1.0000
  O   O2        1.0  0.7569319040589194  0.7569319014184607  0.24306825653191239  1.0000
  O   O3        1.0  0.7569318306980733  0.24306819621392953  0.24306815236123824  1.0000
  O   O4        1.0  0.24306813698819005  0.7569317536138642  0.7569319535046921  1.0000
  O   O5        1.0  0.24306816620732333  0.7569318797010827  0.24306809887057965  1.0000
  O   O6        1.0  0.7569317991244294  0.24306811675936632  0.7569319429733342  1.0000
