data_image0
_chemical_formula_structural       Hg2NiS6
_chemical_formula_sum              "Hg2 Ni1 S6"
_cell_length_a       6.351245359456598
_cell_length_b       6.351247352012202
_cell_length_c       6.351248029677918
_cell_angle_alpha    60.00000497272616
_cell_angle_beta     59.99999559707531
_cell_angle_gamma    60.00000217947805

_space_group_name_H-M_alt    "P 1"
_space_group_IT_number       1

loop_
  _space_group_symop_operation_xyz
  'x, y, z'

loop_
  _atom_site_type_symbol
  _atom_site_label
  _atom_site_symmetry_multiplicity
  _atom_site_fract_x
  _atom_site_fract_y
  _atom_site_fract_z
  _atom_site_occupancy
  Hg  Hg1       1.0  0.250000161901018  0.24999915964859717  0.25000037091051575  1.0000
  Hg  Hg2       1.0  0.7500000747016845  0.7500000918642955  0.749999909431028  1.0000
  Ni  Ni1       1.0  0.9999999214007811  0.9999999903582311  0.9999999197354855  1.0000
  S   S1        1.0  0.2409714997406815  0.24097130630834793  0.7590287038204796  1.0000
  S   S2        1.0  0.759028271035688  0.7590288245335977  0.2409713949616263  1.0000
  S   S3        1.0  0.7590285703871196  0.24097159628367926  0.24097123326775513  1.0000
  S   S4        1.0  0.2409715269957451  0.759028727393545  0.75902833340609  1.0000
  S   S5        1.0  0.2409713650555586  0.7590286825690914  0.24097168091534976  1.0000
  S   S6        1.0  0.7590284879718645  0.24097161603958267  0.7590284723501635  1.0000
