data_image0
_chemical_formula_structural       Hg2NiTe6
_chemical_formula_sum              "Hg2 Ni1 Te6"
_cell_length_a       7.045493608922499
_cell_length_b       7.045498075380527
_cell_length_c       7.045483747329479
_cell_angle_alpha    60.00003769403533
_cell_angle_beta     60.00007689848661
_cell_angle_gamma    60.000087282314226

_space_group_name_H-M_alt    "P 1"
_space_group_IT_number       1

loop_
  _space_group_symop_operation_xyz
  'x, y, z'

loop_
  _atom_site_type_symbol
  _atom_site_label
  _atom_site_symmetry_multiplicity
  _atom_site_fract_x
  _atom_site_fract_y
  _atom_site_fract_z
  _atom_site_occupancy
  Hg  Hg1       1.0  0.2500003318598941  0.24999963007821824  0.2500005569488458  1.0000
  Hg  Hg2       1.0  0.7500002142639185  0.7499997837390582  0.7500011790117077  1.0000
  Ni  Ni1       1.0  0.9999997425075129  0.9999999808785583  0.9999992866975357  1.0000
  Te  Te1       1.0  0.25820773486737725  0.2582077783620349  0.7417936395522071  1.0000
  Te  Te2       1.0  0.7417918514323849  0.7417924646407266  0.2582086173382367  1.0000
  Te  Te3       1.0  0.7417924353617991  0.2582081765373681  0.25820476745823173  1.0000
  Te  Te4       1.0  0.25820783066996983  0.741791285954757  0.7417935599673866  1.0000
  Te  Te5       1.0  0.25820772563080874  0.741792515727813  0.2582051671276356  1.0000
  Te  Te6       1.0  0.741791952191183  0.2582081705522501  0.7417932228940128  1.0000
