data_image0
_chemical_formula_structural       Hg2NiS6
_chemical_formula_sum              "Hg2 Ni1 S6"
_cell_length_a       6.347218117434157
_cell_length_b       6.347217554381111
_cell_length_c       6.347218019147198
_cell_angle_alpha    59.999994205987015
_cell_angle_beta     59.99999750269765
_cell_angle_gamma    59.99999922353146

_space_group_name_H-M_alt    "P 1"
_space_group_IT_number       1

loop_
  _space_group_symop_operation_xyz
  'x, y, z'

loop_
  _atom_site_type_symbol
  _atom_site_label
  _atom_site_symmetry_multiplicity
  _atom_site_fract_x
  _atom_site_fract_y
  _atom_site_fract_z
  _atom_site_occupancy
  Hg  Hg1       1.0  0.2499999536958694  0.24999999365730188  0.2500000159093479  1.0000
  Hg  Hg2       1.0  0.7499999492899013  0.7500001256902373  0.749999920239272  1.0000
  Ni  Ni1       1.0  0.9999999835355697  0.9999999729859086  1.2887281205375374e-07  1.0000
  S   S1        1.0  0.24114118230699483  0.24114141597524386  0.7588587208735947  1.0000
  S   S2        1.0  0.7588587331736935  0.7588587477525813  0.24114124670617063  1.0000
  S   S3        1.0  0.75885855700609  0.24114144835475781  0.24114132683651915  1.0000
  S   S4        1.0  0.241141674455204  0.7588583950631889  0.7588584633016379  1.0000
  S   S5        1.0  0.24114137542459796  0.7588585478940875  0.2411415476219737  1.0000
  S   S6        1.0  0.7588585423389098  0.2411413688477887  0.7588586904057406  1.0000
