data_image0
_chemical_formula_structural       Hg2NbS6
_chemical_formula_sum              "Hg2 Nb1 S6"
_cell_length_a       6.420395498070985
_cell_length_b       6.420395227924909
_cell_length_c       6.420395183514354
_cell_angle_alpha    59.999999897370785
_cell_angle_beta     60.00000066135242
_cell_angle_gamma    60.00000109111629

_space_group_name_H-M_alt    "P 1"
_space_group_IT_number       1

loop_
  _space_group_symop_operation_xyz
  'x, y, z'

loop_
  _atom_site_type_symbol
  _atom_site_label
  _atom_site_symmetry_multiplicity
  _atom_site_fract_x
  _atom_site_fract_y
  _atom_site_fract_z
  _atom_site_occupancy
  Hg  Hg1       1.0  0.24999997429589557  0.24999994245346893  0.25000002801010973  1.0000
  Hg  Hg2       1.0  0.7499999794167912  0.7500001325739851  0.7499998704507197  1.0000
  Nb  Nb1       1.0  0.9999999914626607  0.9999999446800389  3.278605900256264e-07  1.0000
  S   S1        1.0  0.261648456776395  0.26164842833381746  0.7383515823807804  1.0000
  S   S2        1.0  0.7383515708924987  0.7383516352481289  0.26164832999325793  1.0000
  S   S3        1.0  0.7383517883925218  0.2616483556781101  0.2616482878629714  1.0000
  S   S4        1.0  0.26164844329113907  0.7383514465647146  0.7383516064471477  1.0000
  S   S5        1.0  0.26164821576108  0.7383516412014144  0.26164843367912727  1.0000
  S   S6        1.0  0.7383515945806013  0.2616484700701493  0.7383515526109545  1.0000
