data_image0
_chemical_formula_structural       Hg2NiO6
_chemical_formula_sum              "Hg2 Ni1 O6"
_cell_length_a       5.252717839791038
_cell_length_b       5.252718276527732
_cell_length_c       5.252718029632542
_cell_angle_alpha    59.99999792955732
_cell_angle_beta     60.00000457275623
_cell_angle_gamma    60.00000207442513

_space_group_name_H-M_alt    "P 1"
_space_group_IT_number       1

loop_
  _space_group_symop_operation_xyz
  'x, y, z'

loop_
  _atom_site_type_symbol
  _atom_site_label
  _atom_site_symmetry_multiplicity
  _atom_site_fract_x
  _atom_site_fract_y
  _atom_site_fract_z
  _atom_site_occupancy
  Hg  Hg1       1.0  0.24999998064837023  0.24999992885351113  0.25000004457354796  1.0000
  Hg  Hg2       1.0  0.7500000082213428  0.7500001153217981  0.7499999209716791  1.0000
  Ni  Ni1       1.0  0.9999999567885114  3.730623758523022e-08  7.529612132056186e-08  1.0000
  O   O1        1.0  0.24317862452887407  0.24317860242627712  0.7568213353213424  1.0000
  O   O2        1.0  0.756821371069059  0.7568214347541141  0.24317859228170843  1.0000
  O   O3        1.0  0.7568213208430143  0.24317871517441358  0.2431786118516491  1.0000
  O   O4        1.0  0.24317877618878195  0.7568212287403707  0.7568213345125958  1.0000
  O   O5        1.0  0.24317850382964742  0.7568215012045029  0.24317853566915362  1.0000
  O   O6        1.0  0.7568214244442301  0.24317845436847405  0.7568215920488659  1.0000
