data_image0
_chemical_formula_structural       Hg2NbO6
_chemical_formula_sum              "Hg2 Nb1 O6"
_cell_length_a       5.551105754651465
_cell_length_b       5.5511057121555885
_cell_length_c       5.551105456013761
_cell_angle_alpha    59.99999948272808
_cell_angle_beta     59.999999208533794
_cell_angle_gamma    59.99999836038754

_space_group_name_H-M_alt    "P 1"
_space_group_IT_number       1

loop_
  _space_group_symop_operation_xyz
  'x, y, z'

loop_
  _atom_site_type_symbol
  _atom_site_label
  _atom_site_symmetry_multiplicity
  _atom_site_fract_x
  _atom_site_fract_y
  _atom_site_fract_z
  _atom_site_occupancy
  Hg  Hg1       1.0  0.24999993089761277  0.2499998428923886  0.2500002326475363  1.0000
  Hg  Hg2       1.0  0.7499999323712351  0.7499998397665923  0.7500002527826454  1.0000
  Nb  Nb1       1.0  0.9999998641212505  0.999999889684602  1.7353748173311146e-07  1.0000
  O   O1        1.0  0.255307658697559  0.2553076019543653  0.7446925092063849  1.0000
  O   O2        1.0  0.7446923780147948  0.7446924028255828  0.2553074312034588  1.0000
  O   O3        1.0  0.7446923691623654  0.25530764314500404  0.25530750890056697  1.0000
  O   O4        1.0  0.2553076521237678  0.7446925888846687  0.7446921454532227  1.0000
  O   O5        1.0  0.25530773631771847  0.7446925116281014  0.2553074164508156  1.0000
  O   O6        1.0  0.7446924666965556  0.25530768068802345  0.7446923056067846  1.0000
