data_image0
_chemical_formula_structural       Hg2NbO6
_chemical_formula_sum              "Hg2 Nb1 O6"
_cell_length_a       5.550802755988661
_cell_length_b       5.550802266231276
_cell_length_c       5.550802895156994
_cell_angle_alpha    59.999999933243195
_cell_angle_beta     59.99999798622764
_cell_angle_gamma    59.99999737139231

_space_group_name_H-M_alt    "P 1"
_space_group_IT_number       1

loop_
  _space_group_symop_operation_xyz
  'x, y, z'

loop_
  _atom_site_type_symbol
  _atom_site_label
  _atom_site_symmetry_multiplicity
  _atom_site_fract_x
  _atom_site_fract_y
  _atom_site_fract_z
  _atom_site_occupancy
  Hg  Hg1       1.0  0.24999987201041438  0.2500000353895036  0.25000000281223167  1.0000
  Hg  Hg2       1.0  0.7499999594620859  0.7499999870213824  0.7500003070462209  1.0000
  Nb  Nb1       1.0  2.4353596477571348e-08  0.9999999955871482  1.1253442756729618e-07  1.0000
  O   O1        1.0  0.25529445833364534  0.25529434194499445  0.7447055677182643  1.0000
  O   O2        1.0  0.7447055894622429  0.744705717975159  0.2552942531140823  1.0000
  O   O3        1.0  0.7447058121081996  0.2552943901842426  0.255294100721722  1.0000
  O   O4        1.0  0.255294259075088  0.7447056432587674  0.7447057234570368  1.0000
  O   O5        1.0  0.25529437593995613  0.7447056846306414  0.2552941499456251  1.0000
  O   O6        1.0  0.7447057124116605  0.2552942848259391  0.7447056922375587  1.0000
