data_image0
_chemical_formula_structural       Hg2NbS6
_chemical_formula_sum              "Hg2 Nb1 S6"
_cell_length_a       6.417739247138976
_cell_length_b       6.417739665432981
_cell_length_c       6.4177379303476085
_cell_angle_alpha    60.00001174532831
_cell_angle_beta     60.00001180754257
_cell_angle_gamma    60.000004041133785

_space_group_name_H-M_alt    "P 1"
_space_group_IT_number       1

loop_
  _space_group_symop_operation_xyz
  'x, y, z'

loop_
  _atom_site_type_symbol
  _atom_site_label
  _atom_site_symmetry_multiplicity
  _atom_site_fract_x
  _atom_site_fract_y
  _atom_site_fract_z
  _atom_site_occupancy
  Hg  Hg1       1.0  0.24999998103679943  0.2500000087951656  0.24999997231149046  1.0000
  Hg  Hg2       1.0  0.7500000606436712  0.7499999328751666  0.7500000249029719  1.0000
  Nb  Nb1       1.0  0.9999999290472019  7.251821095692234e-08  0.9999996688828314  1.0000
  S   S1        1.0  0.2617913478410948  0.2617909241707637  0.7382089401851242  1.0000
  S   S2        1.0  0.7382089578337958  0.7382091377271172  0.26179105657468105  1.0000
  S   S3        1.0  0.7382089075998928  0.2617910245504013  0.2617912675941546  1.0000
  S   S4        1.0  0.2617909413786729  0.7382090526144965  0.7382089358566546  1.0000
  S   S5        1.0  0.2617909690210434  0.7382087354544522  0.26179130955913543  1.0000
  S   S6        1.0  0.7382089596913962  0.26179109171344805  0.7382088528105387  1.0000
