data_image0
_chemical_formula_structural       Hg2NbTe6
_chemical_formula_sum              "Hg2 Nb1 Te6"
_cell_length_a       7.374967423369617
_cell_length_b       7.374966610821879
_cell_length_c       7.374968257067642
_cell_angle_alpha    59.99999054747358
_cell_angle_beta     59.99999871376212
_cell_angle_gamma    60.0000081249971

_space_group_name_H-M_alt    "P 1"
_space_group_IT_number       1

loop_
  _space_group_symop_operation_xyz
  'x, y, z'

loop_
  _atom_site_type_symbol
  _atom_site_label
  _atom_site_symmetry_multiplicity
  _atom_site_fract_x
  _atom_site_fract_y
  _atom_site_fract_z
  _atom_site_occupancy
  Hg  Hg1       1.0  0.25000010551256535  0.24999994767731565  0.24999997161901202  1.0000
  Hg  Hg2       1.0  0.749999946744201  0.7500000223851779  0.7499999870262115  1.0000
  Nb  Nb1       1.0  0.9999999711390137  0.9999998986986  1.7623362836861132e-08  1.0000
  Te  Te1       1.0  0.2642064454017287  0.2642061958153359  0.7357936873371062  1.0000
  Te  Te2       1.0  0.7357934343861562  0.735794033312995  0.26420624970464096  1.0000
  Te  Te3       1.0  0.7357932596231878  0.26420654218730916  0.26420670767878185  1.0000
  Te  Te4       1.0  0.26420673671058253  0.7357934594280673  0.7357933173890187  1.0000
  Te  Te5       1.0  0.2642067428740987  0.7357934200553063  0.26420653812275835  1.0000
  Te  Te6       1.0  0.7357933512306397  0.2642064902227603  0.7357935244063571  1.0000
