data_image0
_chemical_formula_structural       Hg2OsSe6
_chemical_formula_sum              "Hg2 Os1 Se6"
_cell_length_a       6.60110839688076
_cell_length_b       6.60110815456008
_cell_length_c       6.601108138482228
_cell_angle_alpha    59.99999401766896
_cell_angle_beta     60.00000524027926
_cell_angle_gamma    59.999995822325204

_space_group_name_H-M_alt    "P 1"
_space_group_IT_number       1

loop_
  _space_group_symop_operation_xyz
  'x, y, z'

loop_
  _atom_site_type_symbol
  _atom_site_label
  _atom_site_symmetry_multiplicity
  _atom_site_fract_x
  _atom_site_fract_y
  _atom_site_fract_z
  _atom_site_occupancy
  Hg  Hg1       1.0  0.25000000576985365  0.2500000179286821  0.2500000236522383  1.0000
  Hg  Hg2       1.0  0.7500000278596904  0.7499999591625601  0.7499999827122418  1.0000
  Os  Os1       1.0  0.9999998491034322  8.534668903005891e-08  0.999999996417399  1.0000
  Se  Se1       1.0  0.26504553712949985  0.2650458280429499  0.7349543149170286  1.0000
  Se  Se2       1.0  0.7349541547409557  0.7349542139859877  0.26504588136463836  1.0000
  Se  Se3       1.0  0.7349541678580988  0.2650459605542303  0.26504566880505226  1.0000
  Se  Se4       1.0  0.2650459992966463  0.734954077764005  0.7349539220549275  1.0000
  Se  Se5       1.0  0.26504581582310655  0.734954152318627  0.265045786112694  1.0000
  Se  Se6       1.0  0.734954445069881  0.2650457097401026  0.7349544322731308  1.0000
