data_image0
_chemical_formula_structural       Hg2OsO6
_chemical_formula_sum              "Hg2 Os1 O6"
_cell_length_a       5.57987035912098
_cell_length_b       5.579869801111591
_cell_length_c       5.579870068343715
_cell_angle_alpha    60.00000037332712
_cell_angle_beta     59.99999817165707
_cell_angle_gamma    59.9999972052574

_space_group_name_H-M_alt    "P 1"
_space_group_IT_number       1

loop_
  _space_group_symop_operation_xyz
  'x, y, z'

loop_
  _atom_site_type_symbol
  _atom_site_label
  _atom_site_symmetry_multiplicity
  _atom_site_fract_x
  _atom_site_fract_y
  _atom_site_fract_z
  _atom_site_occupancy
  Hg  Hg1       1.0  0.24999991008649328  0.24999996169035996  0.2500001141158086  1.0000
  Hg  Hg2       1.0  0.7499999482963735  0.7500000628607725  0.7500001193439395  1.0000
  Os  Os1       1.0  9.36431361543247e-09  1.5364541392170042e-08  0.9999999840512597  1.0000
  O   O1        1.0  0.23617421206447367  0.23617425833176645  0.7638257640446896  1.0000
  O   O2        1.0  0.7638258788663665  0.7638256893966475  0.23617417828580878  1.0000
  O   O3        1.0  0.7638258381223783  0.23617426915800305  0.23617420037757178  1.0000
  O   O4        1.0  0.23617421319564738  0.7638257663677922  0.7638257214449584  1.0000
  O   O5        1.0  0.23617420024008823  0.7638257563554722  0.2361742349659817  1.0000
  O   O6        1.0  0.7638258426138815  0.2361741803982671  0.7638256669961899  1.0000
