data_image0
_chemical_formula_structural       Hg2OsS6
_chemical_formula_sum              "Hg2 Os1 S6"
_cell_length_a       6.223435295937723
_cell_length_b       6.22343535523852
_cell_length_c       6.223435536597242
_cell_angle_alpha    60.00000082655442
_cell_angle_beta     59.99999816180595
_cell_angle_gamma    59.99999857243412

_space_group_name_H-M_alt    "P 1"
_space_group_IT_number       1

loop_
  _space_group_symop_operation_xyz
  'x, y, z'

loop_
  _atom_site_type_symbol
  _atom_site_label
  _atom_site_symmetry_multiplicity
  _atom_site_fract_x
  _atom_site_fract_y
  _atom_site_fract_z
  _atom_site_occupancy
  Hg  Hg1       1.0  0.2500000959314762  0.25000012044700065  0.24999985584706655  1.0000
  Hg  Hg2       1.0  0.7499998852902786  0.749999965781799  0.7499999440772593  1.0000
  Os  Os1       1.0  0.9999998275370761  2.2237905094853852e-07  0.9999994849589335  1.0000
  S   S1        1.0  0.26370292469230877  0.26370298335292536  0.7362970875424251  1.0000
  S   S2        1.0  0.7362971122688966  0.7362969690548518  0.26370298280613674  1.0000
  S   S3        1.0  0.7362970459906886  0.2637029276651368  0.2637031406327504  1.0000
  S   S4        1.0  0.26370307497196005  0.7362969007613985  0.7362971634140363  1.0000
  S   S5        1.0  0.26370303620039226  0.7362970751583018  0.26370308338667664  1.0000
  S   S6        1.0  0.7362969560059421  0.26370288905721956  0.7362972573145148  1.0000
