data_image0
_chemical_formula_structural       Hg2PbS6
_chemical_formula_sum              "Hg2 Pb1 S6"
_cell_length_a       6.623564664211645
_cell_length_b       6.623564154386012
_cell_length_c       6.623565513315444
_cell_angle_alpha    59.99999345023309
_cell_angle_beta     59.99999963468783
_cell_angle_gamma    59.99999970864306

_space_group_name_H-M_alt    "P 1"
_space_group_IT_number       1

loop_
  _space_group_symop_operation_xyz
  'x, y, z'

loop_
  _atom_site_type_symbol
  _atom_site_label
  _atom_site_symmetry_multiplicity
  _atom_site_fract_x
  _atom_site_fract_y
  _atom_site_fract_z
  _atom_site_occupancy
  Hg  Hg1       1.0  0.2500001712437619  0.25000018733999335  0.2499997414164455  1.0000
  Hg  Hg2       1.0  0.7499999072097758  0.7499997613716058  0.7500002479035627  1.0000
  Pb  Pb1       1.0  2.4811362602656662e-08  9.24536331342543e-09  0.9999999663642682  1.0000
  S   S1        1.0  0.27649815054082943  0.27649854923387174  0.7235016461274006  1.0000
  S   S2        1.0  0.7235018017227378  0.7235014956294867  0.27649822988203615  1.0000
  S   S3        1.0  0.7235016875607615  0.2764983389522714  0.2764982207072566  1.0000
  S   S4        1.0  0.27649844127390233  0.7235015579853027  0.7235018659338976  1.0000
  S   S5        1.0  0.2764983850190054  0.7235017371426735  0.2764981334163811  1.0000
  S   S6        1.0  0.7235014283588868  0.27649836874006495  0.7235019279730031  1.0000
