data_image0
_chemical_formula_structural       Hg2PtO6
_chemical_formula_sum              "Hg2 Pt1 O6"
_cell_length_a       5.440199002777221
_cell_length_b       5.440199047069973
_cell_length_c       5.4401991027747325
_cell_angle_alpha    60.00000048485959
_cell_angle_beta     59.99999920494028
_cell_angle_gamma    59.99999870129689

_space_group_name_H-M_alt    "P 1"
_space_group_IT_number       1

loop_
  _space_group_symop_operation_xyz
  'x, y, z'

loop_
  _atom_site_type_symbol
  _atom_site_label
  _atom_site_symmetry_multiplicity
  _atom_site_fract_x
  _atom_site_fract_y
  _atom_site_fract_z
  _atom_site_occupancy
  Hg  Hg1       1.0  0.24999991152894063  0.2500000046449405  0.25000004653708385  1.0000
  Hg  Hg2       1.0  0.7500000410887616  0.7500000432015453  0.7499999809177598  1.0000
  Pt  Pt1       1.0  6.830733754110387e-08  0.9999999797384166  0.9999999373755943  1.0000
  O   O1        1.0  0.24938919801973924  0.24938919952826671  0.7506107872103813  1.0000
  O   O2        1.0  0.7506108421147661  0.7506108595746512  0.24938913203646787  1.0000
  O   O3        1.0  0.7506108903383107  0.2493890666729901  0.2493891478213206  1.0000
  O   O4        1.0  0.24938907319374837  0.7506108911220207  0.7506109302310894  1.0000
  O   O5        1.0  0.2493890912110467  0.7506108208009469  0.24938915025289538  1.0000
  O   O6        1.0  0.7506108979201699  0.24938913024020268  0.7506108944806823  1.0000
