data_image0
_chemical_formula_structural       Hg2PS6
_chemical_formula_sum              "Hg2 P1 S6"
_cell_length_a       6.536017451448072
_cell_length_b       6.536018043405524
_cell_length_c       6.536017382419179
_cell_angle_alpha    59.99999924588301
_cell_angle_beta     60.00000388835219
_cell_angle_gamma    60.00000142268555

_space_group_name_H-M_alt    "P 1"
_space_group_IT_number       1

loop_
  _space_group_symop_operation_xyz
  'x, y, z'

loop_
  _atom_site_type_symbol
  _atom_site_label
  _atom_site_symmetry_multiplicity
  _atom_site_fract_x
  _atom_site_fract_y
  _atom_site_fract_z
  _atom_site_occupancy
  Hg  Hg1       1.0  0.2500000108196517  0.25000011305371433  0.24999990162967486  1.0000
  Hg  Hg2       1.0  0.7500000242932923  0.7499999025565288  0.7500001200521217  1.0000
  P   P1        1.0  1.457980611989628e-07  0.9999998276067615  8.520683137545552e-08  1.0000
  S   S1        1.0  0.23491867750850842  0.2349184897547045  0.7650814058233002  1.0000
  S   S2        1.0  0.7650816019595121  0.7650814658926779  0.23491845481313062  1.0000
  S   S3        1.0  0.7650813165715497  0.23491862908454836  0.23491875904302814  1.0000
  S   S4        1.0  0.23491848041406374  0.7650814596054307  0.765081433901611  1.0000
  S   S5        1.0  0.23491841202830124  0.7650815550438337  0.23491842244313457  1.0000
  S   S6        1.0  0.765081394718383  0.23491854676304372  0.7650813964563853  1.0000
