data_image0
_chemical_formula_structural       Hg2PdS6
_chemical_formula_sum              "Hg2 Pd1 S6"
_cell_length_a       6.327904642701031
_cell_length_b       6.32790501226359
_cell_length_c       6.327905153310736
_cell_angle_alpha    59.99999606182293
_cell_angle_beta     59.999996266576055
_cell_angle_gamma    59.99999686300834

_space_group_name_H-M_alt    "P 1"
_space_group_IT_number       1

loop_
  _space_group_symop_operation_xyz
  'x, y, z'

loop_
  _atom_site_type_symbol
  _atom_site_label
  _atom_site_symmetry_multiplicity
  _atom_site_fract_x
  _atom_site_fract_y
  _atom_site_fract_z
  _atom_site_occupancy
  Hg  Hg1       1.0  0.2499999820070647  0.25000001786793136  0.24999999095256792  1.0000
  Hg  Hg2       1.0  0.749999935129515  0.7499999548949968  0.749999961285268  1.0000
  Pd  Pd1       1.0  0.9999999963851741  1.2580533168521005e-07  0.9999999799925913  1.0000
  S   S1        1.0  0.26223578208099485  0.2622357314353867  0.7377642279448294  1.0000
  S   S2        1.0  0.7377642833431546  0.7377641522960695  0.2622357863224638  1.0000
  S   S3        1.0  0.7377641757342845  0.2622357948283427  0.2622357255034708  1.0000
  S   S4        1.0  0.2622359157332044  0.7377641585799126  0.7377642535461658  1.0000
  S   S5        1.0  0.2622357821585136  0.7377642242446439  0.2622357473134572  1.0000
  S   S6        1.0  0.7377641784753317  0.26223589174281114  0.7377642743345655  1.0000
