data_image0
_chemical_formula_structural       Hg2PdO6
_chemical_formula_sum              "Hg2 Pd1 O6"
_cell_length_a       5.3897669606062335
_cell_length_b       5.389778598929323
_cell_length_c       5.389770448004013
_cell_angle_alpha    59.99995952690602
_cell_angle_beta     60.00011524517969
_cell_angle_gamma    59.99994861038664

_space_group_name_H-M_alt    "P 1"
_space_group_IT_number       1

loop_
  _space_group_symop_operation_xyz
  'x, y, z'

loop_
  _atom_site_type_symbol
  _atom_site_label
  _atom_site_symmetry_multiplicity
  _atom_site_fract_x
  _atom_site_fract_y
  _atom_site_fract_z
  _atom_site_occupancy
  Hg  Hg1       1.0  0.2500025151588212  0.24999433247367503  0.250002415921103  1.0000
  Hg  Hg2       1.0  0.750000365537434  0.7499987334473054  0.7500003647668184  1.0000
  Pd  Pd1       1.0  0.9999992933530759  2.4541401177056374e-06  0.9999973413883384  1.0000
  O   O1        1.0  0.25496057300863095  0.25496453985438944  0.7450372081723918  1.0000
  O   O2        1.0  0.7450366318419563  0.7450331298538521  0.25496409360760924  1.0000
  O   O3        1.0  0.745037576290213  0.2549635624366851  0.2549645569573044  1.0000
  O   O4        1.0  0.25496220950270765  0.7450432807422529  0.7450300790817737  1.0000
  O   O5        1.0  0.25495571435103853  0.7450428163392855  0.2549544997376397  1.0000
  O   O6        1.0  0.7450449573991524  0.2549572620467228  0.7450494080909705  1.0000
