data_image0
_chemical_formula_structural       Hg2PtS6
_chemical_formula_sum              "Hg2 Pt1 S6"
_cell_length_a       6.316100911803102
_cell_length_b       6.316100923370404
_cell_length_c       6.31610112883437
_cell_angle_alpha    59.999997717338736
_cell_angle_beta     59.999998798664876
_cell_angle_gamma    59.999999036129296

_space_group_name_H-M_alt    "P 1"
_space_group_IT_number       1

loop_
  _space_group_symop_operation_xyz
  'x, y, z'

loop_
  _atom_site_type_symbol
  _atom_site_label
  _atom_site_symmetry_multiplicity
  _atom_site_fract_x
  _atom_site_fract_y
  _atom_site_fract_z
  _atom_site_occupancy
  Hg  Hg1       1.0  0.2500000348509208  0.24999991423049128  0.25000002235810637  1.0000
  Hg  Hg2       1.0  0.7500000170721964  0.7500000161022891  0.7500000121073173  1.0000
  Pt  Pt1       1.0  1.3351790401793166e-08  0.9999999709137428  2.369978572393081e-08  1.0000
  S   S1        1.0  0.25796664796562285  0.25796659068644723  0.7420333957959483  1.0000
  S   S2        1.0  0.7420333457501913  0.7420333881234275  0.2579666783661934  1.0000
  S   S3        1.0  0.7420333874727459  0.25796670831100854  0.25796655131229673  1.0000
  S   S4        1.0  0.25796661434786  0.742033388782979  0.7420333868256523  1.0000
  S   S5        1.0  0.2579665259055645  0.7420334301892676  0.25796656314859734  1.0000
  S   S6        1.0  0.7420334741249094  0.25796660097587154  0.7420333534349102  1.0000
