data_image0
_chemical_formula_structural       Hg2PdO6
_chemical_formula_sum              "Hg2 Pd1 O6"
_cell_length_a       5.387007398764559
_cell_length_b       5.387007449491085
_cell_length_c       5.3870073234330595
_cell_angle_alpha    59.99999705052402
_cell_angle_beta     59.99999901639215
_cell_angle_gamma    59.999994106353455

_space_group_name_H-M_alt    "P 1"
_space_group_IT_number       1

loop_
  _space_group_symop_operation_xyz
  'x, y, z'

loop_
  _atom_site_type_symbol
  _atom_site_label
  _atom_site_symmetry_multiplicity
  _atom_site_fract_x
  _atom_site_fract_y
  _atom_site_fract_z
  _atom_site_occupancy
  Hg  Hg1       1.0  0.2499999953824803  0.24999988761012715  0.2500000725496094  1.0000
  Hg  Hg2       1.0  0.7500000529149871  0.7499999833961805  0.7499999478730979  1.0000
  Pd  Pd1       1.0  3.150225101507658e-08  3.4102744778648194e-08  0.9999999207895446  1.0000
  O   O1        1.0  0.2551965261764374  0.2551965452413808  0.74480343326369  1.0000
  O   O2        1.0  0.7448034578570605  0.7448034735434885  0.255196591809674  1.0000
  O   O3        1.0  0.7448034455559172  0.2551966457055036  0.2551964620414945  1.0000
  O   O4        1.0  0.2551964289625464  0.7448034958492513  0.744803573111306  1.0000
  O   O5        1.0  0.2551964443916259  0.7448034388144765  0.2551965632114102  1.0000
  O   O6        1.0  0.7448035972153164  0.2551964458329287  0.744803470442875  1.0000
