data_image0
_chemical_formula_structural       Hg2PbSe6
_chemical_formula_sum              "Hg2 Pb1 Se6"
_cell_length_a       7.0371845519514755
_cell_length_b       7.037184260313732
_cell_length_c       7.037184652989888
_cell_angle_alpha    59.99999817504987
_cell_angle_beta     59.999997413122195
_cell_angle_gamma    59.99999817205575

_space_group_name_H-M_alt    "P 1"
_space_group_IT_number       1

loop_
  _space_group_symop_operation_xyz
  'x, y, z'

loop_
  _atom_site_type_symbol
  _atom_site_label
  _atom_site_symmetry_multiplicity
  _atom_site_fract_x
  _atom_site_fract_y
  _atom_site_fract_z
  _atom_site_occupancy
  Hg  Hg1       1.0  0.24999993028231468  0.24999991059502594  0.2500000192677746  1.0000
  Hg  Hg2       1.0  0.7499998505744765  0.7500000990074849  0.7499999636942704  1.0000
  Pb  Pb1       1.0  0.9999999508738568  0.9999999947788287  8.259354811664989e-08  1.0000
  Se  Se1       1.0  0.30917451849065886  0.3091744622653151  0.6908255995198249  1.0000
  Se  Se2       1.0  0.6908257777597862  0.6908255960681349  0.30917441826800474  1.0000
  Se  Se3       1.0  0.6908254619836706  0.309174433721152  0.30917454927140126  1.0000
  Se  Se4       1.0  0.3091744562414909  0.6908255428139408  0.6908256387452961  1.0000
  Se  Se5       1.0  0.3091745288221222  0.6908255414181433  0.30917431184294974  1.0000
  Se  Se6       1.0  0.6908255285942728  0.30917442119382205  0.6908254113902335  1.0000
