data_image0
_chemical_formula_structural       Hg2PdSe6
_chemical_formula_sum              "Hg2 Pd1 Se6"
_cell_length_a       6.554377770159989
_cell_length_b       6.554377365959413
_cell_length_c       6.554377069054625
_cell_angle_alpha    59.99999991764345
_cell_angle_beta     59.999999021600956
_cell_angle_gamma    59.999998815021605

_space_group_name_H-M_alt    "P 1"
_space_group_IT_number       1

loop_
  _space_group_symop_operation_xyz
  'x, y, z'

loop_
  _atom_site_type_symbol
  _atom_site_label
  _atom_site_symmetry_multiplicity
  _atom_site_fract_x
  _atom_site_fract_y
  _atom_site_fract_z
  _atom_site_occupancy
  Hg  Hg1       1.0  0.24999999429878286  0.25000003562942186  0.24999997282436298  1.0000
  Hg  Hg2       1.0  0.7499999997136638  0.7500000564363157  0.7499999688557625  1.0000
  Pd  Pd1       1.0  3.204997012268855e-08  0.999999951416641  9.792391942284002e-09  1.0000
  Se  Se1       1.0  0.2864462185943423  0.28644635369541704  0.7135537023246906  1.0000
  Se  Se2       1.0  0.7135535640478806  0.7135536748382356  0.28644637070380513  1.0000
  Se  Se3       1.0  0.7135536155920217  0.28644641573106716  0.286446342796418  1.0000
  Se  Se4       1.0  0.28644638868850886  0.7135536613859446  0.7135535401961081  1.0000
  Se  Se5       1.0  0.2864464362310949  0.713553598217994  0.2864464208926227  1.0000
  Se  Se6       1.0  0.7135537738720352  0.2864462789598092  0.7135536697045274  1.0000
