data_image0
_chemical_formula_structural       Hg2PtSe6
_chemical_formula_sum              "Hg2 Pt1 Se6"
_cell_length_a       6.6514723811585315
_cell_length_b       6.651472584489566
_cell_length_c       6.651472371262791
_cell_angle_alpha    60.00000112811868
_cell_angle_beta     59.999998016920664
_cell_angle_gamma    60.000000186880634

_space_group_name_H-M_alt    "P 1"
_space_group_IT_number       1

loop_
  _space_group_symop_operation_xyz
  'x, y, z'

loop_
  _atom_site_type_symbol
  _atom_site_label
  _atom_site_symmetry_multiplicity
  _atom_site_fract_x
  _atom_site_fract_y
  _atom_site_fract_z
  _atom_site_occupancy
  Hg  Hg1       1.0  0.24999997045322636  0.2500000138990335  0.25000001078246964  1.0000
  Hg  Hg2       1.0  0.7500000044211388  0.7499999864576845  0.7499999938918407  1.0000
  Pt  Pt1       1.0  0.9999999716281791  0.9999999705389779  0.9999999251799916  1.0000
  Se  Se1       1.0  0.2616048422911441  0.2616048248541463  0.738395130781348  1.0000
  Se  Se2       1.0  0.7383951454182168  0.7383952307419867  0.26160483083519764  1.0000
  Se  Se3       1.0  0.7383951861748289  0.2616047885530747  0.26160480368076305  1.0000
  Se  Se4       1.0  0.26160476690162  0.738395292821453  0.7383952510652069  1.0000
  Se  Se5       1.0  0.2616048414882904  0.7383951764739748  0.26160482571273824  1.0000
  Se  Se6       1.0  0.7383952702870118  0.2616047152452267  0.7383952219600677  1.0000
