data_image0
_chemical_formula_structural       Hg2PbS6
_chemical_formula_sum              "Hg2 Pb1 S6"
_cell_length_a       6.6245481172111615
_cell_length_b       6.624548136488095
_cell_length_c       6.624548203829179
_cell_angle_alpha    59.99999920566511
_cell_angle_beta     59.99999976704383
_cell_angle_gamma    59.999998518045224

_space_group_name_H-M_alt    "P 1"
_space_group_IT_number       1

loop_
  _space_group_symop_operation_xyz
  'x, y, z'

loop_
  _atom_site_type_symbol
  _atom_site_label
  _atom_site_symmetry_multiplicity
  _atom_site_fract_x
  _atom_site_fract_y
  _atom_site_fract_z
  _atom_site_occupancy
  Hg  Hg1       1.0  0.24999993893699346  0.25000005511548956  0.24999996747700118  1.0000
  Hg  Hg2       1.0  0.7499999590263853  0.7499998066797271  0.7500000574523175  1.0000
  Pb  Pb1       1.0  0.9999999718813792  4.2522345984707065e-08  0.9999999520406407  1.0000
  S   S1        1.0  0.2765583573084868  0.27655842904765865  0.7234415302267755  1.0000
  S   S2        1.0  0.7234416121173647  0.7234416157785218  0.27655838858934106  1.0000
  S   S3        1.0  0.7234416236352692  0.2765584747513343  0.2765583941300302  1.0000
  S   S4        1.0  0.276558492754699  0.7234415109133192  0.7234416634387577  1.0000
  S   S5        1.0  0.2765584798773693  0.7234415468492407  0.2765584383057317  1.0000
  S   S6        1.0  0.7234415536188799  0.27655852016250954  0.7234416124886822  1.0000
