data_image0
_chemical_formula_structural       Hg2PO6
_chemical_formula_sum              "Hg2 P1 O6"
_cell_length_a       5.2373167913581185
_cell_length_b       5.237317666778214
_cell_length_c       5.237317012571791
_cell_angle_alpha    60.00000071415649
_cell_angle_beta     59.99999966603842
_cell_angle_gamma    60.00000395893243

_space_group_name_H-M_alt    "P 1"
_space_group_IT_number       1

loop_
  _space_group_symop_operation_xyz
  'x, y, z'

loop_
  _atom_site_type_symbol
  _atom_site_label
  _atom_site_symmetry_multiplicity
  _atom_site_fract_x
  _atom_site_fract_y
  _atom_site_fract_z
  _atom_site_occupancy
  Hg  Hg1       1.0  0.25000000532606065  0.25000009641577076  0.24999995302691372  1.0000
  Hg  Hg2       1.0  0.7500000051608906  0.7499999314573702  0.7500000051968753  1.0000
  P   P1        1.0  0.9999999895990352  4.443143102491392e-08  0.9999999772566419  1.0000
  O   O1        1.0  0.2303977959567463  0.23039761036968026  0.7696022807894923  1.0000
  O   O2        1.0  0.7696022279383675  0.7696023309790955  0.23039771399240033  1.0000
  O   O3        1.0  0.7696023446163126  0.23039767880360823  0.23039769994983847  1.0000
  O   O4        1.0  0.23039774096608287  0.769602342054042  0.7696022796058377  1.0000
  O   O5        1.0  0.23039762312269887  0.7696023276967044  0.2303977504485049  1.0000
  O   O6        1.0  0.769602225660515  0.23039766276048826  0.7696024199882271  1.0000
