data_image0
_chemical_formula_structural       Hg2PbTe6
_chemical_formula_sum              "Hg2 Pb1 Te6"
_cell_length_a       7.856899886452198
_cell_length_b       7.8569003144682235
_cell_length_c       7.85690020539689
_cell_angle_alpha    60.00000018050981
_cell_angle_beta     60.00000111907867
_cell_angle_gamma    60.000004387397446

_space_group_name_H-M_alt    "P 1"
_space_group_IT_number       1

loop_
  _space_group_symop_operation_xyz
  'x, y, z'

loop_
  _atom_site_type_symbol
  _atom_site_label
  _atom_site_symmetry_multiplicity
  _atom_site_fract_x
  _atom_site_fract_y
  _atom_site_fract_z
  _atom_site_occupancy
  Hg  Hg1       1.0  0.25000003165917356  0.24999998068975748  0.24999998869762766  1.0000
  Hg  Hg2       1.0  0.7499999920704329  0.7499999950689543  0.7499999986831832  1.0000
  Pb  Pb1       1.0  7.167224173506727e-08  0.9999999922059324  0.9999998662395879  1.0000
  Te  Te1       1.0  0.29552830525225837  0.2955282385418719  0.7044717386559777  1.0000
  Te  Te2       1.0  0.7044716643978072  0.7044716701878238  0.29552829146037873  1.0000
  Te  Te3       1.0  0.7044716968585629  0.29552834014539053  0.2955283176985065  1.0000
  Te  Te4       1.0  0.2955281051401035  0.7044719084058119  0.7044718045201136  1.0000
  Te  Te5       1.0  0.2955282968256978  0.7044717217681343  0.29552829425083  1.0000
  Te  Te6       1.0  0.7044718336418242  0.2955281542264667  0.7044717087345794  1.0000
