data_image0
_chemical_formula_structural       Hg2RhS6
_chemical_formula_sum              "Hg2 Rh1 S6"
_cell_length_a       6.282823770639424
_cell_length_b       6.282824092478721
_cell_length_c       6.282823562418482
_cell_angle_alpha    60.000002064437574
_cell_angle_beta     60.00000343822397
_cell_angle_gamma    60.00000348748018

_space_group_name_H-M_alt    "P 1"
_space_group_IT_number       1

loop_
  _space_group_symop_operation_xyz
  'x, y, z'

loop_
  _atom_site_type_symbol
  _atom_site_label
  _atom_site_symmetry_multiplicity
  _atom_site_fract_x
  _atom_site_fract_y
  _atom_site_fract_z
  _atom_site_occupancy
  Hg  Hg1       1.0  0.25000009830693004  0.24999991345260728  0.24999999857175503  1.0000
  Hg  Hg2       1.0  0.7499999599603498  0.7499999898751304  0.7500000989191842  1.0000
  Rh  Rh1       1.0  2.9294415700004168e-08  5.848061021382611e-09  6.201081548634606e-08  1.0000
  S   S1        1.0  0.25825163522239386  0.25825165309806514  0.7417483108586986  1.0000
  S   S2        1.0  0.7417482443606574  0.7417484003299318  0.25825166563473073  1.0000
  S   S3        1.0  0.7417483882500568  0.258251692141089  0.2582516958664457  1.0000
  S   S4        1.0  0.25825178277699334  0.7417482092372976  0.7417482491291809  1.0000
  S   S5        1.0  0.25825172194072826  0.7417483520027857  0.25825161466311425  1.0000
  S   S6        1.0  0.7417481126033368  0.2582518144877446  0.7417482625612563  1.0000
