data_image0
_chemical_formula_structural       Hg2RhSe6
_chemical_formula_sum              "Hg2 Rh1 Se6"
_cell_length_a       6.596333691915794
_cell_length_b       6.59633324858996
_cell_length_c       6.596333059641676
_cell_angle_alpha    60.00000111524328
_cell_angle_beta     60.000002624797226
_cell_angle_gamma    59.99999870788631

_space_group_name_H-M_alt    "P 1"
_space_group_IT_number       1

loop_
  _space_group_symop_operation_xyz
  'x, y, z'

loop_
  _atom_site_type_symbol
  _atom_site_label
  _atom_site_symmetry_multiplicity
  _atom_site_fract_x
  _atom_site_fract_y
  _atom_site_fract_z
  _atom_site_occupancy
  Hg  Hg1       1.0  0.24999998993065026  0.25000000954704105  0.24999999047764052  1.0000
  Hg  Hg2       1.0  0.7499999995325471  0.7500000602051178  0.7500000120323344  1.0000
  Rh  Rh1       1.0  0.9999999881346775  4.084752274205032e-08  0.9999999354811047  1.0000
  Se  Se1       1.0  0.2641256889075447  0.2641256175934402  0.73587437636861  1.0000
  Se  Se2       1.0  0.7358744055899051  0.735874268344865  0.26412570039902233  1.0000
  Se  Se3       1.0  0.7358744285052206  0.2641255342465791  0.2641255815096442  1.0000
  Se  Se4       1.0  0.2641255033334892  0.7358744668074739  0.7358744265538635  1.0000
  Se  Se5       1.0  0.26412554668973254  0.7358745020715258  0.26412554256529985  1.0000
  Se  Se6       1.0  0.7358744676357276  0.2641254878422926  0.735874423760974  1.0000
