data_image0
_chemical_formula_structural       Hg2RuO6
_chemical_formula_sum              "Hg2 Ru1 O6"
_cell_length_a       5.552938750492591
_cell_length_b       5.552938626423023
_cell_length_c       5.552938927745885
_cell_angle_alpha    59.99999787002568
_cell_angle_beta     59.99999912446941
_cell_angle_gamma    59.99999783969906

_space_group_name_H-M_alt    "P 1"
_space_group_IT_number       1

loop_
  _space_group_symop_operation_xyz
  'x, y, z'

loop_
  _atom_site_type_symbol
  _atom_site_label
  _atom_site_symmetry_multiplicity
  _atom_site_fract_x
  _atom_site_fract_y
  _atom_site_fract_z
  _atom_site_occupancy
  Hg  Hg1       1.0  0.25000010679782664  0.2500000603271509  0.2499999010412622  1.0000
  Hg  Hg2       1.0  0.7499999614936876  0.7499999913015956  0.7499999576042812  1.0000
  Ru  Ru1       1.0  0.999999996828591  0.9999999845609419  0.99999997328827  1.0000
  O   O1        1.0  0.23589416831569213  0.23589412724080633  0.764105868559787  1.0000
  O   O2        1.0  0.764105828813575  0.7641058758651854  0.23589414717405946  1.0000
  O   O3        1.0  0.764105786180895  0.23589415362414234  0.2358941999488384  1.0000
  O   O4        1.0  0.2358942022954777  0.7641057943423555  0.7641058260710242  1.0000
  O   O5        1.0  0.23589416162477922  0.7641058386140722  0.23589417667894852  1.0000
  O   O6        1.0  0.7641058104250631  0.23589417110865876  0.7641058770998118  1.0000
