data_image0
_chemical_formula_structural       Hg2ReS6
_chemical_formula_sum              "Hg2 Re1 S6"
_cell_length_a       6.362574269313618
_cell_length_b       6.362573954716378
_cell_length_c       6.362573586114534
_cell_angle_alpha    60.00000071574103
_cell_angle_beta     60.00000154557165
_cell_angle_gamma    59.99999818804443

_space_group_name_H-M_alt    "P 1"
_space_group_IT_number       1

loop_
  _space_group_symop_operation_xyz
  'x, y, z'

loop_
  _atom_site_type_symbol
  _atom_site_label
  _atom_site_symmetry_multiplicity
  _atom_site_fract_x
  _atom_site_fract_y
  _atom_site_fract_z
  _atom_site_occupancy
  Hg  Hg1       1.0  0.24999992932723894  0.2500000921222125  0.24999994187135519  1.0000
  Hg  Hg2       1.0  0.7500000464617668  0.7500000453761768  0.7499999454630089  1.0000
  Re  Re1       1.0  4.1228480104013354e-08  0.9999999634265104  1.024603289597812e-08  1.0000
  S   S1        1.0  0.2581383405501794  0.2581382965569959  0.7418616758003889  1.0000
  S   S2        1.0  0.7418616601181731  0.741861646524426  0.25813838431748615  1.0000
  S   S3        1.0  0.7418617380244982  0.2581382622398635  0.2581381319042663  1.0000
  S   S4        1.0  0.2581381907267342  0.7418618040364694  0.7418618475655262  1.0000
  S   S5        1.0  0.25813822015839294  0.7418617723043213  0.25813813560748866  1.0000
  S   S6        1.0  0.7418618363671868  0.25813812842884964  0.741861897323914  1.0000
