data_image0
_chemical_formula_structural       Hg2RhO6
_chemical_formula_sum              "Hg2 Rh1 O6"
_cell_length_a       5.5033751859386655
_cell_length_b       5.5033747303975105
_cell_length_c       5.503375232663007
_cell_angle_alpha    59.99999968246464
_cell_angle_beta     59.999998879554305
_cell_angle_gamma    59.99999965313346

_space_group_name_H-M_alt    "P 1"
_space_group_IT_number       1

loop_
  _space_group_symop_operation_xyz
  'x, y, z'

loop_
  _atom_site_type_symbol
  _atom_site_label
  _atom_site_symmetry_multiplicity
  _atom_site_fract_x
  _atom_site_fract_y
  _atom_site_fract_z
  _atom_site_occupancy
  Hg  Hg1       1.0  0.250000081944809  0.24999990628526442  0.24999999916696344  1.0000
  Hg  Hg2       1.0  0.7499999650979235  0.7500000637995107  0.749999947226625  1.0000
  Rh  Rh1       1.0  0.9999999858219254  0.9999999732946796  2.9527030639131046e-08  1.0000
  O   O1        1.0  0.24576619837218583  0.2457661751141178  0.7542338471213339  1.0000
  O   O2        1.0  0.7542338274779892  0.7542337326582467  0.24576626095114118  1.0000
  O   O3        1.0  0.7542337661800289  0.2457662189142964  0.24576621596379575  1.0000
  O   O4        1.0  0.24576624616837467  0.754233773424914  0.7542337984300085  1.0000
  O   O5        1.0  0.2457661875297768  0.7542338363560257  0.24576621199258578  1.0000
  O   O6        1.0  0.754233720797407  0.24576632956776603  0.7542337694366088  1.0000
