data_image0
_chemical_formula_structural       Hg2ReO6
_chemical_formula_sum              "Hg2 Re1 O6"
_cell_length_a       5.610855159483084
_cell_length_b       5.610855955328626
_cell_length_c       5.610855888185479
_cell_angle_alpha    60.000003526779835
_cell_angle_beta     60.000002159057026
_cell_angle_gamma    59.99999936871012

_space_group_name_H-M_alt    "P 1"
_space_group_IT_number       1

loop_
  _space_group_symop_operation_xyz
  'x, y, z'

loop_
  _atom_site_type_symbol
  _atom_site_label
  _atom_site_symmetry_multiplicity
  _atom_site_fract_x
  _atom_site_fract_y
  _atom_site_fract_z
  _atom_site_occupancy
  Hg  Hg1       1.0  0.25000011548542755  0.2500000005227709  0.24999983105566848  1.0000
  Hg  Hg2       1.0  0.7499999398900543  0.7500000976121001  0.7499996555572456  1.0000
  Re  Re1       1.0  0.9999999421484139  0.9999999759890621  1.0632850768322828e-08  1.0000
  O   O1        1.0  0.2400268754363163  0.24002717583083083  0.7599729617807567  1.0000
  O   O2        1.0  0.7599732647335669  0.7599728284430906  0.2400271103819599  1.0000
  O   O3        1.0  0.759973163175706  0.24002696825623662  0.2400269092480719  1.0000
  O   O4        1.0  0.24002689182898485  0.7599729334254894  0.7599734189789268  1.0000
  O   O5        1.0  0.24002676486888022  0.7599729844071159  0.24002712112607985  1.0000
  O   O6        1.0  0.7599730794518125  0.2400269936730703  0.7599732332517157  1.0000
