data_image0
_chemical_formula_structural       Hg2ReTe6
_chemical_formula_sum              "Hg2 Re1 Te6"
_cell_length_a       7.273105583772288
_cell_length_b       7.273104910439053
_cell_length_c       7.2731048036438395
_cell_angle_alpha    60.000001691076356
_cell_angle_beta     60.00001333365377
_cell_angle_gamma    60.00001986145818

_space_group_name_H-M_alt    "P 1"
_space_group_IT_number       1

loop_
  _space_group_symop_operation_xyz
  'x, y, z'

loop_
  _atom_site_type_symbol
  _atom_site_label
  _atom_site_symmetry_multiplicity
  _atom_site_fract_x
  _atom_site_fract_y
  _atom_site_fract_z
  _atom_site_occupancy
  Hg  Hg1       1.0  0.2500000802432628  0.2500000954813279  0.24999980478457842  1.0000
  Hg  Hg2       1.0  0.7499999281318143  0.7500000001746859  0.7499997440357754  1.0000
  Re  Re1       1.0  2.8557528910551114e-07  3.4352312297254e-07  3.13793200641672e-07  1.0000
  Te  Te1       1.0  0.25858874396881  0.2585886205973893  0.7414112259508883  1.0000
  Te  Te2       1.0  0.7414108788325318  0.7414107694890735  0.258589346916236  1.0000
  Te  Te3       1.0  0.7414108769042894  0.25858892691302626  0.2585883523335005  1.0000
  Te  Te4       1.0  0.2585895370623951  0.7414106854532444  0.7414115144464577  1.0000
  Te  Te5       1.0  0.258588894164849  0.7414111901024187  0.2585881409274146  1.0000
  Te  Te6       1.0  0.7414107054929706  0.2585893029625569  0.7414116142866397  1.0000
