data_image0
_chemical_formula_structural       Hg2RuSe6
_chemical_formula_sum              "Hg2 Ru1 Se6"
_cell_length_a       6.620643417206367
_cell_length_b       6.620643884234222
_cell_length_c       6.620643543609114
_cell_angle_alpha    60.00000066893628
_cell_angle_beta     59.99999823254809
_cell_angle_gamma    59.999997022772234

_space_group_name_H-M_alt    "P 1"
_space_group_IT_number       1

loop_
  _space_group_symop_operation_xyz
  'x, y, z'

loop_
  _atom_site_type_symbol
  _atom_site_label
  _atom_site_symmetry_multiplicity
  _atom_site_fract_x
  _atom_site_fract_y
  _atom_site_fract_z
  _atom_site_occupancy
  Hg  Hg1       1.0  0.24999998555661823  0.2499999811849949  0.25000002283181694  1.0000
  Hg  Hg2       1.0  0.7500000706161067  0.7500000046012788  0.7499999205820889  1.0000
  Ru  Ru1       1.0  1.070061916606977e-07  0.9999999981501074  0.999999894556898  1.0000
  Se  Se1       1.0  0.26231194042410766  0.2623117833839573  0.7376881846057534  1.0000
  Se  Se2       1.0  0.7376880707891285  0.7376882430998498  0.2623119376591111  1.0000
  Se  Se3       1.0  0.7376881628449045  0.26231177739945455  0.26231180686328265  1.0000
  Se  Se4       1.0  0.2623116521505578  0.7376881732389613  0.7376882898174577  1.0000
  Se  Se5       1.0  0.26231168236603336  0.737688187864581  0.26231184677114183  1.0000
  Se  Se6       1.0  0.7376883251474281  0.26231184971855454  0.7376881056469552  1.0000
