data_image0
_chemical_formula_structural       Hg2SrO6
_chemical_formula_sum              "Hg2 Sr1 O6"
_cell_length_a       5.788222963392294
_cell_length_b       5.788223189795364
_cell_length_c       5.788223109851094
_cell_angle_alpha    59.99999917624584
_cell_angle_beta     59.999998023091806
_cell_angle_gamma    59.99999795853693

_space_group_name_H-M_alt    "P 1"
_space_group_IT_number       1

loop_
  _space_group_symop_operation_xyz
  'x, y, z'

loop_
  _atom_site_type_symbol
  _atom_site_label
  _atom_site_symmetry_multiplicity
  _atom_site_fract_x
  _atom_site_fract_y
  _atom_site_fract_z
  _atom_site_occupancy
  Hg  Hg1       1.0  0.24999986825277257  0.2500001120960077  0.24999997503138086  1.0000
  Hg  Hg2       1.0  0.7500000272238767  0.7499999067551434  0.7500000858435816  1.0000
  Sr  Sr1       1.0  3.040775490854313e-08  0.9999999746088951  0.9999998713735233  1.0000
  O   O1        1.0  0.29712705875996054  0.2971270261839364  0.7028728968337175  1.0000
  O   O2        1.0  0.7028730213171009  0.7028729715079574  0.2971269423813472  1.0000
  O   O3        1.0  0.7028729950244585  0.29712709758884226  0.29712701509739375  1.0000
  O   O4        1.0  0.29712695346777857  0.7028729656967407  0.7028731456301063  1.0000
  O   O5        1.0  0.2971270414811064  0.7028729550280235  0.2971270039779484  1.0000
  O   O6        1.0  0.7028730268892571  0.29712699399758286  0.7028730502817222  1.0000
