data_image0
_chemical_formula_structural       Hg2SeS6
_chemical_formula_sum              "Hg2 Se1 S6"
_cell_length_a       6.526111180975503
_cell_length_b       6.526111409638285
_cell_length_c       6.526111369742503
_cell_angle_alpha    59.9999981402971
_cell_angle_beta     59.999997666965136
_cell_angle_gamma    59.99999886119555

_space_group_name_H-M_alt    "P 1"
_space_group_IT_number       1

loop_
  _space_group_symop_operation_xyz
  'x, y, z'

loop_
  _atom_site_type_symbol
  _atom_site_label
  _atom_site_symmetry_multiplicity
  _atom_site_fract_x
  _atom_site_fract_y
  _atom_site_fract_z
  _atom_site_occupancy
  Hg  Hg1       1.0  0.24999999295013892  0.2500000136453457  0.2500000216383344  1.0000
  Hg  Hg2       1.0  0.7500000610441259  0.7500000916065059  0.749999934126058  1.0000
  Se  Se1       1.0  2.999011564187242e-08  0.999999973726424  0.9999999858832818  1.0000
  S   S1        1.0  0.24009662005190058  0.24009675061251362  0.7599033421793816  1.0000
  S   S2        1.0  0.7599032360782078  0.7599033696528098  0.24009676323798534  1.0000
  S   S3        1.0  0.7599032842673765  0.24009668354379216  0.24009673837795867  1.0000
  S   S4        1.0  0.24009670812461864  0.7599032190261878  0.7599033035593266  1.0000
  S   S5        1.0  0.2400967615113327  0.7599032397333472  0.24009664694900737  1.0000
  S   S6        1.0  0.7599033341472132  0.24009662905632212  0.7599032698390997  1.0000
