data_image0
_chemical_formula_structural       Hg2SiO6
_chemical_formula_sum              "Hg2 Si1 O6"
_cell_length_a       5.285903599026293
_cell_length_b       5.285902413562339
_cell_length_c       5.285903641434954
_cell_angle_alpha    59.999995089031
_cell_angle_beta     59.99999424681628
_cell_angle_gamma    59.99999920010533

_space_group_name_H-M_alt    "P 1"
_space_group_IT_number       1

loop_
  _space_group_symop_operation_xyz
  'x, y, z'

loop_
  _atom_site_type_symbol
  _atom_site_label
  _atom_site_symmetry_multiplicity
  _atom_site_fract_x
  _atom_site_fract_y
  _atom_site_fract_z
  _atom_site_occupancy
  Hg  Hg1       1.0  0.2500000602054667  0.2499999779206966  0.2499999454031005  1.0000
  Hg  Hg2       1.0  0.7499999632690164  0.7500000287591811  0.7499999446800617  1.0000
  Si  Si1       1.0  0.9999999709845387  0.9999999559769489  2.5168311742740273e-08  1.0000
  O   O1        1.0  0.23526283984186044  0.23526286812172614  0.7647370425453327  1.0000
  O   O2        1.0  0.7647370781145257  0.7647371733131814  0.23526286400112723  1.0000
  O   O3        1.0  0.7647372101797271  0.2352628505604035  0.23526293922827135  1.0000
  O   O4        1.0  0.2352628759408333  0.7647370402693645  0.7647372290695101  1.0000
  O   O5        1.0  0.23526282519356984  0.7647371099584066  0.23526300291762667  1.0000
  O   O6        1.0  0.7647370257931875  0.2352629685485541  0.7647372496468453  1.0000
