data_image0
_chemical_formula_structural       Hg2SnO6
_chemical_formula_sum              "Hg2 Sn1 O6"
_cell_length_a       5.507234399786528
_cell_length_b       5.507234650868556
_cell_length_c       5.5072347459467705
_cell_angle_alpha    60.00000187701779
_cell_angle_beta     60.00000016003246
_cell_angle_gamma    60.000002387515416

_space_group_name_H-M_alt    "P 1"
_space_group_IT_number       1

loop_
  _space_group_symop_operation_xyz
  'x, y, z'

loop_
  _atom_site_type_symbol
  _atom_site_label
  _atom_site_symmetry_multiplicity
  _atom_site_fract_x
  _atom_site_fract_y
  _atom_site_fract_z
  _atom_site_occupancy
  Hg  Hg1       1.0  0.25000006119798884  0.2499999784836774  0.24999997394915316  1.0000
  Hg  Hg2       1.0  0.7499999087121054  0.750000093346756  0.749999796945402  1.0000
  Sn  Sn1       1.0  5.769004877631776e-08  5.337320680126693e-08  4.796859275920765e-08  1.0000
  O   O1        1.0  0.26598071205238033  0.2659806261610985  0.7340193483147683  1.0000
  O   O2        1.0  0.7340193431246694  0.7340193722811866  0.2659807852464247  1.0000
  O   O3        1.0  0.7340194226560214  0.265980465072731  0.26598067801075836  1.0000
  O   O4        1.0  0.26598066014156846  0.7340193309961504  0.7340193304790463  1.0000
  O   O5        1.0  0.26598054008794697  0.7340193575494629  0.2659807064794062  1.0000
  O   O6        1.0  0.7340193684692723  0.26598059641514765  0.7340193573933452  1.0000
