data_image0
_chemical_formula_structural       Hg2SO6
_chemical_formula_sum              "Hg2 S1 O6"
_cell_length_a       5.314995006390177
_cell_length_b       5.314997931260369
_cell_length_c       5.314998495764755
_cell_angle_alpha    60.00000892603404
_cell_angle_beta     59.99999951301116
_cell_angle_gamma    60.000017112115735

_space_group_name_H-M_alt    "P 1"
_space_group_IT_number       1

loop_
  _space_group_symop_operation_xyz
  'x, y, z'

loop_
  _atom_site_type_symbol
  _atom_site_label
  _atom_site_symmetry_multiplicity
  _atom_site_fract_x
  _atom_site_fract_y
  _atom_site_fract_z
  _atom_site_occupancy
  Hg  Hg1       1.0  0.25000022347669143  0.24999987256087378  0.24999991439520616  1.0000
  Hg  Hg2       1.0  0.7500000199350102  0.750000083154872  0.7499998620375175  1.0000
  S   S1        1.0  0.9999998810151437  1.152157191436117e-08  0.9999998204295826  1.0000
  O   O1        1.0  0.21931619608709257  0.21931671585690163  0.7806836551945229  1.0000
  O   O2        1.0  0.7806836796807365  0.780683417291349  0.21931652490460687  1.0000
  O   O3        1.0  0.7806836532144633  0.2193163831484604  0.219316541999185  1.0000
  O   O4        1.0  0.21931650827733815  0.7806835771759358  0.7806835590722985  1.0000
  O   O5        1.0  0.21931644698194613  0.7806835246146329  0.21931644865757685  1.0000
  O   O6        1.0  0.7806833746307152  0.21931633431974157  0.7806837582788708  1.0000
