data_image0
_chemical_formula_structural       Hg2ScS6
_chemical_formula_sum              "Hg2 Sc1 S6"
_cell_length_a       6.497267297738186
_cell_length_b       6.497267679978446
_cell_length_c       6.497267680468388
_cell_angle_alpha    59.999999385757484
_cell_angle_beta     59.99999957783957
_cell_angle_gamma    60.00000009836616

_space_group_name_H-M_alt    "P 1"
_space_group_IT_number       1

loop_
  _space_group_symop_operation_xyz
  'x, y, z'

loop_
  _atom_site_type_symbol
  _atom_site_label
  _atom_site_symmetry_multiplicity
  _atom_site_fract_x
  _atom_site_fract_y
  _atom_site_fract_z
  _atom_site_occupancy
  Hg  Hg1       1.0  0.25000006575696804  0.2500000280075141  0.24999996866189744  1.0000
  Hg  Hg2       1.0  0.749999964508773  0.7500001745032748  0.7500000586991398  1.0000
  Sc  Sc1       1.0  0.9999998768889989  0.9999999321394526  0.9999999954437198  1.0000
  S   S1        1.0  0.27005209530000096  0.27005204479357936  0.7299479240524004  1.0000
  S   S2        1.0  0.7299478989226796  0.7299479352854116  0.27005203861839405  1.0000
  S   S3        1.0  0.7299480042170552  0.27005198857195467  0.2700520304967784  1.0000
  S   S4        1.0  0.2700519679429674  0.7299479990470968  0.7299479886867868  1.0000
  S   S5        1.0  0.2700520997340187  0.7299480143142231  0.27005196243552526  1.0000
  S   S6        1.0  0.7299480205104171  0.27005188093907956  0.7299480442797949  1.0000
