data_image0
_chemical_formula_structural       Hg2SiS6
_chemical_formula_sum              "Hg2 Si1 S6"
_cell_length_a       6.397806889639169
_cell_length_b       6.3978076461741145
_cell_length_c       6.397807547092067
_cell_angle_alpha    59.99999981094799
_cell_angle_beta     59.99999851734208
_cell_angle_gamma    60.00000153284145

_space_group_name_H-M_alt    "P 1"
_space_group_IT_number       1

loop_
  _space_group_symop_operation_xyz
  'x, y, z'

loop_
  _atom_site_type_symbol
  _atom_site_label
  _atom_site_symmetry_multiplicity
  _atom_site_fract_x
  _atom_site_fract_y
  _atom_site_fract_z
  _atom_site_occupancy
  Hg  Hg1       1.0  0.24999995568774552  0.24999996237146344  0.2500000520905752  1.0000
  Hg  Hg2       1.0  0.7499999884408809  0.7500000211167633  0.7499999238583429  1.0000
  Si  Si1       1.0  1.1995761346424144e-08  1.914318799932922e-09  4.4625129948781135e-08  1.0000
  S   S1        1.0  0.24981848108232174  0.24981862659427728  0.7501815020539832  1.0000
  S   S2        1.0  0.7501813752441361  0.7501815444972668  0.24981862093682516  1.0000
  S   S3        1.0  0.7501813865257074  0.24981863759124887  0.24981850713588277  1.0000
  S   S4        1.0  0.24981872645697642  0.7501812616669161  0.7501813874251542  1.0000
  S   S5        1.0  0.2498186029407755  0.7501813649851151  0.24981853783559863  1.0000
  S   S6        1.0  0.7501814519398641  0.24981858404535834  0.7501814249747586  1.0000
