data_image0
_chemical_formula_structural       Hg2ScTe6
_chemical_formula_sum              "Hg2 Sc1 Te6"
_cell_length_a       7.495277978955019
_cell_length_b       7.495278594612725
_cell_length_c       7.495278896089636
_cell_angle_alpha    59.99999989338347
_cell_angle_beta     59.99999696994457
_cell_angle_gamma    60.00000325086622

_space_group_name_H-M_alt    "P 1"
_space_group_IT_number       1

loop_
  _space_group_symop_operation_xyz
  'x, y, z'

loop_
  _atom_site_type_symbol
  _atom_site_label
  _atom_site_symmetry_multiplicity
  _atom_site_fract_x
  _atom_site_fract_y
  _atom_site_fract_z
  _atom_site_occupancy
  Hg  Hg1       1.0  0.24999996269877875  0.24999998250376426  0.2500000225555168  1.0000
  Hg  Hg2       1.0  0.749999980234193  0.7499999899958609  0.7499999496567585  1.0000
  Sc  Sc1       1.0  0.9999999448491343  9.150522206031741e-08  3.9274815836022507e-07  1.0000
  Te  Te1       1.0  0.27332417119133723  0.2733243565114237  0.7266757159513121  1.0000
  Te  Te2       1.0  0.7266758900078067  0.7266756078180966  0.2733242692557621  1.0000
  Te  Te3       1.0  0.726676059766535  0.27332409068277314  0.27332418544593956  1.0000
  Te  Te4       1.0  0.2733241808570925  0.7266757282188123  0.7266756106545215  1.0000
  Te  Te5       1.0  0.2733239439442112  0.7266758380535235  0.27332436504181845  1.0000
  Te  Te6       1.0  0.7266758599608534  0.27332431582251393  0.726675483264871  1.0000
