data_image0
_chemical_formula_structural       Hg2SeO6
_chemical_formula_sum              "Hg2 Se1 O6"
_cell_length_a       5.355821177461945
_cell_length_b       5.3558207448498285
_cell_length_c       5.355821070654668
_cell_angle_alpha    59.99999852159618
_cell_angle_beta     59.99999769764182
_cell_angle_gamma    59.99999846401364

_space_group_name_H-M_alt    "P 1"
_space_group_IT_number       1

loop_
  _space_group_symop_operation_xyz
  'x, y, z'

loop_
  _atom_site_type_symbol
  _atom_site_label
  _atom_site_symmetry_multiplicity
  _atom_site_fract_x
  _atom_site_fract_y
  _atom_site_fract_z
  _atom_site_occupancy
  Hg  Hg1       1.0  0.2499999824673091  0.2500000320064932  0.24999993116692734  1.0000
  Hg  Hg2       1.0  0.749999980287084  0.7500000297035917  0.7499999147752779  1.0000
  Se  Se1       1.0  0.9999998815073908  7.088939850266209e-08  2.1934480910166826e-08  1.0000
  O   O1        1.0  0.24304446145240957  0.24304444125309832  0.7569555477992342  1.0000
  O   O2        1.0  0.7569556292256087  0.756955469531172  0.24304448141977827  1.0000
  O   O3        1.0  0.756955521938534  0.24304443305168671  0.24304453463453987  1.0000
  O   O4        1.0  0.24304450543157502  0.7569555188941711  0.7569555766084742  1.0000
  O   O5        1.0  0.24304458755574873  0.7569554414290114  0.24304453735488074  1.0000
  O   O6        1.0  0.7569554576711748  0.24304455396518818  0.7569555301656637  1.0000
