data_image0
_chemical_formula_structural       Hg2SrTe6
_chemical_formula_sum              "Hg2 Sr1 Te6"
_cell_length_a       8.075339827444628
_cell_length_b       8.075339641645487
_cell_length_c       8.075339856555589
_cell_angle_alpha    59.99999841223901
_cell_angle_beta     59.9999998181857
_cell_angle_gamma    59.99999848847462

_space_group_name_H-M_alt    "P 1"
_space_group_IT_number       1

loop_
  _space_group_symop_operation_xyz
  'x, y, z'

loop_
  _atom_site_type_symbol
  _atom_site_label
  _atom_site_symmetry_multiplicity
  _atom_site_fract_x
  _atom_site_fract_y
  _atom_site_fract_z
  _atom_site_occupancy
  Hg  Hg1       1.0  0.24999998907581936  0.24999997918312683  0.2500000171057067  1.0000
  Hg  Hg2       1.0  0.7500000124492487  0.749999990632066  0.74999999101984  1.0000
  Sr  Sr1       1.0  0.9999999862931925  0.9999999939334079  0.999999955399829  1.0000
  Te  Te1       1.0  0.29711191826753414  0.2971119504771852  0.7028880767086443  1.0000
  Te  Te2       1.0  0.7028880893662182  0.7028880739373408  0.2971119382130327  1.0000
  Te  Te3       1.0  0.7028880717281076  0.29711193547853726  0.29711193333435904  1.0000
  Te  Te4       1.0  0.2971119493101447  0.7028880358533034  0.7028880828513412  1.0000
  Te  Te5       1.0  0.297111916795029  0.7028880526612542  0.297111950232037  1.0000
  Te  Te6       1.0  0.702888067281144  0.2971119823698091  0.7028880563001051  1.0000
