data_image0
_chemical_formula_structural       Hg2SnS6
_chemical_formula_sum              "Hg2 Sn1 S6"
_cell_length_a       6.510424367237392
_cell_length_b       6.510424008532813
_cell_length_c       6.510424246356655
_cell_angle_alpha    59.999999582645955
_cell_angle_beta     60.000002032099
_cell_angle_gamma    59.99999942428302

_space_group_name_H-M_alt    "P 1"
_space_group_IT_number       1

loop_
  _space_group_symop_operation_xyz
  'x, y, z'

loop_
  _atom_site_type_symbol
  _atom_site_label
  _atom_site_symmetry_multiplicity
  _atom_site_fract_x
  _atom_site_fract_y
  _atom_site_fract_z
  _atom_site_occupancy
  Hg  Hg1       1.0  0.24999993377716917  0.2500000253324446  0.2499999626905839  1.0000
  Hg  Hg2       1.0  0.7500000484392573  0.7499999838182395  0.7499999688152418  1.0000
  Sn  Sn1       1.0  1.3599371773619003e-07  9.217909582861285e-08  0.9999999488895219  1.0000
  S   S1        1.0  0.27017167559264404  0.27017164068509475  0.7298283622909867  1.0000
  S   S2        1.0  0.7298282654555991  0.7298282950985545  0.27017167717038804  1.0000
  S   S3        1.0  0.7298283253971117  0.2701716954816959  0.2701717205714077  1.0000
  S   S4        1.0  0.2701717245949401  0.729828200796627  0.7298283133546929  1.0000
  S   S5        1.0  0.2701715461430154  0.7298283439903488  0.2701717054305986  1.0000
  S   S6        1.0  0.7298283466394009  0.2701717046656619  0.729828344735459  1.0000
