data_image0
_chemical_formula_structural       Hg2SrSe6
_chemical_formula_sum              "Hg2 Sr1 Se6"
_cell_length_a       7.355861058615927
_cell_length_b       7.355861583593301
_cell_length_c       7.35586067921246
_cell_angle_alpha    59.999998873158646
_cell_angle_beta     59.9999959015996
_cell_angle_gamma    60.00000772597814

_space_group_name_H-M_alt    "P 1"
_space_group_IT_number       1

loop_
  _space_group_symop_operation_xyz
  'x, y, z'

loop_
  _atom_site_type_symbol
  _atom_site_label
  _atom_site_symmetry_multiplicity
  _atom_site_fract_x
  _atom_site_fract_y
  _atom_site_fract_z
  _atom_site_occupancy
  Hg  Hg1       1.0  0.2499999873425252  0.24999994627291675  0.2500001484115624  1.0000
  Hg  Hg2       1.0  0.7499999332004117  0.7499998687886108  0.7500000952820617  1.0000
  Sr  Sr1       1.0  0.9999997942323264  6.160467901337825e-08  0.9999999361354815  1.0000
  Se  Se1       1.0  0.3091604250921732  0.3091602325923503  0.6908396007048698  1.0000
  Se  Se2       1.0  0.6908395093691176  0.690839785598155  0.30916076829223826  1.0000
  Se  Se3       1.0  0.6908393662420118  0.309160091873485  0.3091607821830326  1.0000
  Se  Se4       1.0  0.3091597955007301  0.6908406056335633  0.6908394785366202  1.0000
  Se  Se5       1.0  0.3091605400076208  0.6908396823445183  0.30916001981796254  1.0000
  Se  Se6       1.0  0.6908406510883451  0.3091597164692249  0.6908391632145359  1.0000
