data_image0
_chemical_formula_structural       Hg2SnS6
_chemical_formula_sum              "Hg2 Sn1 S6"
_cell_length_a       6.511815829945792
_cell_length_b       6.511816010998708
_cell_length_c       6.51181581395115
_cell_angle_alpha    60.00000310300795
_cell_angle_beta     59.99999961766964
_cell_angle_gamma    60.000002290938724

_space_group_name_H-M_alt    "P 1"
_space_group_IT_number       1

loop_
  _space_group_symop_operation_xyz
  'x, y, z'

loop_
  _atom_site_type_symbol
  _atom_site_label
  _atom_site_symmetry_multiplicity
  _atom_site_fract_x
  _atom_site_fract_y
  _atom_site_fract_z
  _atom_site_occupancy
  Hg  Hg1       1.0  0.25000014801891507  0.250000145251375  0.24999978628410496  1.0000
  Hg  Hg2       1.0  0.7500001440324026  0.7499997718303935  0.7500001049615774  1.0000
  Sn  Sn1       1.0  3.252362066335695e-08  2.162924342272614e-07  0.999999817236517  1.0000
  S   S1        1.0  0.2701462682996892  0.2701466888214275  0.7298535103567279  1.0000
  S   S2        1.0  0.7298531720438198  0.7298531022464821  0.27014680371598054  1.0000
  S   S3        1.0  0.7298534099156423  0.2701466471145175  0.2701463138538538  1.0000
  S   S4        1.0  0.27014665616292705  0.7298533414377831  0.7298532292623567  1.0000
  S   S5        1.0  0.27014673412473406  0.7298534650960413  0.2701467538361139  1.0000
  S   S6        1.0  0.7298534569748142  0.2701466005692404  0.7298536787202485  1.0000
