data_image0
_chemical_formula_structural       Hg2SnO6
_chemical_formula_sum              "Hg2 Sn1 O6"
_cell_length_a       5.50872080092904
_cell_length_b       5.508720092194002
_cell_length_c       5.508720543801798
_cell_angle_alpha    59.999999995439055
_cell_angle_beta     59.999998931487575
_cell_angle_gamma    60.00000156355821

_space_group_name_H-M_alt    "P 1"
_space_group_IT_number       1

loop_
  _space_group_symop_operation_xyz
  'x, y, z'

loop_
  _atom_site_type_symbol
  _atom_site_label
  _atom_site_symmetry_multiplicity
  _atom_site_fract_x
  _atom_site_fract_y
  _atom_site_fract_z
  _atom_site_occupancy
  Hg  Hg1       1.0  0.2499999760042408  0.24999999791340655  0.24999999835274914  1.0000
  Hg  Hg2       1.0  0.7499998691938755  0.750000000410071  0.7500000774071568  1.0000
  Sn  Sn1       1.0  0.9999999385147127  0.999999926631628  5.6535008009478794e-08  1.0000
  O   O1        1.0  0.2659366675817039  0.2659366802222933  0.734063331044258  1.0000
  O   O2        1.0  0.7340634004421493  0.7340632847519374  0.2659366971752903  1.0000
  O   O3        1.0  0.7340633224164326  0.2659366067905039  0.26593660026373495  1.0000
  O   O4        1.0  0.26593676442897635  0.7340634337753803  0.7340633771186028  1.0000
  O   O5        1.0  0.26593667431600454  0.7340634392427874  0.2659366267505603  1.0000
  O   O6        1.0  0.7340633575213665  0.26593662800250295  0.7340634083633804  1.0000
