data_image0
_chemical_formula_structural       Hg2ScO6
_chemical_formula_sum              "Hg2 Sc1 O6"
_cell_length_a       5.447962221452282
_cell_length_b       5.4479625940369045
_cell_length_c       5.447962244914726
_cell_angle_alpha    59.999998594699136
_cell_angle_beta     59.99999968499437
_cell_angle_gamma    59.99999938679913

_space_group_name_H-M_alt    "P 1"
_space_group_IT_number       1

loop_
  _space_group_symop_operation_xyz
  'x, y, z'

loop_
  _atom_site_type_symbol
  _atom_site_label
  _atom_site_symmetry_multiplicity
  _atom_site_fract_x
  _atom_site_fract_y
  _atom_site_fract_z
  _atom_site_occupancy
  Hg  Hg1       1.0  0.25000003431512885  0.2499999807251866  0.24999997402915913  1.0000
  Hg  Hg2       1.0  0.7500000686254752  0.7500000006256  0.7500000935772814  1.0000
  Sc  Sc1       1.0  0.9999998969778656  6.744236588396293e-08  0.9999999480390321  1.0000
  O   O1        1.0  0.2708305630510009  0.2708304942658382  0.729169470213208  1.0000
  O   O2        1.0  0.729169454617017  0.7291694758445634  0.27083045291710506  1.0000
  O   O3        1.0  0.7291694987466995  0.27083052511167155  0.27083049619909483  1.0000
  O   O4        1.0  0.2708305027146058  0.7291694427506494  0.7291694857184297  1.0000
  O   O5        1.0  0.27083056483780604  0.729169449527549  0.2708305847810466  1.0000
  O   O6        1.0  0.7291694079348137  0.2708305408155551  0.7291695195510939  1.0000
