data_image0
_chemical_formula_structural       Hg2SrS6
_chemical_formula_sum              "Hg2 Sr1 S6"
_cell_length_a       7.172103402915881
_cell_length_b       7.172103782486297
_cell_length_c       7.172103306387056
_cell_angle_alpha    59.999998541178606
_cell_angle_beta     59.99999851670751
_cell_angle_gamma    59.99999449634423

_space_group_name_H-M_alt    "P 1"
_space_group_IT_number       1

loop_
  _space_group_symop_operation_xyz
  'x, y, z'

loop_
  _atom_site_type_symbol
  _atom_site_label
  _atom_site_symmetry_multiplicity
  _atom_site_fract_x
  _atom_site_fract_y
  _atom_site_fract_z
  _atom_site_occupancy
  Hg  Hg1       1.0  0.2500001993485336  0.2499999723242981  0.24999992966102486  1.0000
  Hg  Hg2       1.0  0.7500000746513231  0.750000009186075  0.7499999097618314  1.0000
  Sr  Sr1       1.0  0.9999998760308659  6.4496501748357846e-15  9.544755263064712e-08  1.0000
  S   S1        1.0  0.29596953838770684  0.29596935299256516  0.7040306371369006  1.0000
  S   S2        1.0  0.7040305437640144  0.7040305858265409  0.2959695454308234  1.0000
  S   S3        1.0  0.7040303011248373  0.29596936912119565  0.2959695526425048  1.0000
  S   S4        1.0  0.29596948313157634  0.704030487730695  0.7040306218671474  1.0000
  S   S5        1.0  0.29596944331850983  0.7040306792590201  0.2959693099989149  1.0000
  S   S6        1.0  0.7040305432047496  0.2959695464454464  0.7040303962988756  1.0000
