data_image0
_chemical_formula_structural       Hg2ScSe6
_chemical_formula_sum              "Hg2 Sc1 Se6"
_cell_length_a       6.654266499013014
_cell_length_b       6.654266430215799
_cell_length_c       6.654265842029444
_cell_angle_alpha    60.000003995046335
_cell_angle_beta     59.99999810464089
_cell_angle_gamma    60.00000150064877

_space_group_name_H-M_alt    "P 1"
_space_group_IT_number       1

loop_
  _space_group_symop_operation_xyz
  'x, y, z'

loop_
  _atom_site_type_symbol
  _atom_site_label
  _atom_site_symmetry_multiplicity
  _atom_site_fract_x
  _atom_site_fract_y
  _atom_site_fract_z
  _atom_site_occupancy
  Hg  Hg1       1.0  0.24999997210964517  0.24999998447472643  0.2500000664250344  1.0000
  Hg  Hg2       1.0  0.7500000272815053  0.7499999589457974  0.7500000148031928  1.0000
  Sc  Sc1       1.0  0.9999998550637628  0.9999998049026746  0.9999997913123483  1.0000
  Se  Se1       1.0  0.28402626528868147  0.2840261073725347  0.7159739503555951  1.0000
  Se  Se2       1.0  0.7159738663897034  0.7159736630371722  0.28402641272081364  1.0000
  Se  Se3       1.0  0.7159739463109573  0.2840260287080528  0.28402627523852947  1.0000
  Se  Se4       1.0  0.28402637463612135  0.7159737048908326  0.7159737696588785  1.0000
  Se  Se5       1.0  0.2840260135085156  0.7159741476758684  0.284026200998412  1.0000
  Se  Se6       1.0  0.7159736806175907  0.28402660742309704  0.7159735037939131  1.0000
