data_image0
_chemical_formula_structural       Hg2SnTe6
_chemical_formula_sum              "Hg2 Sn1 Te6"
_cell_length_a       7.551970409946562
_cell_length_b       7.551970254870397
_cell_length_c       7.551969707132009
_cell_angle_alpha    60.00000153918285
_cell_angle_beta     60.00000230045083
_cell_angle_gamma    60.0000076283312

_space_group_name_H-M_alt    "P 1"
_space_group_IT_number       1

loop_
  _space_group_symop_operation_xyz
  'x, y, z'

loop_
  _atom_site_type_symbol
  _atom_site_label
  _atom_site_symmetry_multiplicity
  _atom_site_fract_x
  _atom_site_fract_y
  _atom_site_fract_z
  _atom_site_occupancy
  Hg  Hg1       1.0  0.2500000344188401  0.24999998002552787  0.2500000223145133  1.0000
  Hg  Hg2       1.0  0.7499999924261246  0.7499999789987042  0.7500000049099965  1.0000
  Sn  Sn1       1.0  5.390482326070392e-08  0.9999997924153173  1.549652441095757e-07  1.0000
  Te  Te1       1.0  0.27952125152194707  0.27952137882463207  0.7204786142138933  1.0000
  Te  Te2       1.0  0.7204789936102891  0.7204788931984025  0.2795210440832636  1.0000
  Te  Te3       1.0  0.7204788059107108  0.27952111761149756  0.2795213118378482  1.0000
  Te  Te4       1.0  0.2795210504117135  0.7204788300604335  0.7204788712078183  1.0000
  Te  Te5       1.0  0.2795210300098045  0.7204788557678179  0.2795212734981133  1.0000
  Te  Te6       1.0  0.7204787882252458  0.2795211648831027  0.7204787093679612  1.0000
