data_image0
_chemical_formula_structural       Hg2TaO6
_chemical_formula_sum              "Hg2 Ta1 O6"
_cell_length_a       5.516436273233708
_cell_length_b       5.516436892311089
_cell_length_c       5.516435825365071
_cell_angle_alpha    60.00000056384421
_cell_angle_beta     60.000001682510536
_cell_angle_gamma    60.00000082993163

_space_group_name_H-M_alt    "P 1"
_space_group_IT_number       1

loop_
  _space_group_symop_operation_xyz
  'x, y, z'

loop_
  _atom_site_type_symbol
  _atom_site_label
  _atom_site_symmetry_multiplicity
  _atom_site_fract_x
  _atom_site_fract_y
  _atom_site_fract_z
  _atom_site_occupancy
  Hg  Hg1       1.0  0.2499997953297288  0.24999989567291514  0.250000137468566  1.0000
  Hg  Hg2       1.0  0.7499999547626495  0.7500000466868693  0.7500002472910559  1.0000
  Ta  Ta1       1.0  2.136769629191909e-09  0.9999999245140888  7.65553969346278e-08  1.0000
  O   O1        1.0  0.25429737856380547  0.25429742373115866  0.7457025629864115  1.0000
  O   O2        1.0  0.7457026797331532  0.745702711783763  0.25429719041275856  1.0000
  O   O3        1.0  0.7457028109765457  0.2542972792286606  0.25429723464230153  1.0000
  O   O4        1.0  0.2542972120335284  0.7457027674793008  0.745702738514322  1.0000
  O   O5        1.0  0.25429730823422436  0.7457028203186753  0.2542971685228295  1.0000
  O   O6        1.0  0.7457028455482633  0.2542972108480752  0.7457026164991358  1.0000
