data_image0
_chemical_formula_structural       Hg2TiSe6
_chemical_formula_sum              "Hg2 Ti1 Se6"
_cell_length_a       6.728372407117075
_cell_length_b       6.728371933161951
_cell_length_c       6.728372638457133
_cell_angle_alpha    59.99999398297222
_cell_angle_beta     59.999995902625336
_cell_angle_gamma    59.999995338328034

_space_group_name_H-M_alt    "P 1"
_space_group_IT_number       1

loop_
  _space_group_symop_operation_xyz
  'x, y, z'

loop_
  _atom_site_type_symbol
  _atom_site_label
  _atom_site_symmetry_multiplicity
  _atom_site_fract_x
  _atom_site_fract_y
  _atom_site_fract_z
  _atom_site_occupancy
  Hg  Hg1       1.0  0.2500000025704434  0.2500000313788456  0.24999997421678896  1.0000
  Hg  Hg2       1.0  0.7500000007961476  0.7500000067636045  0.750000008436757  1.0000
  Ti  Ti1       1.0  1.0446006624689517e-07  4.186619031157599e-08  2.8056281805827436e-07  1.0000
  Se  Se1       1.0  0.25897508712812817  0.2589750301338721  0.7410247450347067  1.0000
  Se  Se2       1.0  0.7410249407495935  0.7410250425937052  0.2589747309865503  1.0000
  Se  Se3       1.0  0.7410247579585066  0.2589750554915873  0.25897506230432943  1.0000
  Se  Se4       1.0  0.2589748927968962  0.7410249644481678  0.7410251057561662  1.0000
  Se  Se5       1.0  0.25897511439659954  0.7410248164451873  0.258975109141109  1.0000
  Se  Se6       1.0  0.7410251025063997  0.2589750032649325  0.7410249859424153  1.0000
