data_image0
_chemical_formula_structural       Hg2TiS6
_chemical_formula_sum              "Hg2 Ti1 S6"
_cell_length_a       6.361366766499992
_cell_length_b       6.361366722993245
_cell_length_c       6.361367519070776
_cell_angle_alpha    60.00000127158169
_cell_angle_beta     59.99999905099066
_cell_angle_gamma    60.00000173896424

_space_group_name_H-M_alt    "P 1"
_space_group_IT_number       1

loop_
  _space_group_symop_operation_xyz
  'x, y, z'

loop_
  _atom_site_type_symbol
  _atom_site_label
  _atom_site_symmetry_multiplicity
  _atom_site_fract_x
  _atom_site_fract_y
  _atom_site_fract_z
  _atom_site_occupancy
  Hg  Hg1       1.0  0.2500000193607863  0.249999855547521  0.25000000456021787  1.0000
  Hg  Hg2       1.0  0.7499999249607615  0.7500000749179947  0.7499999345709976  1.0000
  Ti  Ti1       1.0  0.9999998179004673  0.9999997131324257  2.31339559596671e-07  1.0000
  S   S1        1.0  0.26008327535107345  0.26008357047530684  0.7399166785833929  1.0000
  S   S2        1.0  0.7399166327927043  0.7399165120877926  0.26008345882213424  1.0000
  S   S3        1.0  0.7399167162611076  0.2600833964967586  0.2600832792587875  1.0000
  S   S4        1.0  0.2600835754733012  0.739916591727339  0.7399165594660043  1.0000
  S   S5        1.0  0.2600833715035988  0.7399167794491645  0.2600831872909443  1.0000
  S   S6        1.0  0.7399166255617131  0.26008352644707416  0.7399166949519481  1.0000
