data_image0
_chemical_formula_structural       Hg2TeO6
_chemical_formula_sum              "Hg2 Te1 O6"
_cell_length_a       5.566318556197827
_cell_length_b       5.566318219270177
_cell_length_c       5.566318408157273
_cell_angle_alpha    60.000000759942836
_cell_angle_beta     60.0000013311383
_cell_angle_gamma    60.000001971983046

_space_group_name_H-M_alt    "P 1"
_space_group_IT_number       1

loop_
  _space_group_symop_operation_xyz
  'x, y, z'

loop_
  _atom_site_type_symbol
  _atom_site_label
  _atom_site_symmetry_multiplicity
  _atom_site_fract_x
  _atom_site_fract_y
  _atom_site_fract_z
  _atom_site_occupancy
  Hg  Hg1       1.0  0.24999993680516727  0.25000005876873144  0.24999999690718883  1.0000
  Hg  Hg2       1.0  0.7499999720782575  0.7500000024842214  0.7500000129698495  1.0000
  Te  Te1       1.0  0.9999999736398437  4.400555966304484e-09  2.535195677457178e-08  1.0000
  O   O1        1.0  0.2453457840430583  0.24534569237600304  0.7546542556697803  1.0000
  O   O2        1.0  0.7546542913422523  0.7546542676641573  0.2453457251557499  1.0000
  O   O3        1.0  0.7546542267829263  0.24534576927570348  0.24534579779832735  1.0000
  O   O4        1.0  0.24534575007533097  0.7546542809758616  0.7546542518597326  1.0000
  O   O5        1.0  0.24534580310073287  0.7546542269702509  0.24534574138764792  1.0000
  O   O6        1.0  0.7546542483763713  0.24534571766796054  0.75465421417997  1.0000
