data_image0
_chemical_formula_structural       Hg2TaTe6
_chemical_formula_sum              "Hg2 Ta1 Te6"
_cell_length_a       7.37529064789523
_cell_length_b       7.375290345488149
_cell_length_c       7.375291221498038
_cell_angle_alpha    59.999992799596384
_cell_angle_beta     59.99999873043355
_cell_angle_gamma    60.00000610343989

_space_group_name_H-M_alt    "P 1"
_space_group_IT_number       1

loop_
  _space_group_symop_operation_xyz
  'x, y, z'

loop_
  _atom_site_type_symbol
  _atom_site_label
  _atom_site_symmetry_multiplicity
  _atom_site_fract_x
  _atom_site_fract_y
  _atom_site_fract_z
  _atom_site_occupancy
  Hg  Hg1       1.0  0.249999970151744  0.2499999858226407  0.24999998971922485  1.0000
  Hg  Hg2       1.0  0.7500000102759188  0.7499999773951999  0.7499999784335047  1.0000
  Ta  Ta1       1.0  0.9999997707987465  1.1458176657765086e-07  5.59538597417796e-08  1.0000
  Te  Te1       1.0  0.2644799167722016  0.26447981400396364  0.7355201738629701  1.0000
  Te  Te2       1.0  0.7355201726339154  0.7355200993957139  0.26447987453578775  1.0000
  Te  Te3       1.0  0.7355200644220081  0.26448000667091287  0.2644800122062167  1.0000
  Te  Te4       1.0  0.2644800976028936  0.7355199847772487  0.7355198035769809  1.0000
  Te  Te5       1.0  0.2644798786135915  0.7355201722862005  0.2644799585624214  1.0000
  Te  Te6       1.0  0.7355201075854628  0.26447984407101693  0.7355201347050901  1.0000
