data_image0
_chemical_formula_structural       Hg2TaS6
_chemical_formula_sum              "Hg2 Ta1 S6"
_cell_length_a       6.343260031705911
_cell_length_b       6.3432600373033345
_cell_length_c       6.343260785068315
_cell_angle_alpha    59.99999681386535
_cell_angle_beta     59.99999166579668
_cell_angle_gamma    59.99999698247377

_space_group_name_H-M_alt    "P 1"
_space_group_IT_number       1

loop_
  _space_group_symop_operation_xyz
  'x, y, z'

loop_
  _atom_site_type_symbol
  _atom_site_label
  _atom_site_symmetry_multiplicity
  _atom_site_fract_x
  _atom_site_fract_y
  _atom_site_fract_z
  _atom_site_occupancy
  Hg  Hg1       1.0  0.2500000070096156  0.25000010879901674  0.2499999315675719  1.0000
  Hg  Hg2       1.0  0.7499999854547171  0.7499999962334197  0.750000106842648  1.0000
  Ta  Ta1       1.0  0.9999998832951553  0.999999978761408  2.4080763376395737e-07  1.0000
  S   S1        1.0  0.26590100235587855  0.26590059709712643  0.7340991211137209  1.0000
  S   S2        1.0  0.7340991666707765  0.7340991584638548  0.26590074363247584  1.0000
  S   S3        1.0  0.7340989962056473  0.26590110076761  0.26590087198202383  1.0000
  S   S4        1.0  0.26590099484213436  0.7340990467420169  0.7340990576152064  1.0000
  S   S5        1.0  0.2659009816820153  0.7340990448152247  0.2659008528147855  1.0000
  S   S6        1.0  0.7340989954308004  0.2659009424395365  0.7340990645593561  1.0000
