data_image0
_chemical_formula_structural       Hg2TiSe6
_chemical_formula_sum              "Hg2 Ti1 Se6"
_cell_length_a       6.7289930310261035
_cell_length_b       6.728993334388058
_cell_length_c       6.728993076697411
_cell_angle_alpha    60.000000666292934
_cell_angle_beta     59.999998942834154
_cell_angle_gamma    60.00000006590204

_space_group_name_H-M_alt    "P 1"
_space_group_IT_number       1

loop_
  _space_group_symop_operation_xyz
  'x, y, z'

loop_
  _atom_site_type_symbol
  _atom_site_label
  _atom_site_symmetry_multiplicity
  _atom_site_fract_x
  _atom_site_fract_y
  _atom_site_fract_z
  _atom_site_occupancy
  Hg  Hg1       1.0  0.2499999668348274  0.24999998883533744  0.2500000479385655  1.0000
  Hg  Hg2       1.0  0.749999995283434  0.7499999756065177  0.7500000071678999  1.0000
  Ti  Ti1       1.0  0.9999999695996663  0.9999998543919073  1.3258740751036005e-07  1.0000
  Se  Se1       1.0  0.2589450998220785  0.2589450724626405  0.7410549472103352  1.0000
  Se  Se2       1.0  0.7410548880689578  0.7410550102857891  0.25894515771718346  1.0000
  Se  Se3       1.0  0.741054877938231  0.2589451543170442  0.25894507305644315  1.0000
  Se  Se4       1.0  0.2589450898276001  0.7410549939550282  0.7410547803114633  1.0000
  Se  Se5       1.0  0.25894517563785596  0.7410548464718435  0.2589450507389889  1.0000
  Se  Se6       1.0  0.7410549367961713  0.2589450943086955  0.7410548132350963  1.0000
