data_image0
_chemical_formula_structural       Hg2TaSe6
_chemical_formula_sum              "Hg2 Ta1 Se6"
_cell_length_a       6.652423644520204
_cell_length_b       6.652423861294011
_cell_length_c       6.652423499626649
_cell_angle_alpha    60.00000119782324
_cell_angle_beta     60.00000080814313
_cell_angle_gamma    59.9999999121137

_space_group_name_H-M_alt    "P 1"
_space_group_IT_number       1

loop_
  _space_group_symop_operation_xyz
  'x, y, z'

loop_
  _atom_site_type_symbol
  _atom_site_label
  _atom_site_symmetry_multiplicity
  _atom_site_fract_x
  _atom_site_fract_y
  _atom_site_fract_z
  _atom_site_occupancy
  Hg  Hg1       1.0  0.2499999514428357  0.2500000551676507  0.24999997621191153  1.0000
  Hg  Hg2       1.0  0.7500000040099962  0.7499999924441986  0.7499999403243676  1.0000
  Ta  Ta1       1.0  4.491915509148115e-08  1.104630351966651e-08  0.9999998397346521  1.0000
  Se  Se1       1.0  0.26763619673102146  0.267636323217405  0.7323637736182502  1.0000
  Se  Se2       1.0  0.7323637682248735  0.732363711507089  0.26763632649877556  1.0000
  Se  Se3       1.0  0.7323635919003638  0.26763633796075437  0.26763641682300426  1.0000
  Se  Se4       1.0  0.2676364298994524  0.732363567890201  0.7323636742124834  1.0000
  Se  Se5       1.0  0.2676363855485053  0.7323636632607533  0.2676363910087728  1.0000
  Se  Se6       1.0  0.7323636223110419  0.2676363364837798  0.7323636765853874  1.0000
