data_image0
_chemical_formula_structural       Hg2TiTe6
_chemical_formula_sum              "Hg2 Ti1 Te6"
_cell_length_a       7.277994066787964
_cell_length_b       7.277994340268827
_cell_length_c       7.27799463680215
_cell_angle_alpha    59.99999790503296
_cell_angle_beta     60.0000004608127
_cell_angle_gamma    60.00000485310787

_space_group_name_H-M_alt    "P 1"
_space_group_IT_number       1

loop_
  _space_group_symop_operation_xyz
  'x, y, z'

loop_
  _atom_site_type_symbol
  _atom_site_label
  _atom_site_symmetry_multiplicity
  _atom_site_fract_x
  _atom_site_fract_y
  _atom_site_fract_z
  _atom_site_occupancy
  Hg  Hg1       1.0  0.25000000948203566  0.24999995867633068  0.25000002599050386  1.0000
  Hg  Hg2       1.0  0.7499999956231487  0.7499999887769578  0.7499999803008025  1.0000
  Ti  Ti1       1.0  1.9086611385408595e-07  1.4135565862785474e-07  4.5493931395724953e-07  1.0000
  Te  Te1       1.0  0.264676361389634  0.26467648363051716  0.7353235550587888  1.0000
  Te  Te2       1.0  0.735323373358961  0.7353234419462861  0.26467650941273746  1.0000
  Te  Te3       1.0  0.735323463536707  0.26467664062102897  0.264676355403592  1.0000
  Te  Te4       1.0  0.26467690850212394  0.7353230342177999  0.7353233371711879  1.0000
  Te  Te5       1.0  0.2646764914734044  0.7353233280255236  0.2646765226931454  1.0000
  Te  Te6       1.0  0.7353232018896095  0.26467699301056574  0.7353232603171559  1.0000
