data_image0
_chemical_formula_structural       Hg2TiTe6
_chemical_formula_sum              "Hg2 Ti1 Te6"
_cell_length_a       7.278445097240482
_cell_length_b       7.278445494227782
_cell_length_c       7.278444581386644
_cell_angle_alpha    60.00000655728667
_cell_angle_beta     59.99999714777303
_cell_angle_gamma    59.999991810976034

_space_group_name_H-M_alt    "P 1"
_space_group_IT_number       1

loop_
  _space_group_symop_operation_xyz
  'x, y, z'

loop_
  _atom_site_type_symbol
  _atom_site_label
  _atom_site_symmetry_multiplicity
  _atom_site_fract_x
  _atom_site_fract_y
  _atom_site_fract_z
  _atom_site_occupancy
  Hg  Hg1       1.0  0.24999992458433937  0.2500000731796281  0.25000002185928516  1.0000
  Hg  Hg2       1.0  0.7500000664520232  0.7499999839606897  0.7500000095390361  1.0000
  Ti  Ti1       1.0  3.6281667589114084e-07  1.9182789768721952e-07  1.788191160308103e-07  1.0000
  Te  Te1       1.0  0.26460810199628215  0.2646086426307782  0.7353915779547526  1.0000
  Te  Te2       1.0  0.7353916549691506  0.7353911267676747  0.26460852749686065  1.0000
  Te  Te3       1.0  0.7353922276901242  0.26460770151057056  0.26460785546504056  1.0000
  Te  Te4       1.0  0.26460801552031904  0.7353919988970774  0.7353921608904829  1.0000
  Te  Te5       1.0  0.2646077525172599  0.7353921955492797  0.26460775081236465  1.0000
  Te  Te6       1.0  0.7353918803103549  0.2646080938038176  0.7353919094252643  1.0000
