data_image0
_chemical_formula_structural       Hg2TeSe6
_chemical_formula_sum              "Hg2 Te1 Se6"
_cell_length_a       6.844822270196008
_cell_length_b       6.844822433107926
_cell_length_c       6.844822402691184
_cell_angle_alpha    59.99999759682132
_cell_angle_beta     59.9999985162435
_cell_angle_gamma    59.99999686756451

_space_group_name_H-M_alt    "P 1"
_space_group_IT_number       1

loop_
  _space_group_symop_operation_xyz
  'x, y, z'

loop_
  _atom_site_type_symbol
  _atom_site_label
  _atom_site_symmetry_multiplicity
  _atom_site_fract_x
  _atom_site_fract_y
  _atom_site_fract_z
  _atom_site_occupancy
  Hg  Hg1       1.0  0.24999993679916485  0.2499999837283187  0.25000005065937503  1.0000
  Hg  Hg2       1.0  0.7499999875292805  0.7499999511849501  0.7500001335382315  1.0000
  Te  Te1       1.0  2.072017656386779e-08  3.3996729554514896e-08  0.9999997009033051  1.0000
  Se  Se1       1.0  0.30537221993459923  0.3053722592757285  0.6946275198773575  1.0000
  Se  Se2       1.0  0.6946275776168198  0.694627600486908  0.3053721604473506  1.0000
  Se  Se3       1.0  0.6946274372954018  0.3053726899160775  0.3053724449988498  1.0000
  Se  Se4       1.0  0.30537210107920315  0.6946279929251022  0.6946277671287443  1.0000
  Se  Se5       1.0  0.3053726397986768  0.6946274697258776  0.30537242252417557  1.0000
  Se  Se6       1.0  0.6946280728972802  0.3053720232299674  0.6946278046902166  1.0000
