data_image0
_chemical_formula_structural       Hg2VO6
_chemical_formula_sum              "Hg2 V1 O6"
_cell_length_a       5.404573840743922
_cell_length_b       5.404574345679943
_cell_length_c       5.404573831372367
_cell_angle_alpha    60.000001710208025
_cell_angle_beta     60.000004026209744
_cell_angle_gamma    60.000004074754685

_space_group_name_H-M_alt    "P 1"
_space_group_IT_number       1

loop_
  _space_group_symop_operation_xyz
  'x, y, z'

loop_
  _atom_site_type_symbol
  _atom_site_label
  _atom_site_symmetry_multiplicity
  _atom_site_fract_x
  _atom_site_fract_y
  _atom_site_fract_z
  _atom_site_occupancy
  Hg  Hg1       1.0  0.24999991680522032  0.250000186271758  0.24999998734707624  1.0000
  Hg  Hg2       1.0  0.7499999795536053  0.7499998585822416  0.7499999422495053  1.0000
  V   V1        1.0  0.9999999948159185  2.7193517081828427e-07  0.999999592782324  1.0000
  O   O1        1.0  0.24701211535440917  0.24701234644570777  0.7529878457322257  1.0000
  O   O2        1.0  0.7529878639845523  0.7529876417551261  0.2470123241898711  1.0000
  O   O3        1.0  0.7529876326146977  0.24701212670707617  0.24701251641820238  1.0000
  O   O4        1.0  0.2470122414977211  0.7529877028649138  0.7529877188213387  1.0000
  O   O5        1.0  0.24701227816187113  0.7529875578046986  0.24701239451194082  1.0000
  O   O6        1.0  0.7529877056464369  0.24701230802531762  0.7529876641347052  1.0000
