data_image0
_chemical_formula_structural       Hg2VTe6
_chemical_formula_sum              "Hg2 V1 Te6"
_cell_length_a       7.140299022062436
_cell_length_b       7.140298635612277
_cell_length_c       7.140298046125703
_cell_angle_alpha    60.00001523554133
_cell_angle_beta     59.99998773220939
_cell_angle_gamma    60.00000940024303

_space_group_name_H-M_alt    "P 1"
_space_group_IT_number       1

loop_
  _space_group_symop_operation_xyz
  'x, y, z'

loop_
  _atom_site_type_symbol
  _atom_site_label
  _atom_site_symmetry_multiplicity
  _atom_site_fract_x
  _atom_site_fract_y
  _atom_site_fract_z
  _atom_site_occupancy
  Hg  Hg1       1.0  0.2500000881599514  0.2499998490710236  0.2500000816814522  1.0000
  Hg  Hg2       1.0  0.7499999255375389  0.7500000497832732  0.749999960157748  1.0000
  V   V1        1.0  5.678251771243428e-07  0.9999996500875742  0.9999996221471807  1.0000
  Te  Te1       1.0  0.26447713084510066  0.26447745625469715  0.735522957521631  1.0000
  Te  Te2       1.0  0.7355231708299327  0.7355228885664954  0.2644771795109369  1.0000
  Te  Te3       1.0  0.7355227516317471  0.2644771604167853  0.2644772012074256  1.0000
  Te  Te4       1.0  0.2644769319183262  0.7355228362072089  0.7355233153491366  1.0000
  Te  Te5       1.0  0.264477584066278  0.7355222249732009  0.2644774060127702  1.0000
  Te  Te6       1.0  0.735521872736827  0.26447787456600824  0.7355222705365723  1.0000
