data_image0
_chemical_formula_structural       Hg2VO6
_chemical_formula_sum              "Hg2 V1 O6"
_cell_length_a       5.40552953876566
_cell_length_b       5.405529979922972
_cell_length_c       5.405529499539067
_cell_angle_alpha    60.00000292813756
_cell_angle_beta     60.000002722827595
_cell_angle_gamma    60.00000855846339

_space_group_name_H-M_alt    "P 1"
_space_group_IT_number       1

loop_
  _space_group_symop_operation_xyz
  'x, y, z'

loop_
  _atom_site_type_symbol
  _atom_site_label
  _atom_site_symmetry_multiplicity
  _atom_site_fract_x
  _atom_site_fract_y
  _atom_site_fract_z
  _atom_site_occupancy
  Hg  Hg1       1.0  0.2499999020726965  0.24999990990314563  0.25000011167334585  1.0000
  Hg  Hg2       1.0  0.7499999292139319  0.7500000219880596  0.7500001643308128  1.0000
  V   V1        1.0  3.2610504414752066e-07  0.9999995151347274  1.829777420512939e-07  1.0000
  O   O1        1.0  0.2469701892033432  0.24696992964846026  0.7530299119724803  1.0000
  O   O2        1.0  0.7530298023978487  0.7530302582697558  0.24696997086514136  1.0000
  O   O3        1.0  0.7530297396685713  0.24697040648987315  0.24696983738091258  1.0000
  O   O4        1.0  0.24696998844975715  0.7530299694835554  0.7530302496667073  1.0000
  O   O5        1.0  0.24696991299126192  0.7530299720322584  0.2469698215115651  1.0000
  O   O6        1.0  0.7530300039781573  0.24696998478193788  0.7530300106986232  1.0000
