data_image0
_chemical_formula_structural       Hg2VS6
_chemical_formula_sum              "Hg2 V1 S6"
_cell_length_a       6.384455063267897
_cell_length_b       6.384454656074062
_cell_length_c       6.38445473488783
_cell_angle_alpha    59.99999925674804
_cell_angle_beta     59.9999971629096
_cell_angle_gamma    60.00000137147461

_space_group_name_H-M_alt    "P 1"
_space_group_IT_number       1

loop_
  _space_group_symop_operation_xyz
  'x, y, z'

loop_
  _atom_site_type_symbol
  _atom_site_label
  _atom_site_symmetry_multiplicity
  _atom_site_fract_x
  _atom_site_fract_y
  _atom_site_fract_z
  _atom_site_occupancy
  Hg  Hg1       1.0  0.25000007962253057  0.2500000200061921  0.24999992414893646  1.0000
  Hg  Hg2       1.0  0.7499999626984181  0.7500000312437167  0.7500000470905842  1.0000
  V   V1        1.0  0.9999999018051943  0.9999999961633489  8.939887234196392e-10  1.0000
  S   S1        1.0  0.24877597409867513  0.2487760461514829  0.7512239251260527  1.0000
  S   S2        1.0  0.7512240444376503  0.7512239245288415  0.2487760215416538  1.0000
  S   S3        1.0  0.7512240749559707  0.24877595975594644  0.24877592827794526  1.0000
  S   S4        1.0  0.2487761064840141  0.7512239725579172  0.7512240313037711  1.0000
  S   S5        1.0  0.24877599290913174  0.7512240675196183  0.24877602066111548  1.0000
  S   S6        1.0  0.7512238374750119  0.24877600099519437  0.7512241356274135  1.0000
