data_image0
_chemical_formula_structural       Hg2VS6
_chemical_formula_sum              "Hg2 V1 S6"
_cell_length_a       6.384452567388753
_cell_length_b       6.384452644688281
_cell_length_c       6.384452307456549
_cell_angle_alpha    60.00000044770152
_cell_angle_beta     59.99999838507449
_cell_angle_gamma    60.000002313175074

_space_group_name_H-M_alt    "P 1"
_space_group_IT_number       1

loop_
  _space_group_symop_operation_xyz
  'x, y, z'

loop_
  _atom_site_type_symbol
  _atom_site_label
  _atom_site_symmetry_multiplicity
  _atom_site_fract_x
  _atom_site_fract_y
  _atom_site_fract_z
  _atom_site_occupancy
  Hg  Hg1       1.0  0.250000005797905  0.2500000061231  0.2499999634760608  1.0000
  Hg  Hg2       1.0  0.7499999191079774  0.7499999876761136  0.7500000708242215  1.0000
  V   V1        1.0  0.9999999648871971  7.673295076512925e-09  0.9999999917914837  1.0000
  S   S1        1.0  0.2487743902432159  0.2487743717951261  0.7512256677544603  1.0000
  S   S2        1.0  0.7512256583975153  0.7512256143307943  0.24877444008466731  1.0000
  S   S3        1.0  0.751225596976756  0.24877438689607634  0.24877430330953867  1.0000
  S   S4        1.0  0.248774315212368  0.7512257047376593  0.75122565710576  1.0000
  S   S5        1.0  0.24877444233477236  0.7512256125189548  0.24877424437080012  1.0000
  S   S6        1.0  0.7512257147695158  0.24877428152741873  0.7512256391262218  1.0000
