data_image0
_chemical_formula_structural       Hg2WTe6
_chemical_formula_sum              "Hg2 W1 Te6"
_cell_length_a       7.280182307672655
_cell_length_b       7.280179201300094
_cell_length_c       7.280181007623935
_cell_angle_alpha    59.99999974420301
_cell_angle_beta     60.000007643911445
_cell_angle_gamma    59.99996669553197

_space_group_name_H-M_alt    "P 1"
_space_group_IT_number       1

loop_
  _space_group_symop_operation_xyz
  'x, y, z'

loop_
  _atom_site_type_symbol
  _atom_site_label
  _atom_site_symmetry_multiplicity
  _atom_site_fract_x
  _atom_site_fract_y
  _atom_site_fract_z
  _atom_site_occupancy
  Hg  Hg1       1.0  0.24999979203820658  0.24999998183780173  0.2500001432059876  1.0000
  Hg  Hg2       1.0  0.7500001103934109  0.7499999219609585  0.749999975356159  1.0000
  W   W1        1.0  3.5835664094007896e-07  1.7159447574399218e-07  0.9999986883471842  1.0000
  Te  Te1       1.0  0.2618167895770091  0.26181688385396856  0.7381835248058684  1.0000
  Te  Te2       1.0  0.7381833194852468  0.7381835515518572  0.2618174086739556  1.0000
  Te  Te3       1.0  0.7381841204773797  0.26181526250936255  0.2618158882670002  1.0000
  Te  Te4       1.0  0.26181521213095016  0.7381847186753677  0.7381839916357485  1.0000
  Te  Te5       1.0  0.2618155605296707  0.7381844668902502  0.26181615984000783  1.0000
  Te  Te6       1.0  0.7381847759680084  0.2618150482969299  0.7381842148341015  1.0000
