data_image0
_chemical_formula_structural       Hg2WO6
_chemical_formula_sum              "Hg2 W1 O6"
_cell_length_a       5.555465935149252
_cell_length_b       5.555466274667552
_cell_length_c       5.555466388474439
_cell_angle_alpha    59.999995315053894
_cell_angle_beta     59.99999443655722
_cell_angle_gamma    59.999996483675226

_space_group_name_H-M_alt    "P 1"
_space_group_IT_number       1

loop_
  _space_group_symop_operation_xyz
  'x, y, z'

loop_
  _atom_site_type_symbol
  _atom_site_label
  _atom_site_symmetry_multiplicity
  _atom_site_fract_x
  _atom_site_fract_y
  _atom_site_fract_z
  _atom_site_occupancy
  Hg  Hg1       1.0  0.24999988053515082  0.25000022038604486  0.24999977199135354  1.0000
  Hg  Hg2       1.0  0.7500001441512041  0.7499999578982682  0.7500000445412113  1.0000
  W   W1        1.0  1.784551262768917e-08  8.81830803028817e-09  0.9999998966666445  1.0000
  O   O1        1.0  0.24855526500343814  0.2485551893229708  0.7514447044028306  1.0000
  O   O2        1.0  0.7514447142119081  0.7514447574808336  0.24855521100486547  1.0000
  O   O3        1.0  0.7514447280107096  0.2485553231302522  0.24855513740301532  1.0000
  O   O4        1.0  0.24855519201976117  0.7514446391055801  0.751444999684312  1.0000
  O   O5        1.0  0.24855530786711608  0.7514448152374386  0.248555251879072  1.0000
  O   O6        1.0  0.7514447391425019  0.24855502795126805  0.7514450036442102  1.0000
