data_image0
_chemical_formula_structural       Hg2WS6
_chemical_formula_sum              "Hg2 W1 S6"
_cell_length_a       6.498514914489612
_cell_length_b       6.4985142389880295
_cell_length_c       6.498514735769002
_cell_angle_alpha    59.99999769564435
_cell_angle_beta     60.00000305411535
_cell_angle_gamma    59.999994948896656

_space_group_name_H-M_alt    "P 1"
_space_group_IT_number       1

loop_
  _space_group_symop_operation_xyz
  'x, y, z'

loop_
  _atom_site_type_symbol
  _atom_site_label
  _atom_site_symmetry_multiplicity
  _atom_site_fract_x
  _atom_site_fract_y
  _atom_site_fract_z
  _atom_site_occupancy
  Hg  Hg1       1.0  0.24999994172622267  0.2500000774551516  0.24999993058024406  1.0000
  Hg  Hg2       1.0  0.7500000166709906  0.7500000363614561  0.7499999355673839  1.0000
  W   W1        1.0  0.9999999842237558  0.9999999886920781  0.9999999796881933  1.0000
  S   S1        1.0  0.24871019446647527  0.24870988597534074  0.7512899556497429  1.0000
  S   S2        1.0  0.7512899680952059  0.751289988490231  0.24871007427842248  1.0000
  S   S3        1.0  0.7512899407439655  0.2487100944429818  0.24870995225286752  1.0000
  S   S4        1.0  0.24870997827578295  0.7512899722572821  0.7512900879407826  1.0000
  S   S5        1.0  0.2487100717881377  0.75128988835693  0.24871004557278192  1.0000
  S   S6        1.0  0.7512899203542697  0.24871007091806693  0.7512899979228549  1.0000
