data_image0
_chemical_formula_structural       Hg2YO6
_chemical_formula_sum              "Hg2 Y1 O6"
_cell_length_a       5.603080195912794
_cell_length_b       5.603080207042603
_cell_length_c       5.603080177713708
_cell_angle_alpha    59.999999535387815
_cell_angle_beta     60.00000084462422
_cell_angle_gamma    59.999999599196265

_space_group_name_H-M_alt    "P 1"
_space_group_IT_number       1

loop_
  _space_group_symop_operation_xyz
  'x, y, z'

loop_
  _atom_site_type_symbol
  _atom_site_label
  _atom_site_symmetry_multiplicity
  _atom_site_fract_x
  _atom_site_fract_y
  _atom_site_fract_z
  _atom_site_occupancy
  Hg  Hg1       1.0  0.24999995452981086  0.24999996353165435  0.2500000342221881  1.0000
  Hg  Hg2       1.0  0.7500000287666534  0.7499999824003327  0.7499999206332909  1.0000
  Y   Y1        1.0  0.9999999774344132  3.0601789875032323e-08  6.690293971615778e-09  1.0000
  O   O1        1.0  0.2796178568002196  0.27961790950205917  0.7203821174669852  1.0000
  O   O2        1.0  0.7203821165027726  0.7203821282352962  0.27961791962909616  1.0000
  O   O3        1.0  0.720382123900834  0.279617859725468  0.27961792304568495  1.0000
  O   O4        1.0  0.2796178877472334  0.7203821124366235  0.7203821080334327  1.0000
  O   O5        1.0  0.2796178725724426  0.7203821234086162  0.27961789979513296  1.0000
  O   O6        1.0  0.7203821883891265  0.2796178924703179  0.720382077629882  1.0000
