data_image0
_chemical_formula_structural       Hg2YS6
_chemical_formula_sum              "Hg2 Y1 S6"
_cell_length_a       6.829476105290829
_cell_length_b       6.829476271949745
_cell_length_c       6.829476244512515
_cell_angle_alpha    60.00000005481313
_cell_angle_beta     60.00000167285947
_cell_angle_gamma    60.000000295786585

_space_group_name_H-M_alt    "P 1"
_space_group_IT_number       1

loop_
  _space_group_symop_operation_xyz
  'x, y, z'

loop_
  _atom_site_type_symbol
  _atom_site_label
  _atom_site_symmetry_multiplicity
  _atom_site_fract_x
  _atom_site_fract_y
  _atom_site_fract_z
  _atom_site_occupancy
  Hg  Hg1       1.0  0.24999998466474072  0.2500000950219959  0.24999997582740616  1.0000
  Hg  Hg2       1.0  0.7499999765427183  0.7499999891678909  0.7499999426250057  1.0000
  Y   Y1        1.0  0.9999999941248235  1.2553252218463374e-08  4.20524369523955e-08  1.0000
  S   S1        1.0  0.2777447813557047  0.2777447832686133  0.7222551895768031  1.0000
  S   S2        1.0  0.7222552991456114  0.7222552220151128  0.27774478335806047  1.0000
  S   S3        1.0  0.7222551401884552  0.2777447707969547  0.2777447772235468  1.0000
  S   S4        1.0  0.2777448189034203  0.7222551878604053  0.7222552533728775  1.0000
  S   S5        1.0  0.27774470519122935  0.722255208336354  0.2777447751261879  1.0000
  S   S6        1.0  0.7222552891165186  0.2777447359744312  0.7222552567495173  1.0000
