data_image0
_chemical_formula_structural       Hg2ZrO6
_chemical_formula_sum              "Hg2 Zr1 O6"
_cell_length_a       5.563132828488298
_cell_length_b       5.563133032767923
_cell_length_c       5.563133416561187
_cell_angle_alpha    59.99999956183723
_cell_angle_beta     59.99999929155411
_cell_angle_gamma    60.000002604682095

_space_group_name_H-M_alt    "P 1"
_space_group_IT_number       1

loop_
  _space_group_symop_operation_xyz
  'x, y, z'

loop_
  _atom_site_type_symbol
  _atom_site_label
  _atom_site_symmetry_multiplicity
  _atom_site_fract_x
  _atom_site_fract_y
  _atom_site_fract_z
  _atom_site_occupancy
  Hg  Hg1       1.0  0.24999993492421618  0.2499998586325099  0.2500001500314443  1.0000
  Hg  Hg2       1.0  0.7499999911726208  0.7500000690420364  0.7499997849658949  1.0000
  Zr  Zr1       1.0  0.9999999375835903  4.403075724844829e-08  0.9999999624565744  1.0000
  O   O1        1.0  0.26695348873638625  0.2669534480443778  0.7330465703342826  1.0000
  O   O2        1.0  0.7330465021438162  0.7330465654901538  0.26695356077114984  1.0000
  O   O3        1.0  0.7330464521884259  0.26695348218013476  0.2669535367405724  1.0000
  O   O4        1.0  0.2669535864312631  0.7330465313543968  0.7330464410716532  1.0000
  O   O5        1.0  0.2669534915861457  0.7330464714839309  0.2669535855724036  1.0000
  O   O6        1.0  0.7330465807256542  0.2669535530582917  0.7330463950555955  1.0000
