data_image0
_chemical_formula_structural       Hg2ZrS6
_chemical_formula_sum              "Hg2 Zr1 S6"
_cell_length_a       6.512789556454594
_cell_length_b       6.512789793720357
_cell_length_c       6.512789794813739
_cell_angle_alpha    59.99999819196062
_cell_angle_beta     59.999998543987694
_cell_angle_gamma    60.00000075898068

_space_group_name_H-M_alt    "P 1"
_space_group_IT_number       1

loop_
  _space_group_symop_operation_xyz
  'x, y, z'

loop_
  _atom_site_type_symbol
  _atom_site_label
  _atom_site_symmetry_multiplicity
  _atom_site_fract_x
  _atom_site_fract_y
  _atom_site_fract_z
  _atom_site_occupancy
  Hg  Hg1       1.0  0.24999996057523663  0.2500000583462311  0.24999999781639795  1.0000
  Hg  Hg2       1.0  0.7499999945539041  0.7500000227163583  0.7500000454405125  1.0000
  Zr  Zr1       1.0  1.331296192033132e-07  2.70795267916523e-07  0.9999996936276112  1.0000
  S   S1        1.0  0.2701116044152255  0.2701116633637747  0.7298883918998191  1.0000
  S   S2        1.0  0.7298882677653069  0.7298881186957097  0.2701118392620718  1.0000
  S   S3        1.0  0.729888239140039  0.2701117329362487  0.2701116719822052  1.0000
  S   S4        1.0  0.2701117470269496  0.7298882390560287  0.7298883012746765  1.0000
  S   S5        1.0  0.27011172500763453  0.7298883138428817  0.27011170535007456  1.0000
  S   S6        1.0  0.7298883197043945  0.27011159421162395  0.7298883719422343  1.0000
