data_image0
_chemical_formula_structural       Hg2ZrSe6
_chemical_formula_sum              "Hg2 Zr1 Se6"
_cell_length_a       6.689387586954865
_cell_length_b       6.689388423921739
_cell_length_c       6.6893875860870216
_cell_angle_alpha    60.000001457327514
_cell_angle_beta     60.00000097434962
_cell_angle_gamma    59.99999946055263

_space_group_name_H-M_alt    "P 1"
_space_group_IT_number       1

loop_
  _space_group_symop_operation_xyz
  'x, y, z'

loop_
  _atom_site_type_symbol
  _atom_site_label
  _atom_site_symmetry_multiplicity
  _atom_site_fract_x
  _atom_site_fract_y
  _atom_site_fract_z
  _atom_site_occupancy
  Hg  Hg1       1.0  0.2500000098474507  0.2500000099464492  0.24999998640629575  1.0000
  Hg  Hg2       1.0  0.7500000030575065  0.7500000005453162  0.7499999303019301  1.0000
  Zr  Zr1       1.0  1.3366584789937244e-07  0.9999999304266698  0.9999997556772112  1.0000
  Se  Se1       1.0  0.2784778131942984  0.27847778653566757  0.7215222868032272  1.0000
  Se  Se2       1.0  0.7215220946089641  0.7215220628389021  0.278478042561711  1.0000
  Se  Se3       1.0  0.7215221186425957  0.2784778570727289  0.27847788183592564  1.0000
  Se  Se4       1.0  0.2784779874215313  0.7215222467937619  0.721522125478686  1.0000
  Se  Se5       1.0  0.27847780280352236  0.7215222490912476  0.27847782253565506  1.0000
  Se  Se6       1.0  0.7215220438298493  0.2784778511135039  0.7215221713194018  1.0000
