data_image0
_chemical_formula_structural       Hg2ZnTe6
_chemical_formula_sum              "Hg2 Zn1 Te6"
_cell_length_a       7.271795240440428
_cell_length_b       7.2717946413096595
_cell_length_c       7.271794576397383
_cell_angle_alpha    59.999996092614296
_cell_angle_beta     59.999992209926404
_cell_angle_gamma    59.999990963629784

_space_group_name_H-M_alt    "P 1"
_space_group_IT_number       1

loop_
  _space_group_symop_operation_xyz
  'x, y, z'

loop_
  _atom_site_type_symbol
  _atom_site_label
  _atom_site_symmetry_multiplicity
  _atom_site_fract_x
  _atom_site_fract_y
  _atom_site_fract_z
  _atom_site_occupancy
  Hg  Hg1       1.0  0.24999999465678044  0.24999993115670427  0.2500000529804767  1.0000
  Hg  Hg2       1.0  0.7500000332396611  0.7500000410534321  0.7499999720101604  1.0000
  Zn  Zn1       1.0  1.5861560821774724e-07  0.9999999814733513  0.9999995724096541  1.0000
  Te  Te1       1.0  0.2738606783216417  0.2738606142390331  0.726139445532306  1.0000
  Te  Te2       1.0  0.7261391545830329  0.72613928554878  0.27386087268585246  1.0000
  Te  Te3       1.0  0.7261392691126848  0.2738608541618702  0.27386075720302117  1.0000
  Te  Te4       1.0  0.2738604815475122  0.726139611530684  0.7261390317731348  1.0000
  Te  Te5       1.0  0.27386074017489287  0.7261392407008033  0.2738609857570577  1.0000
  Te  Te6       1.0  0.7261394901136666  0.273860443504233  0.726139310319339  1.0000
