data_image0
_chemical_formula_structural       Hg2ZnS6
_chemical_formula_sum              "Hg2 Zn1 S6"
_cell_length_a       6.346337925446471
_cell_length_b       6.346337321281651
_cell_length_c       6.346337103108766
_cell_angle_alpha    59.99999963208132
_cell_angle_beta     60.00000223064013
_cell_angle_gamma    59.999996845016106

_space_group_name_H-M_alt    "P 1"
_space_group_IT_number       1

loop_
  _space_group_symop_operation_xyz
  'x, y, z'

loop_
  _atom_site_type_symbol
  _atom_site_label
  _atom_site_symmetry_multiplicity
  _atom_site_fract_x
  _atom_site_fract_y
  _atom_site_fract_z
  _atom_site_occupancy
  Hg  Hg1       1.0  0.2500001217729493  0.24999989810535417  0.24999992478679725  1.0000
  Hg  Hg2       1.0  0.7499998756181055  0.7499999625645623  0.7500000773233907  1.0000
  Zn  Zn1       1.0  7.698876195602496e-08  0.9999999382449551  0.9999994377324909  1.0000
  S   S1        1.0  0.2639811043386509  0.2639811666763883  0.7360188584743154  1.0000
  S   S2        1.0  0.736018830322959  0.7360188985571269  0.2639811278687172  1.0000
  S   S3        1.0  0.7360187506046892  0.26398127326893545  0.2639811491015256  1.0000
  S   S4        1.0  0.26398093566523384  0.7360191277576575  0.7360191323189073  1.0000
  S   S5        1.0  0.26398126987538556  0.7360187712639067  0.26398114085719687  1.0000
  S   S6        1.0  0.7360190282273859  0.2639809678257483  0.7360191545852943  1.0000
