data_image0
_chemical_formula_structural       Hg2ZnO6
_chemical_formula_sum              "Hg2 Zn1 O6"
_cell_length_a       5.364266254634378
_cell_length_b       5.364265904601935
_cell_length_c       5.364266196472175
_cell_angle_alpha    59.99999978728311
_cell_angle_beta     60.00000232735591
_cell_angle_gamma    60.000001607041725

_space_group_name_H-M_alt    "P 1"
_space_group_IT_number       1

loop_
  _space_group_symop_operation_xyz
  'x, y, z'

loop_
  _atom_site_type_symbol
  _atom_site_label
  _atom_site_symmetry_multiplicity
  _atom_site_fract_x
  _atom_site_fract_y
  _atom_site_fract_z
  _atom_site_occupancy
  Hg  Hg1       1.0  0.2500000173445205  0.25000002858947423  0.24999996170989194  1.0000
  Hg  Hg2       1.0  0.7500000106794746  0.7499999967253896  0.7499999726984886  1.0000
  Zn  Zn1       1.0  0.999999882630375  0.9999999840179126  0.9999999175408243  1.0000
  O   O1        1.0  0.25890691895354817  0.25890693556408  0.7410930654430108  1.0000
  O   O2        1.0  0.7410931560354499  0.7410931102991773  0.25890685012217524  1.0000
  O   O3        1.0  0.7410930506813708  0.25890695758049587  0.25890691374053376  1.0000
  O   O4        1.0  0.25890683522762853  0.7410931453616244  0.7410931778123028  1.0000
  O   O5        1.0  0.2589069983708657  0.7410930146995117  0.2589069211310509  1.0000
  O   O6        1.0  0.7410931403077122  0.258906814264055  0.7410932164458433  1.0000
