data_image0
_chemical_formula_structural       Hg2ZrTe6
_chemical_formula_sum              "Hg2 Zr1 Te6"
_cell_length_a       7.510972106067224
_cell_length_b       7.510941578240998
_cell_length_c       7.511134774313449
_cell_angle_alpha    59.99854580348319
_cell_angle_beta     59.99886514471968
_cell_angle_gamma    60.00412072729467

_space_group_name_H-M_alt    "P 1"
_space_group_IT_number       1

loop_
  _space_group_symop_operation_xyz
  'x, y, z'

loop_
  _atom_site_type_symbol
  _atom_site_label
  _atom_site_symmetry_multiplicity
  _atom_site_fract_x
  _atom_site_fract_y
  _atom_site_fract_z
  _atom_site_occupancy
  Hg  Hg1       1.0  0.2499931458589119  0.24997811889355268  0.2500447975926877  1.0000
  Hg  Hg2       1.0  0.7499836868453762  0.7500289619097891  0.7500174173681908  1.0000
  Zr  Zr1       1.0  1.4893940532319984e-05  0.999827927237025  0.0001604592694721208  1.0000
  Te  Te1       1.0  0.27057229457967985  0.270588307196738  0.7294461121419226  1.0000
  Te  Te2       1.0  0.7295207565167121  0.7294998412078461  0.2705021777723137  1.0000
  Te  Te3       1.0  0.7294235637090155  0.2704604735171981  0.270574632344088  1.0000
  Te  Te4       1.0  0.2705761536306404  0.7295251193471003  0.7293874985126639  1.0000
  Te  Te5       1.0  0.27053821630609987  0.7294914988416612  0.27048132636709904  1.0000
  Te  Te6       1.0  0.7294001036370149  0.270588790125519  0.7293781625662367  1.0000
