data_image0
_chemical_formula_structural       In2AuS6
_chemical_formula_sum              "In2 Au1 S6"
_cell_length_a       6.434345388916411
_cell_length_b       6.434345259536663
_cell_length_c       6.4343451669910285
_cell_angle_alpha    60.00000000561198
_cell_angle_beta     60.000000473747534
_cell_angle_gamma    60.00000060928266

_space_group_name_H-M_alt    "P 1"
_space_group_IT_number       1

loop_
  _space_group_symop_operation_xyz
  'x, y, z'

loop_
  _atom_site_type_symbol
  _atom_site_label
  _atom_site_symmetry_multiplicity
  _atom_site_fract_x
  _atom_site_fract_y
  _atom_site_fract_z
  _atom_site_occupancy
  In  In1       1.0  0.2500000578505413  0.2500000435757278  0.2499999528113201  1.0000
  In  In2       1.0  0.749999960434181  0.7499999194443311  0.7500000069135618  1.0000
  Au  Au1       1.0  0.9999999198593019  3.045518493338414e-08  0.9999999999762016  1.0000
  S   S1        1.0  0.26370740162155887  0.26370739410833  0.7362925195196433  1.0000
  S   S2        1.0  0.7362926067291556  0.7362925879462199  0.26370740146348326  1.0000
  S   S3        1.0  0.7362925761628404  0.26370742983506296  0.26370735067108525  1.0000
  S   S4        1.0  0.2637074518568467  0.7362924932125645  0.736292734517869  1.0000
  S   S5        1.0  0.26370746037347026  0.7362925364158711  0.2637074305787057  1.0000
  S   S6        1.0  0.7362925663927237  0.2637075465214808  0.7362926172544447  1.0000
