data_image0
_chemical_formula_structural       In2AuSe6
_chemical_formula_sum              "In2 Au1 Se6"
_cell_length_a       6.734694812441845
_cell_length_b       6.7346952503895885
_cell_length_c       6.734695064184609
_cell_angle_alpha    59.999998726670135
_cell_angle_beta     59.99999802202243
_cell_angle_gamma    59.99999730373522

_space_group_name_H-M_alt    "P 1"
_space_group_IT_number       1

loop_
  _space_group_symop_operation_xyz
  'x, y, z'

loop_
  _atom_site_type_symbol
  _atom_site_label
  _atom_site_symmetry_multiplicity
  _atom_site_fract_x
  _atom_site_fract_y
  _atom_site_fract_z
  _atom_site_occupancy
  In  In1       1.0  0.24999998990044586  0.24999998621943287  0.24999996451890932  1.0000
  In  In2       1.0  0.750000009810609  0.7500000132151011  0.749999973920637  1.0000
  Au  Au1       1.0  5.330568654656031e-08  8.183520803883854e-08  0.9999999443083368  1.0000
  Se  Se1       1.0  0.2926799595529481  0.2926798146341086  0.7073201221388402  1.0000
  Se  Se2       1.0  0.7073200910925798  0.7073201811633015  0.2926798772883799  1.0000
  Se  Se3       1.0  0.7073200542623536  0.292679884206342  0.29267993235527534  1.0000
  Se  Se4       1.0  0.29267988020944474  0.7073200897683479  0.7073201850701623  1.0000
  Se  Se5       1.0  0.29267988189492544  0.7073200734311019  0.2926798599999273  1.0000
  Se  Se6       1.0  0.7073200815341447  0.29267988053942723  0.7073201371307934  1.0000
