data_image0
_chemical_formula_structural       In2AgTe6
_chemical_formula_sum              "In2 Ag1 Te6"
_cell_length_a       7.341846416357068
_cell_length_b       7.34184667067493
_cell_length_c       7.341846571090404
_cell_angle_alpha    59.9999975007036
_cell_angle_beta     59.999999393292704
_cell_angle_gamma    59.99999827074482

_space_group_name_H-M_alt    "P 1"
_space_group_IT_number       1

loop_
  _space_group_symop_operation_xyz
  'x, y, z'

loop_
  _atom_site_type_symbol
  _atom_site_label
  _atom_site_symmetry_multiplicity
  _atom_site_fract_x
  _atom_site_fract_y
  _atom_site_fract_z
  _atom_site_occupancy
  In  In1       1.0  0.2500000197855966  0.2500000011315974  0.2499999752148535  1.0000
  In  In2       1.0  0.7499999498028662  0.7500000300855154  0.7499999534556085  1.0000
  Ag  Ag1       1.0  0.9999999607435203  5.1713271417451637e-08  4.9615864508860326e-08  1.0000
  Te  Te1       1.0  0.2755763756185791  0.2755764412388413  0.7244235813853322  1.0000
  Te  Te2       1.0  0.7244236000074737  0.724423548274015  0.2755764890654835  1.0000
  Te  Te3       1.0  0.7244234163244568  0.27557650402865563  0.27557648962032205  1.0000
  Te  Te4       1.0  0.27557661039333675  0.7244234454481214  0.7244234717864717  1.0000
  Te  Te5       1.0  0.27557658377291727  0.7244234155610376  0.2755764874949077  1.0000
  Te  Te6       1.0  0.7244234789113149  0.2755765722836487  0.7244235062095244  1.0000
