data_image0
_chemical_formula_structural       In2AuO6
_chemical_formula_sum              "In2 Au1 O6"
_cell_length_a       5.344661766710851
_cell_length_b       5.34466179595639
_cell_length_c       5.344661498343569
_cell_angle_alpha    60.00000000777648
_cell_angle_beta     60.00000019912413
_cell_angle_gamma    59.999999818581585

_space_group_name_H-M_alt    "P 1"
_space_group_IT_number       1

loop_
  _space_group_symop_operation_xyz
  'x, y, z'

loop_
  _atom_site_type_symbol
  _atom_site_label
  _atom_site_symmetry_multiplicity
  _atom_site_fract_x
  _atom_site_fract_y
  _atom_site_fract_z
  _atom_site_occupancy
  In  In1       1.0  0.2500001968391312  0.24999995025395957  0.24999973889129476  1.0000
  In  In2       1.0  0.7499999348226966  0.7499999447145718  0.7499999933667512  1.0000
  Au  Au1       1.0  5.124108439951315e-08  0.9999999564609438  4.105360713616936e-08  1.0000
  O   O1        1.0  0.25765590972281677  0.2576557263411285  0.7423442207642527  1.0000
  O   O2        1.0  0.7423440871582913  0.7423442877869199  0.25765574008544884  1.0000
  O   O3        1.0  0.7423443152893457  0.25765579938115174  0.25765586873808993  1.0000
  O   O4        1.0  0.25765596112426886  0.7423440955873736  0.7423441522520595  1.0000
  O   O5        1.0  0.2576556535954766  0.742344235896921  0.2576559575108743  1.0000
  O   O6        1.0  0.7423439245428854  0.25765598446875637  0.742344307920131  1.0000
