data_image0
_chemical_formula_structural       In2AgSe6
_chemical_formula_sum              "In2 Ag1 Se6"
_cell_length_a       6.6409623236219115
_cell_length_b       6.640962053251713
_cell_length_c       6.64096264290812
_cell_angle_alpha    60.00000107848753
_cell_angle_beta     60.00000171115835
_cell_angle_gamma    60.00000837756063

_space_group_name_H-M_alt    "P 1"
_space_group_IT_number       1

loop_
  _space_group_symop_operation_xyz
  'x, y, z'

loop_
  _atom_site_type_symbol
  _atom_site_label
  _atom_site_symmetry_multiplicity
  _atom_site_fract_x
  _atom_site_fract_y
  _atom_site_fract_z
  _atom_site_occupancy
  In  In1       1.0  0.25000005264127473  0.25000004508828566  0.2499999782935268  1.0000
  In  In2       1.0  0.7499999992059636  0.7500001002245068  0.7499999383997217  1.0000
  Ag  Ag1       1.0  0.9999999280632184  0.9999998819694043  2.1695395231900294e-07  1.0000
  Se  Se1       1.0  0.2890613062140596  0.2890614545816285  0.7109386231029046  1.0000
  Se  Se2       1.0  0.7109383933049785  0.7109382923778749  0.2890615273853234  1.0000
  Se  Se3       1.0  0.7109387697520476  0.28906144822530766  0.2890611638764453  1.0000
  Se  Se4       1.0  0.28906115396970294  0.7109388206507468  0.7109386527031228  1.0000
  Se  Se5       1.0  0.28906143425146547  0.7109387827341432  0.28906121031743937  1.0000
  Se  Se6       1.0  0.7109389583947974  0.28906118000010955  0.7109386905094129  1.0000
