data_image0
_chemical_formula_structural       In2AgO6
_chemical_formula_sum              "In2 Ag1 O6"
_cell_length_a       5.363147301507423
_cell_length_b       5.363147262048027
_cell_length_c       5.363147359509474
_cell_angle_alpha    60.00000025125374
_cell_angle_beta     60.00000150211272
_cell_angle_gamma    59.999998597772084

_space_group_name_H-M_alt    "P 1"
_space_group_IT_number       1

loop_
  _space_group_symop_operation_xyz
  'x, y, z'

loop_
  _atom_site_type_symbol
  _atom_site_label
  _atom_site_symmetry_multiplicity
  _atom_site_fract_x
  _atom_site_fract_y
  _atom_site_fract_z
  _atom_site_occupancy
  In  In1       1.0  0.2500000469532907  0.249999808495953  0.2500001874556148  1.0000
  In  In2       1.0  0.7500001606807468  0.7500001927878382  0.74999960383966  1.0000
  Ag  Ag1       1.0  1.4701793068519314e-08  0.9999999817309524  0.9999999514400545  1.0000
  O   O1        1.0  0.26025782890757787  0.2602579595349983  0.7397420571321892  1.0000
  O   O2        1.0  0.7397420930901573  0.7397421171086185  0.2602580686442638  1.0000
  O   O3        1.0  0.7397420041965228  0.26025772610339  0.2602580900089351  1.0000
  O   O4        1.0  0.2602578425982494  0.7397423048676098  0.7397419694140861  1.0000
  O   O5        1.0  0.2602577887787032  0.7397421551681806  0.26025799631585633  1.0000
  O   O6        1.0  0.7397422300643148  0.2602577730394258  0.7397420806728898  1.0000
