data_image0
_chemical_formula_structural       In2AgS6
_chemical_formula_sum              "In2 Ag1 S6"
_cell_length_a       6.562290198694384
_cell_length_b       6.562290066259654
_cell_length_c       6.562289967379704
_cell_angle_alpha    59.999999887537136
_cell_angle_beta     59.999998935240654
_cell_angle_gamma    59.99999893529994

_space_group_name_H-M_alt    "P 1"
_space_group_IT_number       1

loop_
  _space_group_symop_operation_xyz
  'x, y, z'

loop_
  _atom_site_type_symbol
  _atom_site_label
  _atom_site_symmetry_multiplicity
  _atom_site_fract_x
  _atom_site_fract_y
  _atom_site_fract_z
  _atom_site_occupancy
  In  In1       1.0  0.2499999919000436  0.2500000469845846  0.250000064534019  1.0000
  In  In2       1.0  0.7500000536776816  0.7499998964635257  0.7499999736105946  1.0000
  Ag  Ag1       1.0  1.15700314034319e-08  3.9193090063487986e-08  1.681484423364293e-07  1.0000
  S   S1        1.0  0.2669139521615654  0.2669139655360926  0.7330860175318966  1.0000
  S   S2        1.0  0.7330860314032092  0.7330860003080696  0.2669141211856571  1.0000
  S   S3        1.0  0.7330859840533647  0.26691395135985063  0.26691396261729666  1.0000
  S   S4        1.0  0.2669139747336522  0.7330860835388029  0.7330858568095229  1.0000
  S   S5        1.0  0.26691397947541057  0.733086026847448  0.26691391153546334  1.0000
  S   S6        1.0  0.733086026110268  0.26691398378881637  0.7330859255765267  1.0000
