data_image0
_chemical_formula_structural       In2BeTe6
_chemical_formula_sum              "In2 Be1 Te6"
_cell_length_a       7.342656593120074
_cell_length_b       7.342656749630658
_cell_length_c       7.342657359990016
_cell_angle_alpha    59.999993986073875
_cell_angle_beta     60.00000031568536
_cell_angle_gamma    59.99999769060897

_space_group_name_H-M_alt    "P 1"
_space_group_IT_number       1

loop_
  _space_group_symop_operation_xyz
  'x, y, z'

loop_
  _atom_site_type_symbol
  _atom_site_label
  _atom_site_symmetry_multiplicity
  _atom_site_fract_x
  _atom_site_fract_y
  _atom_site_fract_z
  _atom_site_occupancy
  In  In1       1.0  0.2500000337643452  0.24999998760929235  0.25000000525155225  1.0000
  In  In2       1.0  0.7499999650007629  0.75000001787142  0.7500000250552069  1.0000
  Be  Be1       1.0  6.735166477953316e-08  0.9999999866561027  1.4051040381964883e-07  1.0000
  Te  Te1       1.0  0.22616361488076242  0.22616346287748357  0.7738365355306152  1.0000
  Te  Te2       1.0  0.7738364528086019  0.7738365292593326  0.22616361679548996  1.0000
  Te  Te3       1.0  0.7738364165232038  0.2261634770594312  0.22616358223315192  1.0000
  Te  Te4       1.0  0.22616359498349534  0.7738364099942768  0.7738363088877461  1.0000
  Te  Te5       1.0  0.22616329817277359  0.7738366765852792  0.22616339540468247  1.0000
  Te  Te6       1.0  0.7738365560227779  0.22616346066634938  0.7738363784537712  1.0000
