data_image0
_chemical_formula_structural       In2BeS6
_chemical_formula_sum              "In2 Be1 S6"
_cell_length_a       5.714266265971036
_cell_length_b       5.714263809056503
_cell_length_c       5.714264445428381
_cell_angle_alpha    59.99999283370871
_cell_angle_beta     59.99999967570111
_cell_angle_gamma    59.99999874754236

_space_group_name_H-M_alt    "P 1"
_space_group_IT_number       1

loop_
  _space_group_symop_operation_xyz
  'x, y, z'

loop_
  _atom_site_type_symbol
  _atom_site_label
  _atom_site_symmetry_multiplicity
  _atom_site_fract_x
  _atom_site_fract_y
  _atom_site_fract_z
  _atom_site_occupancy
  In  In1       1.0  0.2500010798608808  0.24999963964497735  0.2500001674196365  1.0000
  In  In2       1.0  0.750001153793327  0.7500004235396984  0.750000806851368  1.0000
  Be  Be1       1.0  0.999999918375747  0.9999999357006326  2.921165578283182e-08  1.0000
  S   S1        1.0  0.25532338221478895  0.2553238293662683  0.744675968326429  1.0000
  S   S2        1.0  0.7446764156342606  0.7446753936398551  0.2553236899256578  1.0000
  S   S3        1.0  0.7446753654200852  0.2553240981354872  0.25532347271587  1.0000
  S   S4        1.0  0.25532334828626546  0.7446756735583793  0.7446764235136585  1.0000
  S   S5        1.0  0.2553239874463744  0.7446770509381929  0.2553229715993271  1.0000
  S   S6        1.0  0.7446753853858197  0.25532393815693444  0.7446764623683347  1.0000
