data_image0
_chemical_formula_structural       In2BeO6
_chemical_formula_sum              "In2 Be1 O6"
_cell_length_a       4.980335198502457
_cell_length_b       4.980334516872757
_cell_length_c       4.980334302649532
_cell_angle_alpha    60.000003774741984
_cell_angle_beta     60.000002333228565
_cell_angle_gamma    59.999999972950675

_space_group_name_H-M_alt    "P 1"
_space_group_IT_number       1

loop_
  _space_group_symop_operation_xyz
  'x, y, z'

loop_
  _atom_site_type_symbol
  _atom_site_label
  _atom_site_symmetry_multiplicity
  _atom_site_fract_x
  _atom_site_fract_y
  _atom_site_fract_z
  _atom_site_occupancy
  In  In1       1.0  0.2500000350225963  0.2500001407491622  0.2499998713075746  1.0000
  In  In2       1.0  0.7499999980663469  0.750000318962697  0.7499998716660389  1.0000
  Be  Be1       1.0  0.9999999847548566  0.9999999483576026  4.749905127245863e-08  1.0000
  O   O1        1.0  0.23954591739343475  0.23954591732897798  0.7604540938715398  1.0000
  O   O2        1.0  0.7604539695205567  0.7604540210405825  0.23954609530294463  1.0000
  O   O3        1.0  0.7604540318560387  0.2395459631520716  0.23954583091851836  1.0000
  O   O4        1.0  0.23954608506159814  0.7604538694735252  0.7604541495496113  1.0000
  O   O5        1.0  0.2395459027531157  0.7604541534017292  0.2395459262462315  1.0000
  O   O6        1.0  0.760454123766396  0.23954563741810905  0.7604539275656972  1.0000
