data_image0
_chemical_formula_structural       In2BeSe6
_chemical_formula_sum              "In2 Be1 Se6"
_cell_length_a       6.276172323309228
_cell_length_b       6.276173965760315
_cell_length_c       6.276171459916389
_cell_angle_alpha    60.00000432528428
_cell_angle_beta     60.00000587489785
_cell_angle_gamma    60.000006244768755

_space_group_name_H-M_alt    "P 1"
_space_group_IT_number       1

loop_
  _space_group_symop_operation_xyz
  'x, y, z'

loop_
  _atom_site_type_symbol
  _atom_site_label
  _atom_site_symmetry_multiplicity
  _atom_site_fract_x
  _atom_site_fract_y
  _atom_site_fract_z
  _atom_site_occupancy
  In  In1       1.0  0.25000036661628755  0.24999987822899486  0.2499997629244701  1.0000
  In  In2       1.0  0.7499998693525696  0.7500003567121871  0.7499995971820483  1.0000
  Be  Be1       1.0  1.2163522639622715e-07  0.999999828275059  2.990972937322779e-07  1.0000
  Se  Se1       1.0  0.2265586902476353  0.22655825727952095  0.7734397749879414  1.0000
  Se  Se2       1.0  0.7734417557697382  0.773441253685378  0.22655671437955952  1.0000
  Se  Se3       1.0  0.7734414570062914  0.22655765022637656  0.2265593226435381  1.0000
  Se  Se4       1.0  0.2265589419386359  0.773440726963334  0.773442457465587  1.0000
  Se  Se5       1.0  0.2265579494820977  0.773442263942051  0.22655946666792548  1.0000
  Se  Se6       1.0  0.7734408358817807  0.2265597838675001  0.7734426169437869  1.0000
