data_image0
_chemical_formula_structural       In2CoTe6
_chemical_formula_sum              "In2 Co1 Te6"
_cell_length_a       7.159027388452082
_cell_length_b       7.159036007353827
_cell_length_c       7.159028885896499
_cell_angle_alpha    60.000030045938914
_cell_angle_beta     59.99999723706228
_cell_angle_gamma    60.00002945740132

_space_group_name_H-M_alt    "P 1"
_space_group_IT_number       1

loop_
  _space_group_symop_operation_xyz
  'x, y, z'

loop_
  _atom_site_type_symbol
  _atom_site_label
  _atom_site_symmetry_multiplicity
  _atom_site_fract_x
  _atom_site_fract_y
  _atom_site_fract_z
  _atom_site_occupancy
  In  In1       1.0  0.2500009704098457  0.250000274662087  0.24999894648152712  1.0000
  In  In2       1.0  0.7499992797706849  0.7499991713854489  0.7500005472613467  1.0000
  Co  Co1       1.0  3.3325862156360676e-07  0.9999999195939221  3.421005268671684e-08  1.0000
  Te  Te1       1.0  0.24180303164538086  0.24180307141118143  0.7581963605512706  1.0000
  Te  Te2       1.0  0.7581965873486377  0.7581969665617866  0.2418031975209106  1.0000
  Te  Te3       1.0  0.7581960364974314  0.24180441452412907  0.24180212334441986  1.0000
  Te  Te4       1.0  0.24180372048739113  0.7581958869068942  0.7581985246811788  1.0000
  Te  Te5       1.0  0.24180372213783394  0.7581956380377475  0.24180252684409287  1.0000
  Te  Te6       1.0  0.7581964107294237  0.2418043776951575  0.7581980760893655  1.0000
