data_image0
_chemical_formula_structural       In2CoO6
_chemical_formula_sum              "In2 Co1 O6"
_cell_length_a       5.159597723162614
_cell_length_b       5.159597584965788
_cell_length_c       5.1595973437933305
_cell_angle_alpha    60.0000030540247
_cell_angle_beta     60.00000358442155
_cell_angle_gamma    60.00000018717148

_space_group_name_H-M_alt    "P 1"
_space_group_IT_number       1

loop_
  _space_group_symop_operation_xyz
  'x, y, z'

loop_
  _atom_site_type_symbol
  _atom_site_label
  _atom_site_symmetry_multiplicity
  _atom_site_fract_x
  _atom_site_fract_y
  _atom_site_fract_z
  _atom_site_occupancy
  In  In1       1.0  0.2499998090379366  0.25000009494561737  0.25000011856291077  1.0000
  In  In2       1.0  0.7500002326072873  0.7499999026676549  0.7500002196138887  1.0000
  Co  Co1       1.0  0.9999999513077662  0.9999999715153393  0.9999998971045377  1.0000
  O   O1        1.0  0.24368770185094138  0.24368779875957455  0.7563121860235721  1.0000
  O   O2        1.0  0.7563123420981209  0.7563123127923295  0.24368753972517276  1.0000
  O   O3        1.0  0.7563123176750195  0.24368772034686545  0.2436876764877022  1.0000
  O   O4        1.0  0.2436875584498757  0.7563123508517751  0.7563122715760361  1.0000
  O   O5        1.0  0.24368767012630305  0.7563121188179062  0.24368780821869063  1.0000
  O   O6        1.0  0.756312485069586  0.24368775298811268  0.756312179469427  1.0000
