data_image0
_chemical_formula_structural       In2CoSe6
_chemical_formula_sum              "In2 Co1 Se6"
_cell_length_a       6.578620292249535
_cell_length_b       6.578620998043288
_cell_length_c       6.578619136381949
_cell_angle_alpha    60.00000818255936
_cell_angle_beta     60.00000593926541
_cell_angle_gamma    59.99999843754703

_space_group_name_H-M_alt    "P 1"
_space_group_IT_number       1

loop_
  _space_group_symop_operation_xyz
  'x, y, z'

loop_
  _atom_site_type_symbol
  _atom_site_label
  _atom_site_symmetry_multiplicity
  _atom_site_fract_x
  _atom_site_fract_y
  _atom_site_fract_z
  _atom_site_occupancy
  In  In1       1.0  0.25000020716338683  0.24999998451794417  0.24999978084171773  1.0000
  In  In2       1.0  0.7500000065018448  0.7500000187135406  0.7500000248197805  1.0000
  Co  Co1       1.0  1.898328144461992e-07  0.9999998938828261  1.7247287410203555e-07  1.0000
  Se  Se1       1.0  0.24815780890784636  0.24815787708504658  0.7518420035740431  1.0000
  Se  Se2       1.0  0.7518419312674846  0.7518422881147719  0.24815777695921204  1.0000
  Se  Se3       1.0  0.7518419793732515  0.2481580931429442  0.24815788992308702  1.0000
  Se  Se4       1.0  0.2481576991194764  0.7518421465250518  0.751842308318539  1.0000
  Se  Se5       1.0  0.24815782538359762  0.7518420343473795  0.24815796854430494  1.0000
  Se  Se6       1.0  0.751842307723654  0.24815765239435825  0.7518420842834868  1.0000
