data_image0
_chemical_formula_structural       In2CaSe6
_chemical_formula_sum              "In2 Ca1 Se6"
_cell_length_a       7.184425007783815
_cell_length_b       7.184424965956435
_cell_length_c       7.184424952425233
_cell_angle_alpha    60.00000066916076
_cell_angle_beta     59.999999013943544
_cell_angle_gamma    60.00000258866063

_space_group_name_H-M_alt    "P 1"
_space_group_IT_number       1

loop_
  _space_group_symop_operation_xyz
  'x, y, z'

loop_
  _atom_site_type_symbol
  _atom_site_label
  _atom_site_symmetry_multiplicity
  _atom_site_fract_x
  _atom_site_fract_y
  _atom_site_fract_z
  _atom_site_occupancy
  In  In1       1.0  0.24999997624832854  0.2499999820603264  0.25000003131000487  1.0000
  In  In2       1.0  0.7499999610343445  0.7500000228934779  0.7500000603075837  1.0000
  Ca  Ca1       1.0  1.9659981431879815e-08  8.523611461060062e-09  0.9999999914758028  1.0000
  Se  Se1       1.0  0.29554668450318117  0.29554670145628437  0.7044532342795089  1.0000
  Se  Se2       1.0  0.7044533345057935  0.7044532318991888  0.2955466365296169  1.0000
  Se  Se3       1.0  0.7044532572834642  0.29554674825179433  0.29554661232279383  1.0000
  Se  Se4       1.0  0.295546465973195  0.7044535516189373  0.7044532996593564  1.0000
  Se  Se5       1.0  0.2955467682511693  0.7044533014084269  0.29554668897150604  1.0000
  Se  Se6       1.0  0.7044535402566026  0.29554645295123044  0.704453432804092  1.0000
