data_image0
_chemical_formula_structural       In2CrTe6
_chemical_formula_sum              "In2 Cr1 Te6"
_cell_length_a       7.217105900433669
_cell_length_b       7.217106720420086
_cell_length_c       7.2171064462874925
_cell_angle_alpha    60.000000222700294
_cell_angle_beta     59.999998240254165
_cell_angle_gamma    60.00000037612981

_space_group_name_H-M_alt    "P 1"
_space_group_IT_number       1

loop_
  _space_group_symop_operation_xyz
  'x, y, z'

loop_
  _atom_site_type_symbol
  _atom_site_label
  _atom_site_symmetry_multiplicity
  _atom_site_fract_x
  _atom_site_fract_y
  _atom_site_fract_z
  _atom_site_occupancy
  In  In1       1.0  0.24999999314950183  0.2500000312652402  0.24999998819167227  1.0000
  In  In2       1.0  0.7499999980517829  0.7499999851875566  0.7500000109630578  1.0000
  Cr  Cr1       1.0  2.8055969803638705e-08  0.999999983029974  0.9999999999994158  1.0000
  Te  Te1       1.0  0.26056932621803913  0.2605693986741936  0.7394306167100844  1.0000
  Te  Te2       1.0  0.7394306688958168  0.7394305244434634  0.26056938558802517  1.0000
  Te  Te3       1.0  0.7394306850209907  0.2605694509809303  0.2605693064557579  1.0000
  Te  Te4       1.0  0.2605693039176244  0.7394305722598761  0.739430740317789  1.0000
  Te  Te5       1.0  0.26056934459402975  0.7394305978818058  0.2605693330541  1.0000
  Te  Te6       1.0  0.7394306598588151  0.2605694508140399  0.7394306142557914  1.0000
