data_image0
_chemical_formula_structural       In2CrO6
_chemical_formula_sum              "In2 Cr1 O6"
_cell_length_a       5.27037041122151
_cell_length_b       5.270370348270643
_cell_length_c       5.2703700762020835
_cell_angle_alpha    60.00000385672236
_cell_angle_beta     60.00000178319805
_cell_angle_gamma    60.00000203215616

_space_group_name_H-M_alt    "P 1"
_space_group_IT_number       1

loop_
  _space_group_symop_operation_xyz
  'x, y, z'

loop_
  _atom_site_type_symbol
  _atom_site_label
  _atom_site_symmetry_multiplicity
  _atom_site_fract_x
  _atom_site_fract_y
  _atom_site_fract_z
  _atom_site_occupancy
  In  In1       1.0  0.24999999353426167  0.2500000440694698  0.24999980476206266  1.0000
  In  In2       1.0  0.7500000505795832  0.7500001391799326  0.7500005996350049  1.0000
  Cr  Cr1       1.0  0.9999999749238667  1.2781068606237615e-07  0.9999999315561261  1.0000
  O   O1        1.0  0.24679112394463826  0.24679116739644974  0.7532088565649222  1.0000
  O   O2        1.0  0.7532087735366173  0.7532087393170818  0.24679090179158691  1.0000
  O   O3        1.0  0.7532088289704346  0.2467911818602201  0.2467910727501094  1.0000
  O   O4        1.0  0.24679117356528923  0.7532086923196907  0.753208981390969  1.0000
  O   O5        1.0  0.2467912381319541  0.7532089373158114  0.2467911023492501  1.0000
  O   O6        1.0  0.753208848676669  0.24679096010240373  0.7532088164480283  1.0000
