data_image0
_chemical_formula_structural       In2CrTe6
_chemical_formula_sum              "In2 Cr1 Te6"
_cell_length_a       7.219897605085354
_cell_length_b       7.219897666370447
_cell_length_c       7.219897721256801
_cell_angle_alpha    59.999999593045175
_cell_angle_beta     59.99999953926867
_cell_angle_gamma    59.99999950042317

_space_group_name_H-M_alt    "P 1"
_space_group_IT_number       1

loop_
  _space_group_symop_operation_xyz
  'x, y, z'

loop_
  _atom_site_type_symbol
  _atom_site_label
  _atom_site_symmetry_multiplicity
  _atom_site_fract_x
  _atom_site_fract_y
  _atom_site_fract_z
  _atom_site_occupancy
  In  In1       1.0  0.24999997580304992  0.25000002622072265  0.2500000125930895  1.0000
  In  In2       1.0  0.750000021270806  0.7499999650069464  0.7500000130495224  1.0000
  Cr  Cr1       1.0  6.482973262955145e-08  0.9999999830365338  0.9999999968427844  1.0000
  Te  Te1       1.0  0.2605886560594922  0.2605887087690154  0.7394113380222731  1.0000
  Te  Te2       1.0  0.7394113621937285  0.7394112621024944  0.2605886927489806  1.0000
  Te  Te3       1.0  0.7394113325504678  0.26058866489453864  0.2605886844811041  1.0000
  Te  Te4       1.0  0.2605886198058475  0.7394113789198749  0.7394113012153152  1.0000
  Te  Te5       1.0  0.26058858660079903  0.7394113527517221  0.26058866422870774  1.0000
  Te  Te6       1.0  0.7394113898591409  0.2605886571357597  0.7394113000632029  1.0000
