data_image0
_chemical_formula_structural       In2CoS6
_chemical_formula_sum              "In2 Co1 S6"
_cell_length_a       6.165627427100102
_cell_length_b       6.165627343603837
_cell_length_c       6.165627659974934
_cell_angle_alpha    60.00000413033916
_cell_angle_beta     60.0000018223728
_cell_angle_gamma    59.999999640811396

_space_group_name_H-M_alt    "P 1"
_space_group_IT_number       1

loop_
  _space_group_symop_operation_xyz
  'x, y, z'

loop_
  _atom_site_type_symbol
  _atom_site_label
  _atom_site_symmetry_multiplicity
  _atom_site_fract_x
  _atom_site_fract_y
  _atom_site_fract_z
  _atom_site_occupancy
  In  In1       1.0  0.24999991135023888  0.2500001922872896  0.24999996499780125  1.0000
  In  In2       1.0  0.7499999619552085  0.7500000504638775  0.7500000182898175  1.0000
  Co  Co1       1.0  3.526193466954373e-08  0.9999999841087402  1.1399296230206935e-08  1.0000
  S   S1        1.0  0.24757316907458163  0.24757318123211533  0.752426714994219  1.0000
  S   S2        1.0  0.7524268529808787  0.7524268231501381  0.24757310874408664  1.0000
  S   S3        1.0  0.7524269113331686  0.24757316109999553  0.2475731402906228  1.0000
  S   S4        1.0  0.2475731244389238  0.7524267459483039  0.7524269685405734  1.0000
  S   S5        1.0  0.24757316404010227  0.752426692632167  0.2475732132731001  1.0000
  S   S6        1.0  0.7524268793757896  0.24757314091904878  0.7524268068426184  1.0000
