data_image0
_chemical_formula_structural       In2CoO6
_chemical_formula_sum              "In2 Co1 O6"
_cell_length_a       5.159004317477824
_cell_length_b       5.159004334739594
_cell_length_c       5.159004510982888
_cell_angle_alpha    59.99999971954966
_cell_angle_beta     59.99999660091548
_cell_angle_gamma    60.00000178817011

_space_group_name_H-M_alt    "P 1"
_space_group_IT_number       1

loop_
  _space_group_symop_operation_xyz
  'x, y, z'

loop_
  _atom_site_type_symbol
  _atom_site_label
  _atom_site_symmetry_multiplicity
  _atom_site_fract_x
  _atom_site_fract_y
  _atom_site_fract_z
  _atom_site_occupancy
  In  In1       1.0  0.25000048902263344  0.2499996973633802  0.24999975401633126  1.0000
  In  In2       1.0  0.7500001887506889  0.7500002814614196  0.7499996030908319  1.0000
  Co  Co1       1.0  0.9999999652279998  2.3739946088301887e-08  4.81599137375494e-08  1.0000
  O   O1        1.0  0.24371159934518172  0.2437118323306439  0.7562883494036983  1.0000
  O   O2        1.0  0.7562882267936683  0.7562882438279198  0.24371180935433473  1.0000
  O   O3        1.0  0.7562880316263579  0.24371161641804398  0.24371199601258034  1.0000
  O   O4        1.0  0.24371170008048146  0.7562882864389076  0.7562882093861342  1.0000
  O   O5        1.0  0.24371172123038817  0.756288303435475  0.24371190464180809  1.0000
  O   O6        1.0  0.7562880892641877  0.24371173236518026  0.756288324761202  1.0000
