data_image0
_chemical_formula_structural       In2CO6
_chemical_formula_sum              "In2 C1 O6"
_cell_length_a       4.8102067176641645
_cell_length_b       4.810206632286095
_cell_length_c       4.810206565573825
_cell_angle_alpha    60.000001397422714
_cell_angle_beta     60.000001781303055
_cell_angle_gamma    60.00000105995339

_space_group_name_H-M_alt    "P 1"
_space_group_IT_number       1

loop_
  _space_group_symop_operation_xyz
  'x, y, z'

loop_
  _atom_site_type_symbol
  _atom_site_label
  _atom_site_symmetry_multiplicity
  _atom_site_fract_x
  _atom_site_fract_y
  _atom_site_fract_z
  _atom_site_occupancy
  In  In1       1.0  0.24999999131600817  0.2500000279355959  0.2499999389059456  1.0000
  In  In2       1.0  0.7499999871155618  0.7500000226994833  0.749999957106837  1.0000
  C   C1        1.0  0.9999993701939283  0.9999997937628391  6.044860973672077e-08  1.0000
  O   O1        1.0  0.2299727132978787  0.22997269552807625  0.7700273430738358  1.0000
  O   O2        1.0  0.7700275289205332  0.770027579167125  0.22997251274892216  1.0000
  O   O3        1.0  0.7700274728998286  0.22997256574344643  0.22997256721192916  1.0000
  O   O4        1.0  0.2299726178237618  0.7700274288766056  0.7700275917101489  1.0000
  O   O5        1.0  0.22997269796983819  0.7700274500921377  0.22997264014587293  1.0000
  O   O6        1.0  0.7700276067413755  0.2299724426824065  0.7700274876521016  1.0000
