data_image0
_chemical_formula_structural       In2CaS6
_chemical_formula_sum              "In2 Ca1 S6"
_cell_length_a       7.02561817927986
_cell_length_b       7.0256177836006755
_cell_length_c       7.025618331079221
_cell_angle_alpha    59.99999762786906
_cell_angle_beta     59.99999586479901
_cell_angle_gamma    59.99999797720349

_space_group_name_H-M_alt    "P 1"
_space_group_IT_number       1

loop_
  _space_group_symop_operation_xyz
  'x, y, z'

loop_
  _atom_site_type_symbol
  _atom_site_label
  _atom_site_symmetry_multiplicity
  _atom_site_fract_x
  _atom_site_fract_y
  _atom_site_fract_z
  _atom_site_occupancy
  In  In1       1.0  0.2500000290296017  0.24999990214092818  0.2500000702531167  1.0000
  In  In2       1.0  0.7499999290023478  0.7500000672767332  0.749999914374979  1.0000
  Ca  Ca1       1.0  3.058101068078211e-08  0.9999999477023279  1.4038429567997265e-07  1.0000
  S   S1        1.0  0.28454222273212043  0.28454213871792416  0.7154578976098658  1.0000
  S   S2        1.0  0.7154577993159599  0.7154578062941602  0.28454232199479657  1.0000
  S   S3        1.0  0.7154577735762387  0.2845421915582559  0.28454214645609566  1.0000
  S   S4        1.0  0.2845421752722176  0.7154579434687064  0.7154577001778817  1.0000
  S   S5        1.0  0.284542116447394  0.7154578933131435  0.2845420875576847  1.0000
  S   S6        1.0  0.7154579384376348  0.2845421109696331  0.7154577159189685  1.0000
