data_image0
_chemical_formula_structural       In2CrO6
_chemical_formula_sum              "In2 Cr1 O6"
_cell_length_a       5.269929809301892
_cell_length_b       5.269929579567169
_cell_length_c       5.269929586493078
_cell_angle_alpha    60.000000855681876
_cell_angle_beta     60.00000263327991
_cell_angle_gamma    60.00000022546515

_space_group_name_H-M_alt    "P 1"
_space_group_IT_number       1

loop_
  _space_group_symop_operation_xyz
  'x, y, z'

loop_
  _atom_site_type_symbol
  _atom_site_label
  _atom_site_symmetry_multiplicity
  _atom_site_fract_x
  _atom_site_fract_y
  _atom_site_fract_z
  _atom_site_occupancy
  In  In1       1.0  0.24999988527956624  0.2500002139669505  0.24999976972915114  1.0000
  In  In2       1.0  0.7499998916057413  0.7499999214530686  0.7500000259174608  1.0000
  Cr  Cr1       1.0  8.365706732043358e-09  2.0916225982343472e-08  0.9999999739736825  1.0000
  O   O1        1.0  0.246835559017254  0.24683557081209134  0.7531644681947726  1.0000
  O   O2        1.0  0.7531644594031139  0.7531643461495687  0.2468355872643639  1.0000
  O   O3        1.0  0.7531646167059606  0.24683554198233182  0.24683561196443485  1.0000
  O   O4        1.0  0.24683567859196817  0.753164333146877  0.753164447415897  1.0000
  O   O5        1.0  0.2468355311790126  0.7531643489403622  0.2468356190333927  1.0000
  O   O6        1.0  0.7531643401254324  0.24683566098230247  0.7531645147372833  1.0000
