data_image0
_chemical_formula_structural       In2CrSe6
_chemical_formula_sum              "In2 Cr1 Se6"
_cell_length_a       6.5931740628672975
_cell_length_b       6.59317431724489
_cell_length_c       6.593174402215759
_cell_angle_alpha    59.99999705284908
_cell_angle_beta     59.99999704184948
_cell_angle_gamma    60.00000078271551

_space_group_name_H-M_alt    "P 1"
_space_group_IT_number       1

loop_
  _space_group_symop_operation_xyz
  'x, y, z'

loop_
  _atom_site_type_symbol
  _atom_site_label
  _atom_site_symmetry_multiplicity
  _atom_site_fract_x
  _atom_site_fract_y
  _atom_site_fract_z
  _atom_site_occupancy
  In  In1       1.0  0.2500000713368576  0.24999997564881746  0.25000002228934415  1.0000
  In  In2       1.0  0.7499999513220361  0.7500000792692539  0.7500000310476947  1.0000
  Cr  Cr1       1.0  0.9999999204634711  7.430378038522935e-09  7.093763784194052e-08  1.0000
  Se  Se1       1.0  0.25987817902773885  0.25987812765030394  0.74012180554016  1.0000
  Se  Se2       1.0  0.7401217884558374  0.7401218511063666  0.2598781769604328  1.0000
  Se  Se3       1.0  0.7401217423875017  0.25987815229692623  0.2598782502329434  1.0000
  Se  Se4       1.0  0.25987824407874877  0.7401217800198647  0.7401217550965734  1.0000
  Se  Se5       1.0  0.25987825941250353  0.7401218100411499  0.25987815825606736  1.0000
  Se  Se6       1.0  0.740121840218115  0.2598782188705944  0.7401217164095445  1.0000
