data_image0
_chemical_formula_structural       In2CrSe6
_chemical_formula_sum              "In2 Cr1 Se6"
_cell_length_a       6.592424713258422
_cell_length_b       6.59242467435524
_cell_length_c       6.592424940285541
_cell_angle_alpha    59.999998037672945
_cell_angle_beta     59.999999729187174
_cell_angle_gamma    59.999999277988266

_space_group_name_H-M_alt    "P 1"
_space_group_IT_number       1

loop_
  _space_group_symop_operation_xyz
  'x, y, z'

loop_
  _atom_site_type_symbol
  _atom_site_label
  _atom_site_symmetry_multiplicity
  _atom_site_fract_x
  _atom_site_fract_y
  _atom_site_fract_z
  _atom_site_occupancy
  In  In1       1.0  0.2499999981032826  0.25000003435231166  0.25000005549877685  1.0000
  In  In2       1.0  0.7499999633859917  0.749999948859004  0.7499999647800778  1.0000
  Cr  Cr1       1.0  1.859629283548356e-08  0.9999999126830985  0.999999956998787  1.0000
  Se  Se1       1.0  0.2598879428586231  0.25988801444373066  0.740112036946685  1.0000
  Se  Se2       1.0  0.7401120302540504  0.7401120022081  0.25988804574619295  1.0000
  Se  Se3       1.0  0.740112001701805  0.2598880488536156  0.25988794906649704  1.0000
  Se  Se4       1.0  0.2598879661015086  0.740112062546344  0.7401120145792632  1.0000
  Se  Se5       1.0  0.2598880324036963  0.7401119876548758  0.2598879543337204  1.0000
  Se  Se6       1.0  0.7401120387081294  0.25988800298766596  0.7401120180364937  1.0000
