data_image0
_chemical_formula_structural       In2CoSe6
_chemical_formula_sum              "In2 Co1 Se6"
_cell_length_a       6.578398401312992
_cell_length_b       6.578398326043716
_cell_length_c       6.578398396927943
_cell_angle_alpha    60.000000383742886
_cell_angle_beta     59.99999916912474
_cell_angle_gamma    59.99999963577096

_space_group_name_H-M_alt    "P 1"
_space_group_IT_number       1

loop_
  _space_group_symop_operation_xyz
  'x, y, z'

loop_
  _atom_site_type_symbol
  _atom_site_label
  _atom_site_symmetry_multiplicity
  _atom_site_fract_x
  _atom_site_fract_y
  _atom_site_fract_z
  _atom_site_occupancy
  In  In1       1.0  0.2500000165775764  0.24999994195899813  0.25000001619182344  1.0000
  In  In2       1.0  0.7500000202972786  0.7500000195008223  0.7499999953636929  1.0000
  Co  Co1       1.0  5.304810662240403e-08  4.0958886930218226e-08  0.9999999955600548  1.0000
  Se  Se1       1.0  0.2481555269332356  0.24815561379076756  0.7518444344539386  1.0000
  Se  Se2       1.0  0.7518444250122424  0.7518444444809668  0.24815556812005696  1.0000
  Se  Se3       1.0  0.7518444056680008  0.24815555929413669  0.24815553354072611  1.0000
  Se  Se4       1.0  0.24815555540990014  0.7518444189215914  0.7518444482503671  1.0000
  Se  Se5       1.0  0.24815557686589687  0.7518444149335517  0.24815555050848653  1.0000
  Se  Se6       1.0  0.7518444155060868  0.24815554838803608  0.7518444550052992  1.0000
