data_image0
_chemical_formula_structural       In2CaTe6
_chemical_formula_sum              "In2 Ca1 Te6"
_cell_length_a       7.763091428380666
_cell_length_b       7.76309133976194
_cell_length_c       7.763091465663287
_cell_angle_alpha    60.000000255128676
_cell_angle_beta     60.00000003409731
_cell_angle_gamma    59.999999509375634

_space_group_name_H-M_alt    "P 1"
_space_group_IT_number       1

loop_
  _space_group_symop_operation_xyz
  'x, y, z'

loop_
  _atom_site_type_symbol
  _atom_site_label
  _atom_site_symmetry_multiplicity
  _atom_site_fract_x
  _atom_site_fract_y
  _atom_site_fract_z
  _atom_site_occupancy
  In  In1       1.0  0.2500000241709133  0.2500000370084489  0.24999993612583912  1.0000
  In  In2       1.0  0.7499999991057573  0.7499999564155516  0.7500000576413  1.0000
  Ca  Ca1       1.0  0.9999999980769202  0.9999999968446979  0.9999999832169917  1.0000
  Te  Te1       1.0  0.2857531680129289  0.28575324092385745  0.7142467879113397  1.0000
  Te  Te2       1.0  0.7142467968933119  0.7142467714319548  0.2857532011003229  1.0000
  Te  Te3       1.0  0.7142467956165881  0.28575321968996115  0.28575319754051537  1.0000
  Te  Te4       1.0  0.2857532254818013  0.7142467579575296  0.7142468219499253  1.0000
  Te  Te5       1.0  0.28575321599941655  0.7142468017542289  0.28575319567930335  1.0000
  Te  Te6       1.0  0.7142467765517614  0.2857532169121877  0.7142468188634269  1.0000
