data_image0
_chemical_formula_structural       In2CdS6
_chemical_formula_sum              "In2 Cd1 S6"
_cell_length_a       6.771748044356627
_cell_length_b       6.771747955216923
_cell_length_c       6.771747752971346
_cell_angle_alpha    60.00000009975205
_cell_angle_beta     60.00000060084694
_cell_angle_gamma    60.00000267939517

_space_group_name_H-M_alt    "P 1"
_space_group_IT_number       1

loop_
  _space_group_symop_operation_xyz
  'x, y, z'

loop_
  _atom_site_type_symbol
  _atom_site_label
  _atom_site_symmetry_multiplicity
  _atom_site_fract_x
  _atom_site_fract_y
  _atom_site_fract_z
  _atom_site_occupancy
  In  In1       1.0  0.2499997935338917  0.25000003945068594  0.25000005421337246  1.0000
  In  In2       1.0  0.750000080086349  0.7500000098355013  0.7499998966905281  1.0000
  Cd  Cd1       1.0  0.9999999978810826  2.1703315552160208e-08  0.9999999916845245  1.0000
  S   S1        1.0  0.28177651333948023  0.28177725942673715  0.7182229101772831  1.0000
  S   S2        1.0  0.718222992905879  0.7182230683853247  0.2817767632253675  1.0000
  S   S3        1.0  0.7182235546104138  0.2817768477055991  0.28177671819547023  1.0000
  S   S4        1.0  0.2817774438097876  0.7182228760308852  0.7182233218788219  1.0000
  S   S5        1.0  0.28177636587824056  0.7182233276040221  0.28177747554135835  1.0000
  S   S6        1.0  0.7182232686247543  0.2817765335867542  0.7182228691291577  1.0000
