data_image0
_chemical_formula_structural       In2CoS6
_chemical_formula_sum              "In2 Co1 S6"
_cell_length_a       6.1658930811999095
_cell_length_b       6.165892928390344
_cell_length_c       6.1658921659843005
_cell_angle_alpha    60.00000204815032
_cell_angle_beta     60.000001868208834
_cell_angle_gamma    59.99999873594558

_space_group_name_H-M_alt    "P 1"
_space_group_IT_number       1

loop_
  _space_group_symop_operation_xyz
  'x, y, z'

loop_
  _atom_site_type_symbol
  _atom_site_label
  _atom_site_symmetry_multiplicity
  _atom_site_fract_x
  _atom_site_fract_y
  _atom_site_fract_z
  _atom_site_occupancy
  In  In1       1.0  0.24999999192491876  0.2500002152918879  0.2499999982066795  1.0000
  In  In2       1.0  0.750000148834834  0.7499998851143491  0.7499998700397337  1.0000
  Co  Co1       1.0  0.9999999839212069  0.9999999920547126  7.146564782295802e-09  1.0000
  S   S1        1.0  0.24762679220550676  0.2476268646333187  0.7523731075754  1.0000
  S   S2        1.0  0.7523731657480481  0.7523731324841809  0.24762684046729921  1.0000
  S   S3        1.0  0.7523731538744676  0.24762689874526417  0.24762678838203284  1.0000
  S   S4        1.0  0.247626807522714  0.7523730487141852  0.7523732557500181  1.0000
  S   S5        1.0  0.24762681191626185  0.7523730089118502  0.24762696972089898  1.0000
  S   S6        1.0  0.7523731589581278  0.24762693258863183  0.7523731796925021  1.0000
