data_image0
_chemical_formula_structural       In2CdO6
_chemical_formula_sum              "In2 Cd1 O6"
_cell_length_a       5.419657923146206
_cell_length_b       5.41965798426118
_cell_length_c       5.41965792433191
_cell_angle_alpha    59.99999978447539
_cell_angle_beta     59.999999786493255
_cell_angle_gamma    60.00000015117526

_space_group_name_H-M_alt    "P 1"
_space_group_IT_number       1

loop_
  _space_group_symop_operation_xyz
  'x, y, z'

loop_
  _atom_site_type_symbol
  _atom_site_label
  _atom_site_symmetry_multiplicity
  _atom_site_fract_x
  _atom_site_fract_y
  _atom_site_fract_z
  _atom_site_occupancy
  In  In1       1.0  0.24999986068457272  0.25000005319757623  0.2500000651579937  1.0000
  In  In2       1.0  0.7499999416304582  0.7499999245715023  0.7500002014662165  1.0000
  Cd  Cd1       1.0  5.3415872050777956e-08  0.9999999548036105  0.9999999829743146  1.0000
  O   O1        1.0  0.2726213979556788  0.27262141284571134  0.7273785866419208  1.0000
  O   O2        1.0  0.727378679613847  0.7273785061680622  0.2726213558519106  1.0000
  O   O3        1.0  0.7273785776533739  0.27262145314063163  0.27262139094013627  1.0000
  O   O4        1.0  0.2726213824942353  0.7273786647372563  0.7273785698769125  1.0000
  O   O5        1.0  0.27262149175729933  0.7273786018448397  0.27262130104793164  1.0000
  O   O6        1.0  0.7273786148205268  0.2726214346795473  0.7273785349740141  1.0000
