data_image0
_chemical_formula_structural       In2CS6
_chemical_formula_sum              "In2 C1 S6"
_cell_length_a       6.002971848785155
_cell_length_b       6.002971357030108
_cell_length_c       6.002970726586752
_cell_angle_alpha    59.999998671613355
_cell_angle_beta     59.99999927847842
_cell_angle_gamma    59.9999968451718

_space_group_name_H-M_alt    "P 1"
_space_group_IT_number       1

loop_
  _space_group_symop_operation_xyz
  'x, y, z'

loop_
  _atom_site_type_symbol
  _atom_site_label
  _atom_site_symmetry_multiplicity
  _atom_site_fract_x
  _atom_site_fract_y
  _atom_site_fract_z
  _atom_site_occupancy
  In  In1       1.0  0.24999983361595582  0.24999951930198863  0.2500004857801852  1.0000
  In  In2       1.0  0.7500000761082527  0.7499995270157468  0.7500007284672958  1.0000
  C   C1        1.0  1.9786521718787397e-07  4.508910927579418e-07  0.999999167540047  1.0000
  S   S1        1.0  0.2277205471311643  0.22772034665893665  0.7722794485662708  1.0000
  S   S2        1.0  0.7722790084932105  0.7722793810960422  0.22772016938848805  1.0000
  S   S3        1.0  0.7722784826050841  0.22772186808104478  0.2277210792509675  1.0000
  S   S4        1.0  0.22772026538455206  0.7722799651924481  0.7722787993115321  1.0000
  S   S5        1.0  0.22772183034304688  0.7722789156289598  0.22772082696080787  1.0000
  S   S6        1.0  0.7722798902968383  0.2277200184760545  0.7722791148112693  1.0000
