data_image0
_chemical_formula_structural       In2CaO6
_chemical_formula_sum              "In2 Ca1 O6"
_cell_length_a       5.460107903990387
_cell_length_b       5.460107875498214
_cell_length_c       5.4601077784937475
_cell_angle_alpha    59.99999860644852
_cell_angle_beta     59.99999837814746
_cell_angle_gamma    59.99999693974997

_space_group_name_H-M_alt    "P 1"
_space_group_IT_number       1

loop_
  _space_group_symop_operation_xyz
  'x, y, z'

loop_
  _atom_site_type_symbol
  _atom_site_label
  _atom_site_symmetry_multiplicity
  _atom_site_fract_x
  _atom_site_fract_y
  _atom_site_fract_z
  _atom_site_occupancy
  In  In1       1.0  0.25000018230908744  0.24999989147839247  0.25000000078670986  1.0000
  In  In2       1.0  0.750000149404377  0.7500000041676786  0.7500003585932835  1.0000
  Ca  Ca1       1.0  1.4754448339774178e-07  0.9999999887846054  0.9999999446557128  1.0000
  O   O1        1.0  0.27947431564064695  0.2794745171617181  0.720525712018523  1.0000
  O   O2        1.0  0.7205253874179505  0.7205257037307151  0.2794742276484375  1.0000
  O   O3        1.0  0.7205254918272007  0.2794744338309462  0.27947437888404136  1.0000
  O   O4        1.0  0.2794742327019424  0.7205256592060294  0.7205255645258033  1.0000
  O   O5        1.0  0.2794744363224321  0.7205255305571285  0.27947433763210583  1.0000
  O   O6        1.0  0.7205256366824576  0.2794742910673773  0.7205254811672112  1.0000
