data_image0
_chemical_formula_structural       In2CO6
_chemical_formula_sum              "In2 C1 O6"
_cell_length_a       4.809488162031221
_cell_length_b       4.809488011266088
_cell_length_c       4.809487640862404
_cell_angle_alpha    60.000008018683495
_cell_angle_beta     60.00000593978328
_cell_angle_gamma    60.00000234194722

_space_group_name_H-M_alt    "P 1"
_space_group_IT_number       1

loop_
  _space_group_symop_operation_xyz
  'x, y, z'

loop_
  _atom_site_type_symbol
  _atom_site_label
  _atom_site_symmetry_multiplicity
  _atom_site_fract_x
  _atom_site_fract_y
  _atom_site_fract_z
  _atom_site_occupancy
  In  In1       1.0  0.25000018146980413  0.24999993915871457  0.24999978388641053  1.0000
  In  In2       1.0  0.7500001791800579  0.7500000848605655  0.7499998122679669  1.0000
  C   C1        1.0  6.241003769588302e-07  0.999998999218337  0.9999988721921012  1.0000
  O   O1        1.0  0.22994422809088136  0.22994430083808928  0.7700558196502324  1.0000
  O   O2        1.0  0.7700555856865848  0.7700560313099185  0.22994455914829692  1.0000
  O   O3        1.0  0.7700555553383344  0.22994455605987166  0.22994452962849177  1.0000
  O   O4        1.0  0.22994389650947322  0.7700559543444178  0.7700561697213183  1.0000
  O   O5        1.0  0.22994416164620518  0.7700558263387053  0.22994451048869718  1.0000
  O   O6        1.0  0.7700556768225691  0.22994430208785677  0.7700558767351742  1.0000
