data_image0
_chemical_formula_structural       In2CuTe6
_chemical_formula_sum              "In2 Cu1 Te6"
_cell_length_a       7.162006632249982
_cell_length_b       7.162006725275929
_cell_length_c       7.1620066565984
_cell_angle_alpha    59.999998183846124
_cell_angle_beta     60.00000086067447
_cell_angle_gamma    59.999999613527116

_space_group_name_H-M_alt    "P 1"
_space_group_IT_number       1

loop_
  _space_group_symop_operation_xyz
  'x, y, z'

loop_
  _atom_site_type_symbol
  _atom_site_label
  _atom_site_symmetry_multiplicity
  _atom_site_fract_x
  _atom_site_fract_y
  _atom_site_fract_z
  _atom_site_occupancy
  In  In1       1.0  0.24999997127074652  0.2499999587377923  0.2500000190785368  1.0000
  In  In2       1.0  0.7500000054314698  0.7500000318286794  0.7499999992424088  1.0000
  Cu  Cu1       1.0  0.9999998907101723  0.9999998973964978  2.8047875721632414e-07  1.0000
  Te  Te1       1.0  0.2658874199148194  0.2658873490852265  0.7341126932301532  1.0000
  Te  Te2       1.0  0.7341126923623629  0.7341127184338667  0.2658872816585513  1.0000
  Te  Te3       1.0  0.7341127652426198  0.26588726584179184  0.26588733991166064  1.0000
  Te  Te4       1.0  0.2658872890771563  0.734112656322352  0.7341125453460513  1.0000
  Te  Te5       1.0  0.26588728384791216  0.7341128130127137  0.2658873016158955  1.0000
  Te  Te6       1.0  0.7341126876570072  0.26588730922824944  0.7341125319921151  1.0000
