data_image0
_chemical_formula_structural       In2CuSe6
_chemical_formula_sum              "In2 Cu1 Se6"
_cell_length_a       6.4282349221134965
_cell_length_b       6.42823448239609
_cell_length_c       6.428234375065556
_cell_angle_alpha    60.000000360152335
_cell_angle_beta     60.00000430743838
_cell_angle_gamma    60.00000185249208

_space_group_name_H-M_alt    "P 1"
_space_group_IT_number       1

loop_
  _space_group_symop_operation_xyz
  'x, y, z'

loop_
  _atom_site_type_symbol
  _atom_site_label
  _atom_site_symmetry_multiplicity
  _atom_site_fract_x
  _atom_site_fract_y
  _atom_site_fract_z
  _atom_site_occupancy
  In  In1       1.0  0.2500000255111745  0.24999996076715567  0.250000009701124  1.0000
  In  In2       1.0  0.7499999592824225  0.7500000023327525  0.750000089938763  1.0000
  Cu  Cu1       1.0  0.9999999605530856  5.90630149286455e-08  0.9999999046319077  1.0000
  Se  Se1       1.0  0.28091046369452083  0.2809105599166545  0.7190895243906142  1.0000
  Se  Se2       1.0  0.7190897687666159  0.7190896032354083  0.28091029849776616  1.0000
  Se  Se3       1.0  0.7190896267527143  0.28091030906506065  0.2809105273559465  1.0000
  Se  Se4       1.0  0.2809105622426971  0.7190893701513285  0.7190895078971088  1.0000
  Se  Se5       1.0  0.280910307145894  0.7190895660079588  0.2809105888892844  1.0000
  Se  Se6       1.0  0.7190892977919766  0.28091056665995223  0.7190895583358866  1.0000
