data_image0
_chemical_formula_structural       In2FeS6
_chemical_formula_sum              "In2 Fe1 S6"
_cell_length_a       6.387881393003093
_cell_length_b       6.3878815505714925
_cell_length_c       6.38788136534856
_cell_angle_alpha    60.00000805338691
_cell_angle_beta     60.000002526321104
_cell_angle_gamma    60.00000804249197

_space_group_name_H-M_alt    "P 1"
_space_group_IT_number       1

loop_
  _space_group_symop_operation_xyz
  'x, y, z'

loop_
  _atom_site_type_symbol
  _atom_site_label
  _atom_site_symmetry_multiplicity
  _atom_site_fract_x
  _atom_site_fract_y
  _atom_site_fract_z
  _atom_site_occupancy
  In  In1       1.0  0.24999990380641818  0.2500000570165652  0.25000013726577647  1.0000
  In  In2       1.0  0.7499998950940778  0.7499997339066287  0.7500001972602217  1.0000
  Fe  Fe1       1.0  8.134712113519896e-08  0.9999998101878843  0.9999999822211324  1.0000
  S   S1        1.0  0.24056864550662907  0.24056881354279425  0.7594312978269342  1.0000
  S   S2        1.0  0.7594311150603699  0.7594314394482661  0.24056876377879713  1.0000
  S   S3        1.0  0.7594314574180753  0.24056869488726357  0.24056857395149547  1.0000
  S   S4        1.0  0.2405686529763544  0.7594313817127456  0.7594312772643661  1.0000
  S   S5        1.0  0.2405686559541027  0.7594313408227978  0.24056855747591732  1.0000
  S   S6        1.0  0.759431520411475  0.2405686571681532  0.7594312515295041  1.0000
