data_image0
_chemical_formula_structural       In2FeO6
_chemical_formula_sum              "In2 Fe1 O6"
_cell_length_a       5.2612046453583545
_cell_length_b       5.261204741940383
_cell_length_c       5.261204625933045
_cell_angle_alpha    60.00000017937441
_cell_angle_beta     60.00000076060364
_cell_angle_gamma    59.99999939062568

_space_group_name_H-M_alt    "P 1"
_space_group_IT_number       1

loop_
  _space_group_symop_operation_xyz
  'x, y, z'

loop_
  _atom_site_type_symbol
  _atom_site_label
  _atom_site_symmetry_multiplicity
  _atom_site_fract_x
  _atom_site_fract_y
  _atom_site_fract_z
  _atom_site_occupancy
  In  In1       1.0  0.2500001112857939  0.2499999762092242  0.24999993684869934  1.0000
  In  In2       1.0  0.7499999661595182  0.7499999519064686  0.7499999770535134  1.0000
  Fe  Fe1       1.0  0.999999966968525  0.9999999674096934  0.999999932073505  1.0000
  O   O1        1.0  0.244361613157734  0.2443615600442147  0.7556384143353754  1.0000
  O   O2        1.0  0.7556382926751852  0.7556384285963363  0.24436173377691037  1.0000
  O   O3        1.0  0.7556384050673589  0.2443616674468223  0.2443616436774446  1.0000
  O   O4        1.0  0.24436158462989807  0.7556384119810136  0.755638426612557  1.0000
  O   O5        1.0  0.24436164030022645  0.7556383931236228  0.24436162441763137  1.0000
  O   O6        1.0  0.7556384103630541  0.2443616350908725  0.7556383326558219  1.0000
