data_image0
_chemical_formula_structural       In2FeSe6
_chemical_formula_sum              "In2 Fe1 Se6"
_cell_length_a       6.7478064866897505
_cell_length_b       6.747806939361626
_cell_length_c       6.747806687504362
_cell_angle_alpha    60.00000258574605
_cell_angle_beta     60.000000981103064
_cell_angle_gamma    60.0000030117196

_space_group_name_H-M_alt    "P 1"
_space_group_IT_number       1

loop_
  _space_group_symop_operation_xyz
  'x, y, z'

loop_
  _atom_site_type_symbol
  _atom_site_label
  _atom_site_symmetry_multiplicity
  _atom_site_fract_x
  _atom_site_fract_y
  _atom_site_fract_z
  _atom_site_occupancy
  In  In1       1.0  0.24999996765229676  0.24999997866647042  0.25000000883948903  1.0000
  In  In2       1.0  0.749999989381059  0.7500000104154974  0.7499999875933061  1.0000
  Fe  Fe1       1.0  0.9999999758530721  0.999999980034708  0.9999999494399212  1.0000
  Se  Se1       1.0  0.23868484629998848  0.23868484795639325  0.7613151355129677  1.0000
  Se  Se2       1.0  0.7613151869258121  0.7613151538307605  0.23868483721849562  1.0000
  Se  Se3       1.0  0.7613151576514243  0.23868488120643563  0.238684867911903  1.0000
  Se  Se4       1.0  0.2386848486781983  0.7613151550662215  0.7613151751230487  1.0000
  Se  Se5       1.0  0.2386848314386273  0.7613151654635607  0.23868486571516803  1.0000
  Se  Se6       1.0  0.7613152046224216  0.23868480728317001  0.7613152001448859  1.0000
