data_image0
_chemical_formula_structural       In2FeS6
_chemical_formula_sum              "In2 Fe1 S6"
_cell_length_a       6.392137595074084
_cell_length_b       6.392138010327788
_cell_length_c       6.392136289735443
_cell_angle_alpha    60.00000384310721
_cell_angle_beta     60.00000294513573
_cell_angle_gamma    59.99999754885799

_space_group_name_H-M_alt    "P 1"
_space_group_IT_number       1

loop_
  _space_group_symop_operation_xyz
  'x, y, z'

loop_
  _atom_site_type_symbol
  _atom_site_label
  _atom_site_symmetry_multiplicity
  _atom_site_fract_x
  _atom_site_fract_y
  _atom_site_fract_z
  _atom_site_occupancy
  In  In1       1.0  0.24999987225402626  0.25000002857410103  0.24999999451737076  1.0000
  In  In2       1.0  0.750000024907664  0.7500000914703248  0.7499998579552518  1.0000
  Fe  Fe1       1.0  2.4742246276137555e-08  2.874025894332666e-08  2.3320256393607957e-08  1.0000
  S   S1        1.0  0.24042256194186376  0.24042236689829052  0.759577494471752  1.0000
  S   S2        1.0  0.7595776262788616  0.7595775519642735  0.2404223818968607  1.0000
  S   S3        1.0  0.7595775640486481  0.2404222683823369  0.240422666608851  1.0000
  S   S4        1.0  0.24042232742462166  0.7595775815036088  0.7595775725303643  1.0000
  S   S5        1.0  0.24042241263080527  0.7595777379361459  0.2404224666508521  1.0000
  S   S6        1.0  0.7595776196318786  0.24042230738357856  0.7595775699594665  1.0000
