data_image0
_chemical_formula_structural       In2FeO6
_chemical_formula_sum              "In2 Fe1 O6"
_cell_length_a       5.259957740419033
_cell_length_b       5.259957642290247
_cell_length_c       5.2599576393517955
_cell_angle_alpha    60.00000157015075
_cell_angle_beta     60.00000092066981
_cell_angle_gamma    60.000000259104695

_space_group_name_H-M_alt    "P 1"
_space_group_IT_number       1

loop_
  _space_group_symop_operation_xyz
  'x, y, z'

loop_
  _atom_site_type_symbol
  _atom_site_label
  _atom_site_symmetry_multiplicity
  _atom_site_fract_x
  _atom_site_fract_y
  _atom_site_fract_z
  _atom_site_occupancy
  In  In1       1.0  0.2500000439343518  0.2500000720414828  0.25000000828212243  1.0000
  In  In2       1.0  0.7499998629192292  0.7500000414921203  0.7500000869073384  1.0000
  Fe  Fe1       1.0  3.683255308270316e-08  0.9999999487745179  4.331842788018681e-08  1.0000
  O   O1        1.0  0.2444042200570385  0.2444042668224458  0.7555957258552828  1.0000
  O   O2        1.0  0.7555957791994153  0.7555957209758787  0.24440420158824797  1.0000
  O   O3        1.0  0.7555957831824607  0.2444042045703865  0.24440427933368353  1.0000
  O   O4        1.0  0.24440426707491927  0.7555957948700937  0.7555956662183625  1.0000
  O   O5        1.0  0.2444042400150106  0.7555957794435236  0.24440421704296217  1.0000
  O   O6        1.0  0.755595731212801  0.2444042199969565  0.7555957547157759  1.0000
