data_image0
_chemical_formula_structural       In2GeSe6
_chemical_formula_sum              "In2 Ge1 Se6"
_cell_length_a       6.764133847248163
_cell_length_b       6.764133756462081
_cell_length_c       6.764133904040707
_cell_angle_alpha    60.000000299799396
_cell_angle_beta     60.00000003041283
_cell_angle_gamma    60.00000101841498

_space_group_name_H-M_alt    "P 1"
_space_group_IT_number       1

loop_
  _space_group_symop_operation_xyz
  'x, y, z'

loop_
  _atom_site_type_symbol
  _atom_site_label
  _atom_site_symmetry_multiplicity
  _atom_site_fract_x
  _atom_site_fract_y
  _atom_site_fract_z
  _atom_site_occupancy
  In  In1       1.0  0.25000004507637624  0.24999999574384088  0.2499999788466987  1.0000
  In  In2       1.0  0.7499999746766036  0.7499999618824836  0.7500000767992254  1.0000
  Ge  Ge1       1.0  0.9999999968964716  0.9999999837041904  4.222415806063643e-08  1.0000
  Se  Se1       1.0  0.25893938924719584  0.25893938806295114  0.741060597087407  1.0000
  Se  Se2       1.0  0.7410606371092847  0.7410606112082201  0.25893934425280557  1.0000
  Se  Se3       1.0  0.7410605859819561  0.2589394204548383  0.2589393921311032  1.0000
  Se  Se4       1.0  0.258939393161703  0.7410606077866613  0.7410605731142147  1.0000
  Se  Se5       1.0  0.25893942466975545  0.7410606009543168  0.2589393792231853  1.0000
  Se  Se6       1.0  0.7410605534739118  0.2589394200446009  0.7410606271030664  1.0000
