data_image0
_chemical_formula_structural       In2GeO6
_chemical_formula_sum              "In2 Ge1 O6"
_cell_length_a       5.139157705515535
_cell_length_b       5.139157117062602
_cell_length_c       5.139157365086179
_cell_angle_alpha    59.999997455120834
_cell_angle_beta     59.999998366378044
_cell_angle_gamma    59.99999599601166

_space_group_name_H-M_alt    "P 1"
_space_group_IT_number       1

loop_
  _space_group_symop_operation_xyz
  'x, y, z'

loop_
  _atom_site_type_symbol
  _atom_site_label
  _atom_site_symmetry_multiplicity
  _atom_site_fract_x
  _atom_site_fract_y
  _atom_site_fract_z
  _atom_site_occupancy
  In  In1       1.0  0.2500000662797083  0.24999996965551993  0.2499997798804066  1.0000
  In  In2       1.0  0.7500001429593691  0.7500000900869527  0.7499999230412049  1.0000
  Ge  Ge1       1.0  3.200940356046794e-09  0.9999999499535761  0.9999999514265034  1.0000
  O   O1        1.0  0.25696084188986396  0.256960699739126  0.7430391372007007  1.0000
  O   O2        1.0  0.7430391571211384  0.7430392694431529  0.2569607705986917  1.0000
  O   O3        1.0  0.7430392890949098  0.2569608744610842  0.2569607707112424  1.0000
  O   O4        1.0  0.25696062757638044  0.7430390923380332  0.7430393896007723  1.0000
  O   O5        1.0  0.2569606770466728  0.7430393169390451  0.2569608835759022  1.0000
  O   O6        1.0  0.743039204036851  0.2569607094391484  0.7430393328450083  1.0000
