data_image0
_chemical_formula_structural       In2GeTe6
_chemical_formula_sum              "In2 Ge1 Te6"
_cell_length_a       7.401375799229634
_cell_length_b       7.401375725137564
_cell_length_c       7.401376046999422
_cell_angle_alpha    59.99999519983746
_cell_angle_beta     59.99999799958158
_cell_angle_gamma    59.99999787161481

_space_group_name_H-M_alt    "P 1"
_space_group_IT_number       1

loop_
  _space_group_symop_operation_xyz
  'x, y, z'

loop_
  _atom_site_type_symbol
  _atom_site_label
  _atom_site_symmetry_multiplicity
  _atom_site_fract_x
  _atom_site_fract_y
  _atom_site_fract_z
  _atom_site_occupancy
  In  In1       1.0  0.24999997213514316  0.2500000001173371  0.25000004454415975  1.0000
  In  In2       1.0  0.74999997198555  0.7500000582683742  0.7499999525830253  1.0000
  Ge  Ge1       1.0  0.9999999841311655  0.999999986761973  7.805513639766602e-08  1.0000
  Te  Te1       1.0  0.27301897295679967  0.27301883614696676  0.7269810478928013  1.0000
  Te  Te2       1.0  0.7269810696729566  0.7269811560486229  0.2730189033507118  1.0000
  Te  Te3       1.0  0.7269811455613715  0.27301880331859396  0.27301883260570514  1.0000
  Te  Te4       1.0  0.27301890223815506  0.7269811359248978  0.7269811168580708  1.0000
  Te  Te5       1.0  0.2730188594011578  0.7269811550022091  0.2730188562274998  1.0000
  Te  Te6       1.0  0.7269811208077172  0.27301886532418074  0.7269811648539578  1.0000
