data_image0
_chemical_formula_structural       In2GeTe6
_chemical_formula_sum              "In2 Ge1 Te6"
_cell_length_a       7.399757020909849
_cell_length_b       7.3997569779228085
_cell_length_c       7.399757057281624
_cell_angle_alpha    60.00000046289253
_cell_angle_beta     60.000000345078604
_cell_angle_gamma    60.000000874534166

_space_group_name_H-M_alt    "P 1"
_space_group_IT_number       1

loop_
  _space_group_symop_operation_xyz
  'x, y, z'

loop_
  _atom_site_type_symbol
  _atom_site_label
  _atom_site_symmetry_multiplicity
  _atom_site_fract_x
  _atom_site_fract_y
  _atom_site_fract_z
  _atom_site_occupancy
  In  In1       1.0  0.25000000409927764  0.2500000092309663  0.24999998521143824  1.0000
  In  In2       1.0  0.7499999778731135  0.7500000326582442  0.7500000190142475  1.0000
  Ge  Ge1       1.0  2.000197289888663e-08  1.4896034847407778e-08  0.9999999636314563  1.0000
  Te  Te1       1.0  0.2730436618083716  0.2730436410570324  0.7269563800488235  1.0000
  Te  Te2       1.0  0.7269563361012876  0.7269563015252795  0.27304367532144735  1.0000
  Te  Te3       1.0  0.72695637386428  0.2730436660679233  0.27304363793281233  1.0000
  Te  Te4       1.0  0.2730436864474329  0.7269563046513434  0.7269563329774787  1.0000
  Te  Te5       1.0  0.2730436749444919  0.7269563228312256  0.2730437006163054  1.0000
  Te  Te6       1.0  0.726956264170771  0.27304370250683446  0.7269563076370009  1.0000
