data_image0
_chemical_formula_structural       In2GeSe6
_chemical_formula_sum              "In2 Ge1 Se6"
_cell_length_a       6.765977052151306
_cell_length_b       6.765976963959643
_cell_length_c       6.765977054366355
_cell_angle_alpha    60.000000396187126
_cell_angle_beta     60.00000172395165
_cell_angle_gamma    60.000000371433934

_space_group_name_H-M_alt    "P 1"
_space_group_IT_number       1

loop_
  _space_group_symop_operation_xyz
  'x, y, z'

loop_
  _atom_site_type_symbol
  _atom_site_label
  _atom_site_symmetry_multiplicity
  _atom_site_fract_x
  _atom_site_fract_y
  _atom_site_fract_z
  _atom_site_occupancy
  In  In1       1.0  0.25000001236489444  0.24999998983039592  0.25000003817360883  1.0000
  In  In2       1.0  0.7500000138732762  0.7500000237957563  0.7500000516837855  1.0000
  Ge  Ge1       1.0  0.9999999920169602  9.05076149484978e-08  1.0062409414316586e-07  1.0000
  Se  Se1       1.0  0.25889883556202975  0.2588988773704563  0.7411011434888285  1.0000
  Se  Se2       1.0  0.7411012118981067  0.7411010674699087  0.2588988607797242  1.0000
  Se  Se3       1.0  0.7411011606341891  0.2588988265311491  0.2588987605186348  1.0000
  Se  Se4       1.0  0.25889883423105314  0.7411011020178446  0.7411011156149047  1.0000
  Se  Se5       1.0  0.2588988200167533  0.7411011603319619  0.2588988153449519  1.0000
  Se  Se6       1.0  0.7411011135458851  0.258898880446474  0.7411010826206289  1.0000
