data_image0
_chemical_formula_structural       In2GeS6
_chemical_formula_sum              "In2 Ge1 S6"
_cell_length_a       6.64052385343726
_cell_length_b       6.640524169225807
_cell_length_c       6.640524230737607
_cell_angle_alpha    60.00000082246268
_cell_angle_beta     60.00000009406382
_cell_angle_gamma    59.9999979036067

_space_group_name_H-M_alt    "P 1"
_space_group_IT_number       1

loop_
  _space_group_symop_operation_xyz
  'x, y, z'

loop_
  _atom_site_type_symbol
  _atom_site_label
  _atom_site_symmetry_multiplicity
  _atom_site_fract_x
  _atom_site_fract_y
  _atom_site_fract_z
  _atom_site_occupancy
  In  In1       1.0  0.2500000489839111  0.2500002600715392  0.2499998234192143  1.0000
  In  In2       1.0  0.749999973698201  0.7499996828265602  0.7500002426157996  1.0000
  Ge  Ge1       1.0  7.639545508557349e-09  5.533049019301046e-08  0.9999999368909734  1.0000
  S   S1        1.0  0.2486888693340315  0.2486888729873357  0.7513111691950387  1.0000
  S   S2        1.0  0.7513110260579586  0.7513111492178054  0.24868895847914413  1.0000
  S   S3        1.0  0.7513111347997055  0.24868891733863366  0.2486888915151451  1.0000
  S   S4        1.0  0.24868880905157442  0.7513111472865478  0.7513110521760951  1.0000
  S   S5        1.0  0.24868890656701087  0.7513110855835435  0.2486889243240114  1.0000
  S   S6        1.0  0.7513111498738866  0.2486888499371552  0.7513110216010409  1.0000
