data_image0
_chemical_formula_structural       In2GeS6
_chemical_formula_sum              "In2 Ge1 S6"
_cell_length_a       6.6407993286436335
_cell_length_b       6.640800242567327
_cell_length_c       6.640799354078983
_cell_angle_alpha    59.999999380467266
_cell_angle_beta     60.00000058636999
_cell_angle_gamma    59.99999946429538

_space_group_name_H-M_alt    "P 1"
_space_group_IT_number       1

loop_
  _space_group_symop_operation_xyz
  'x, y, z'

loop_
  _atom_site_type_symbol
  _atom_site_label
  _atom_site_symmetry_multiplicity
  _atom_site_fract_x
  _atom_site_fract_y
  _atom_site_fract_z
  _atom_site_occupancy
  In  In1       1.0  0.24999985855717902  0.24999994006666917  0.25000014113555996  1.0000
  In  In2       1.0  0.7500001097264165  0.7499999290121053  0.7500000116226212  1.0000
  Ge  Ge1       1.0  0.9999999932919504  0.9999999262290866  0.9999999197720589  1.0000
  S   S1        1.0  0.24870937704108417  0.2487095977382581  0.751290564086766  1.0000
  S   S2        1.0  0.7512907696334198  0.7512904299479856  0.2487095075111047  1.0000
  S   S3        1.0  0.7512905034789565  0.2487095684668746  0.24870934204131614  1.0000
  S   S4        1.0  0.24870925089014195  0.7512907284832597  0.7512904868970507  1.0000
  S   S5        1.0  0.24870943417296515  0.7512905225157974  0.24870947868937796  1.0000
  S   S6        1.0  0.7512906785001064  0.24870940373543968  0.7512905160658054  1.0000
