data_image0
_chemical_formula_structural       In2HfO6
_chemical_formula_sum              "In2 Hf1 O6"
_cell_length_a       5.362293973537303
_cell_length_b       5.3622939667397596
_cell_length_c       5.362293910699408
_cell_angle_alpha    60.00000580204598
_cell_angle_beta     60.000005800089944
_cell_angle_gamma    60.00000874483174

_space_group_name_H-M_alt    "P 1"
_space_group_IT_number       1

loop_
  _space_group_symop_operation_xyz
  'x, y, z'

loop_
  _atom_site_type_symbol
  _atom_site_label
  _atom_site_symmetry_multiplicity
  _atom_site_fract_x
  _atom_site_fract_y
  _atom_site_fract_z
  _atom_site_occupancy
  In  In1       1.0  0.2500020262392176  0.2499999737082813  0.24999924521357955  1.0000
  In  In2       1.0  0.750001125813519  0.7499986489398203  0.7499999754242481  1.0000
  Hf  Hf1       1.0  1.3113915795361442e-07  0.9999999360481713  0.9999999365683615  1.0000
  O   O1        1.0  0.26409415046432955  0.2640954272337257  0.7359052121998928  1.0000
  O   O2        1.0  0.7359049671567429  0.7359054405803475  0.26409483407038786  1.0000
  O   O3        1.0  0.7359041876977032  0.2640952358209885  0.2640943677607058  1.0000
  O   O4        1.0  0.2640946257832988  0.7359052071701326  0.7359052485549303  1.0000
  O   O5        1.0  0.26409424168743006  0.7359050871404419  0.26409512204968266  1.0000
  O   O6        1.0  0.7359046054490628  0.2640949835596948  0.7359059093192077  1.0000
