data_image0
_chemical_formula_structural       In2HgO6
_chemical_formula_sum              "In2 Hg1 O6"
_cell_length_a       5.36541045098636
_cell_length_b       5.365410341879912
_cell_length_c       5.365410425078877
_cell_angle_alpha    60.00000161314753
_cell_angle_beta     60.000001870242976
_cell_angle_gamma    60.00000259984548

_space_group_name_H-M_alt    "P 1"
_space_group_IT_number       1

loop_
  _space_group_symop_operation_xyz
  'x, y, z'

loop_
  _atom_site_type_symbol
  _atom_site_label
  _atom_site_symmetry_multiplicity
  _atom_site_fract_x
  _atom_site_fract_y
  _atom_site_fract_z
  _atom_site_occupancy
  In  In1       1.0  0.25000007788286893  0.2499997715422578  0.2500000671526125  1.0000
  In  In2       1.0  0.7499997641652746  0.7500003098698425  0.7499996888300767  1.0000
  Hg  Hg1       1.0  0.9999999969564438  9.130671082497459e-09  3.4232249026199406e-08  1.0000
  O   O1        1.0  0.2666919430013733  0.26669161192542595  0.7333081883193975  1.0000
  O   O2        1.0  0.7333082193247961  0.7333082640466043  0.2666920414245552  1.0000
  O   O3        1.0  0.7333081647749021  0.2666918114531222  0.26669180765731904  1.0000
  O   O4        1.0  0.26669193048486795  0.7333082334363056  0.7333080841374274  1.0000
  O   O5        1.0  0.2666918183405051  0.7333082229232731  0.26669179337909826  1.0000
  O   O6        1.0  0.7333080805989847  0.2666917717474637  0.7333082626885175  1.0000
