data_image0
_chemical_formula_structural       In2HgS6
_chemical_formula_sum              "In2 Hg1 S6"
_cell_length_a       6.68714182733661
_cell_length_b       6.687141798969501
_cell_length_c       6.687141486415688
_cell_angle_alpha    60.00000046319693
_cell_angle_beta     59.99999866130865
_cell_angle_gamma    59.999998001962915

_space_group_name_H-M_alt    "P 1"
_space_group_IT_number       1

loop_
  _space_group_symop_operation_xyz
  'x, y, z'

loop_
  _atom_site_type_symbol
  _atom_site_label
  _atom_site_symmetry_multiplicity
  _atom_site_fract_x
  _atom_site_fract_y
  _atom_site_fract_z
  _atom_site_occupancy
  In  In1       1.0  0.24999996787624337  0.24999988007617005  0.25000013507571445  1.0000
  In  In2       1.0  0.7499998795348704  0.7500000285048789  0.7500000436870138  1.0000
  Hg  Hg1       1.0  1.542222255923881e-07  0.9999999413922429  0.9999999791100935  1.0000
  S   S1        1.0  0.2774142864362403  0.2774141576522871  0.7225857818421655  1.0000
  S   S2        1.0  0.7225858168297709  0.7225857655806945  0.27741424970388334  1.0000
  S   S3        1.0  0.7225853663694474  0.2774145088724226  0.2774144381486512  1.0000
  S   S4        1.0  0.2774145359982436  0.7225855663744248  0.7225854428769776  1.0000
  S   S5        1.0  0.2774144976227604  0.7225855978860221  0.27741446165915085  1.0000
  S   S6        1.0  0.7225855210115654  0.27741453780006864  0.722585447655303  1.0000
