data_image0
_chemical_formula_structural       In2HfS6
_chemical_formula_sum              "In2 Hf1 S6"
_cell_length_a       6.648168532357093
_cell_length_b       6.6481681908864605
_cell_length_c       6.648168710226783
_cell_angle_alpha    59.99999879786753
_cell_angle_beta     59.999998489056324
_cell_angle_gamma    59.99999995372154

_space_group_name_H-M_alt    "P 1"
_space_group_IT_number       1

loop_
  _space_group_symop_operation_xyz
  'x, y, z'

loop_
  _atom_site_type_symbol
  _atom_site_label
  _atom_site_symmetry_multiplicity
  _atom_site_fract_x
  _atom_site_fract_y
  _atom_site_fract_z
  _atom_site_occupancy
  In  In1       1.0  0.2499999159248685  0.24999996522347243  0.2500000345142501  1.0000
  In  In2       1.0  0.7500000544088825  0.750000028310915  0.7499997244629595  1.0000
  Hf  Hf1       1.0  1.2159898618705453e-07  0.9999999686821094  4.661404219364983e-08  1.0000
  S   S1        1.0  0.2639131000559942  0.2639131057611027  0.7360868624651878  1.0000
  S   S2        1.0  0.7360868884712478  0.7360868748776878  0.2639132443355279  1.0000
  S   S3        1.0  0.7360869676398011  0.26391303852197395  0.263913180615005  1.0000
  S   S4        1.0  0.26391315057477954  0.7360868813232583  0.7360868691762149  1.0000
  S   S5        1.0  0.263912994317027  0.7360869317605158  0.26391323534304795  1.0000
  S   S6        1.0  0.7360868010292455  0.2639131907299102  0.7360868414679133  1.0000
