data_image0
_chemical_formula_structural       In2HfTe6
_chemical_formula_sum              "In2 Hf1 Te6"
_cell_length_a       7.524034826804492
_cell_length_b       7.5240346988212226
_cell_length_c       7.524034643376421
_cell_angle_alpha    59.99999872298422
_cell_angle_beta     60.00000186732509
_cell_angle_gamma    59.99999753910321

_space_group_name_H-M_alt    "P 1"
_space_group_IT_number       1

loop_
  _space_group_symop_operation_xyz
  'x, y, z'

loop_
  _atom_site_type_symbol
  _atom_site_label
  _atom_site_symmetry_multiplicity
  _atom_site_fract_x
  _atom_site_fract_y
  _atom_site_fract_z
  _atom_site_occupancy
  In  In1       1.0  0.2500000211448267  0.249999939894449  0.2500000290196491  1.0000
  In  In2       1.0  0.7499999577699981  0.7500000491998755  0.7500000583597746  1.0000
  Hf  Hf1       1.0  0.9999999615370958  1.660332312782332e-07  2.3933728611996207e-08  1.0000
  Te  Te1       1.0  0.26769885674952315  0.2676988956654093  0.7323011117807409  1.0000
  Te  Te2       1.0  0.7323011166170817  0.7323010087845251  0.2676988904457212  1.0000
  Te  Te3       1.0  0.7323011982676447  0.2676988485237104  0.2676987731683547  1.0000
  Te  Te4       1.0  0.2676989678652265  0.7323010070929168  0.7323011424718143  1.0000
  Te  Te5       1.0  0.26769885518553943  0.7323011276539543  0.26769885455875625  1.0000
  Te  Te6       1.0  0.7323010646346438  0.26769895585142733  0.732301120798193  1.0000
