data_image0
_chemical_formula_structural       In2HgTe6
_chemical_formula_sum              "In2 Hg1 Te6"
_cell_length_a       7.496664032967383
_cell_length_b       7.49666393074488
_cell_length_c       7.4966642713920795
_cell_angle_alpha    59.999997919553074
_cell_angle_beta     59.999999326220006
_cell_angle_gamma    60.00000060835891

_space_group_name_H-M_alt    "P 1"
_space_group_IT_number       1

loop_
  _space_group_symop_operation_xyz
  'x, y, z'

loop_
  _atom_site_type_symbol
  _atom_site_label
  _atom_site_symmetry_multiplicity
  _atom_site_fract_x
  _atom_site_fract_y
  _atom_site_fract_z
  _atom_site_occupancy
  In  In1       1.0  0.24999997020015266  0.24999998350163927  0.2500000526935869  1.0000
  In  In2       1.0  0.7500000128652682  0.7499999995165175  0.7499999944033989  1.0000
  Hg  Hg1       1.0  0.9999999958302821  3.2674392895799056e-09  4.8472497422827235e-08  1.0000
  Te  Te1       1.0  0.2804308520536364  0.28043093084818843  0.7195690612541727  1.0000
  Te  Te2       1.0  0.7195691741237569  0.719569079943208  0.28043085569141746  1.0000
  Te  Te3       1.0  0.7195690170435386  0.28043099476677874  0.28043093170215894  1.0000
  Te  Te4       1.0  0.2804309492495755  0.7195690062222965  0.719569080113429  1.0000
  Te  Te5       1.0  0.2804309751452794  0.7195689835844598  0.28043094306567606  1.0000
  Te  Te6       1.0  0.7195690482318442  0.28043101250345714  0.7195690413245599  1.0000
