data_image0
_chemical_formula_structural       In2IrSe6
_chemical_formula_sum              "In2 Ir1 Se6"
_cell_length_a       6.684457607831546
_cell_length_b       6.6844578598761775
_cell_length_c       6.684457518577597
_cell_angle_alpha    60.00000255973292
_cell_angle_beta     60.000001527897815
_cell_angle_gamma    60.00000105773296

_space_group_name_H-M_alt    "P 1"
_space_group_IT_number       1

loop_
  _space_group_symop_operation_xyz
  'x, y, z'

loop_
  _atom_site_type_symbol
  _atom_site_label
  _atom_site_symmetry_multiplicity
  _atom_site_fract_x
  _atom_site_fract_y
  _atom_site_fract_z
  _atom_site_occupancy
  In  In1       1.0  0.24999995529982122  0.2500000337136234  0.2500000003210087  1.0000
  In  In2       1.0  0.750000028368797  0.7499999454015196  0.7499999587018346  1.0000
  Ir  Ir1       1.0  2.16543936753082e-08  0.9999999816777235  2.0774057118314524e-08  1.0000
  Se  Se1       1.0  0.26000456669893846  0.26000452517527717  0.7399954715850978  1.0000
  Se  Se2       1.0  0.7399954062038664  0.7399954447787284  0.2600046006257527  1.0000
  Se  Se3       1.0  0.739995555315664  0.26000456177704667  0.26000450845452816  1.0000
  Se  Se4       1.0  0.2600046221586711  0.7399953697001761  0.73999546126085  1.0000
  Se  Se5       1.0  0.26000446725878673  0.7399955025172393  0.2600045828272468  1.0000
  Se  Se6       1.0  0.7399953766936116  0.260004646995075  0.7399953907752749  1.0000
