data_image0
_chemical_formula_structural       In2IrO6
_chemical_formula_sum              "In2 Ir1 O6"
_cell_length_a       5.5700432742547115
_cell_length_b       5.570043385270865
_cell_length_c       5.57004334425884
_cell_angle_alpha    59.99999899179187
_cell_angle_beta     59.99999892767878
_cell_angle_gamma    60.000000167300506

_space_group_name_H-M_alt    "P 1"
_space_group_IT_number       1

loop_
  _space_group_symop_operation_xyz
  'x, y, z'

loop_
  _atom_site_type_symbol
  _atom_site_label
  _atom_site_symmetry_multiplicity
  _atom_site_fract_x
  _atom_site_fract_y
  _atom_site_fract_z
  _atom_site_occupancy
  In  In1       1.0  0.2500000433537156  0.2500001036845056  0.24999991890236742  1.0000
  In  In2       1.0  0.7499998635247253  0.7499998295148458  0.7500001002242456  1.0000
  Ir  Ir1       1.0  0.9999999749975895  6.59642047257454e-09  0.9999999679106772  1.0000
  O   O1        1.0  0.2400069159809643  0.2400070819596435  0.7599929985989533  1.0000
  O   O2        1.0  0.7599930326279543  0.7599930183490184  0.2400069017452184  1.0000
  O   O3        1.0  0.7599930093509385  0.2400070265054173  0.240007018210262  1.0000
  O   O4        1.0  0.24000711768802763  0.7599930298271093  0.7599930016200424  1.0000
  O   O5        1.0  0.2400070430676149  0.7599929281742884  0.24000703381594266  1.0000
  O   O6        1.0  0.759992954522234  0.24000703141074284  0.7599930183233521  1.0000
