data_image0
_chemical_formula_structural       In2MnSe6
_chemical_formula_sum              "In2 Mn1 Se6"
_cell_length_a       6.791151292358427
_cell_length_b       6.791151324951068
_cell_length_c       6.791151580589526
_cell_angle_alpha    59.99999963310582
_cell_angle_beta     59.99999905823415
_cell_angle_gamma    59.99999953714914

_space_group_name_H-M_alt    "P 1"
_space_group_IT_number       1

loop_
  _space_group_symop_operation_xyz
  'x, y, z'

loop_
  _atom_site_type_symbol
  _atom_site_label
  _atom_site_symmetry_multiplicity
  _atom_site_fract_x
  _atom_site_fract_y
  _atom_site_fract_z
  _atom_site_occupancy
  In  In1       1.0  0.25000000786141086  0.24999995393860103  0.25000004220441624  1.0000
  In  In2       1.0  0.7500000016835568  0.7500000295359254  0.7499999771333024  1.0000
  Mn  Mn1       1.0  0.9999999711980131  0.9999999945896735  6.798626382790179e-09  1.0000
  Se  Se1       1.0  0.24376307136134828  0.24376305084535957  0.7562369324443913  1.0000
  Se  Se2       1.0  0.7562369544823474  0.756236939842935  0.24376304126947984  1.0000
  Se  Se3       1.0  0.7562369386025749  0.243763049372528  0.24376305252803965  1.0000
  Se  Se4       1.0  0.24376305601684828  0.756236973777726  0.7562369455995616  1.0000
  Se  Se5       1.0  0.24376303584887907  0.7562369353047608  0.24376307433041985  1.0000
  Se  Se6       1.0  0.7562369648851588  0.24376306440074505  0.756236928044735  1.0000
