data_image0
_chemical_formula_structural       In2MnSe6
_chemical_formula_sum              "In2 Mn1 Se6"
_cell_length_a       6.791240321366329
_cell_length_b       6.7912405200163555
_cell_length_c       6.79124015385754
_cell_angle_alpha    59.999999842269645
_cell_angle_beta     59.999999927113144
_cell_angle_gamma    59.999999499056706

_space_group_name_H-M_alt    "P 1"
_space_group_IT_number       1

loop_
  _space_group_symop_operation_xyz
  'x, y, z'

loop_
  _atom_site_type_symbol
  _atom_site_label
  _atom_site_symmetry_multiplicity
  _atom_site_fract_x
  _atom_site_fract_y
  _atom_site_fract_z
  _atom_site_occupancy
  In  In1       1.0  0.2499999790041288  0.2499999242572465  0.250000030222099  1.0000
  In  In2       1.0  0.7500000362443858  0.7499999188486359  0.7499999871541527  1.0000
  Mn  Mn1       1.0  4.2386147555730955e-08  3.606836823918146e-08  2.2617115877807577e-08  1.0000
  Se  Se1       1.0  0.24378126368454145  0.24378141785092652  0.7562186387253214  1.0000
  Se  Se2       1.0  0.7562185679808228  0.756218690357475  0.24378137470337088  1.0000
  Se  Se3       1.0  0.7562186231481751  0.24378144088153492  0.24378131230181735  1.0000
  Se  Se4       1.0  0.2437814341062862  0.7562185771559415  0.7562185480136524  1.0000
  Se  Se5       1.0  0.24378145223924688  0.7562185416264552  0.24378153620348103  1.0000
  Se  Se6       1.0  0.7562186018032376  0.24378149624862067  0.7562185366719435  1.0000
