data_image0
_chemical_formula_structural       In2MnS6
_chemical_formula_sum              "In2 Mn1 S6"
_cell_length_a       6.599062898835406
_cell_length_b       6.599062162413766
_cell_length_c       6.599063129308007
_cell_angle_alpha    60.00000184716288
_cell_angle_beta     59.99999923554443
_cell_angle_gamma    60.00000566404759

_space_group_name_H-M_alt    "P 1"
_space_group_IT_number       1

loop_
  _space_group_symop_operation_xyz
  'x, y, z'

loop_
  _atom_site_type_symbol
  _atom_site_label
  _atom_site_symmetry_multiplicity
  _atom_site_fract_x
  _atom_site_fract_y
  _atom_site_fract_z
  _atom_site_occupancy
  In  In1       1.0  0.2500001392829928  0.25000007142696523  0.24999987853375985  1.0000
  In  In2       1.0  0.7499999018234377  0.7499999303223784  0.7499999204254296  1.0000
  Mn  Mn1       1.0  0.9999997925356395  0.9999999294743551  1.9051746360088144e-07  1.0000
  S   S1        1.0  0.23735296288152155  0.23735299461419349  0.7626470355811562  1.0000
  S   S2        1.0  0.7626469959117133  0.7626471333389303  0.23735303844460484  1.0000
  S   S3        1.0  0.7626470981463426  0.23735288884620415  0.23735306234815856  1.0000
  S   S4        1.0  0.23735312743463824  0.7626468901906505  0.7626470481957475  1.0000
  S   S5        1.0  0.2373531482199324  0.7626469476133618  0.23735289505233453  1.0000
  S   S6        1.0  0.7626469350059213  0.23735301701723618  0.7626469711133788  1.0000
