data_image0
_chemical_formula_structural       In2MgSe6
_chemical_formula_sum              "In2 Mg1 Se6"
_cell_length_a       6.69170131347021
_cell_length_b       6.691701947920426
_cell_length_c       6.691703412150917
_cell_angle_alpha    60.000019566121956
_cell_angle_beta     60.00001744300452
_cell_angle_gamma    59.99999256491585

_space_group_name_H-M_alt    "P 1"
_space_group_IT_number       1

loop_
  _space_group_symop_operation_xyz
  'x, y, z'

loop_
  _atom_site_type_symbol
  _atom_site_label
  _atom_site_symmetry_multiplicity
  _atom_site_fract_x
  _atom_site_fract_y
  _atom_site_fract_z
  _atom_site_occupancy
  In  In1       1.0  0.25000004995603115  0.24999996331956784  0.25000004036336304  1.0000
  In  In2       1.0  0.7499998233133593  0.7500000931158276  0.7499999989791662  1.0000
  Mg  Mg1       1.0  0.9999998602108101  3.111419044495261e-08  9.767472308719612e-08  1.0000
  Se  Se1       1.0  0.2913608899196013  0.291361719479311  0.7086381681848054  1.0000
  Se  Se2       1.0  0.7086388703186299  0.7086401928230482  0.2913587476977457  1.0000
  Se  Se3       1.0  0.7086401051724034  0.2913598677773819  0.2913611507000848  1.0000
  Se  Se4       1.0  0.2913623442750179  0.7086368448018138  0.7086400929003005  1.0000
  Se  Se5       1.0  0.2913608049504034  0.7086397762818656  0.2913611302861425  1.0000
  Se  Se6       1.0  0.7086372633683791  0.2913615173991705  0.708640573723077  1.0000
