data_image0
_chemical_formula_structural       In2MnTe6
_chemical_formula_sum              "In2 Mn1 Te6"
_cell_length_a       7.173527499600169
_cell_length_b       7.173527788588562
_cell_length_c       7.17352735421216
_cell_angle_alpha    60.00000275149726
_cell_angle_beta     60.000000434992295
_cell_angle_gamma    60.000006697264

_space_group_name_H-M_alt    "P 1"
_space_group_IT_number       1

loop_
  _space_group_symop_operation_xyz
  'x, y, z'

loop_
  _atom_site_type_symbol
  _atom_site_label
  _atom_site_symmetry_multiplicity
  _atom_site_fract_x
  _atom_site_fract_y
  _atom_site_fract_z
  _atom_site_occupancy
  In  In1       1.0  0.2499998940198238  0.25000009523016237  0.24999999977757448  1.0000
  In  In2       1.0  0.7500000667928448  0.749999918618489  0.7500001577837537  1.0000
  Mn  Mn1       1.0  0.999999931939189  0.9999999675610747  1.3946678587093868e-07  1.0000
  Te  Te1       1.0  0.24698486446864018  0.24698512555587854  0.7530149732957637  1.0000
  Te  Te2       1.0  0.7530150325263724  0.7530148865854551  0.24698492846708311  1.0000
  Te  Te3       1.0  0.7530149623836812  0.24698521776514476  0.24698486249056567  1.0000
  Te  Te4       1.0  0.2469850569294272  0.7530148234004955  0.7530150904563848  1.0000
  Te  Te5       1.0  0.24698523280778745  0.7530148015838215  0.246984930767737  1.0000
  Te  Te6       1.0  0.7530149451484198  0.24698516446011082  0.753014905141743  1.0000
