data_image0
_chemical_formula_structural       In2MgTe6
_chemical_formula_sum              "In2 Mg1 Te6"
_cell_length_a       7.502616205053225
_cell_length_b       7.502616051556331
_cell_length_c       7.502615968783962
_cell_angle_alpha    60.00000001067205
_cell_angle_beta     59.99999956137489
_cell_angle_gamma    59.99999829016035

_space_group_name_H-M_alt    "P 1"
_space_group_IT_number       1

loop_
  _space_group_symop_operation_xyz
  'x, y, z'

loop_
  _atom_site_type_symbol
  _atom_site_label
  _atom_site_symmetry_multiplicity
  _atom_site_fract_x
  _atom_site_fract_y
  _atom_site_fract_z
  _atom_site_occupancy
  In  In1       1.0  0.24999998528749154  0.24999998271286442  0.2500000199453224  1.0000
  In  In2       1.0  0.7500000178597922  0.7499999791546441  0.7499999960019927  1.0000
  Mg  Mg1       1.0  0.9999999538706352  2.3996629536337677e-07  0.999999996382325  1.0000
  Te  Te1       1.0  0.27857883269009426  0.2785788978884138  0.7214211483375471  1.0000
  Te  Te2       1.0  0.7214211089266721  0.7214210084766871  0.278578922127626  1.0000
  Te  Te3       1.0  0.7214211866635576  0.27857884855136034  0.2785788844919625  1.0000
  Te  Te4       1.0  0.27857890142833813  0.7214210708731287  0.72142103822966  1.0000
  Te  Te5       1.0  0.2785788720444474  0.7214210864986905  0.27857894259101273  1.0000
  Te  Te6       1.0  0.7214211454985524  0.27857887373639395  0.721421060310314  1.0000
