data_image0
_chemical_formula_structural       In2MnS6
_chemical_formula_sum              "In2 Mn1 S6"
_cell_length_a       6.598941681522407
_cell_length_b       6.59894171845241
_cell_length_c       6.5989416927325335
_cell_angle_alpha    59.99999970414672
_cell_angle_beta     59.99999998997658
_cell_angle_gamma    59.99999970766089

_space_group_name_H-M_alt    "P 1"
_space_group_IT_number       1

loop_
  _space_group_symop_operation_xyz
  'x, y, z'

loop_
  _atom_site_type_symbol
  _atom_site_label
  _atom_site_symmetry_multiplicity
  _atom_site_fract_x
  _atom_site_fract_y
  _atom_site_fract_z
  _atom_site_occupancy
  In  In1       1.0  0.24999999898117628  0.24999999257716135  0.25000000405614464  1.0000
  In  In2       1.0  0.750000001255918  0.7499999962912004  0.7499999977015921  1.0000
  Mn  Mn1       1.0  1.7285979011301196e-08  1.1135829777721425e-08  2.4584351641393143e-09  1.0000
  S   S1        1.0  0.23737487300630497  0.23737487473278915  0.762625125037151  1.0000
  S   S2        1.0  0.762625110245033  0.7626251178475161  0.23737489093446476  1.0000
  S   S3        1.0  0.7626251287420076  0.2373748746421785  0.2373748779929649  1.0000
  S   S4        1.0  0.23737488538755672  0.7626251197940983  0.7626251125191849  1.0000
  S   S5        1.0  0.23737486717762635  0.7626251316949172  0.23737487383310743  1.0000
  S   S6        1.0  0.7626251180176166  0.23737488130107604  0.762625117320161  1.0000
