data_image0
_chemical_formula_structural       In2MgS6
_chemical_formula_sum              "In2 Mg1 S6"
_cell_length_a       6.648711884930244
_cell_length_b       6.648711943511686
_cell_length_c       6.6487119423700936
_cell_angle_alpha    60.00000089700441
_cell_angle_beta     60.00000044551907
_cell_angle_gamma    60.00000159946311

_space_group_name_H-M_alt    "P 1"
_space_group_IT_number       1

loop_
  _space_group_symop_operation_xyz
  'x, y, z'

loop_
  _atom_site_type_symbol
  _atom_site_label
  _atom_site_symmetry_multiplicity
  _atom_site_fract_x
  _atom_site_fract_y
  _atom_site_fract_z
  _atom_site_occupancy
  In  In1       1.0  0.25000000836067593  0.24999998942240953  0.24999999497166678  1.0000
  In  In2       1.0  0.7499998852467479  0.7500001064231054  0.7499999376250792  1.0000
  Mg  Mg1       1.0  1.3297874338318047e-08  0.9999999705267464  5.922541406624353e-08  1.0000
  S   S1        1.0  0.27022198808375103  0.2702219687371299  0.7297780350751736  1.0000
  S   S2        1.0  0.7297779991685939  0.7297780128995269  0.2702220115830404  1.0000
  S   S3        1.0  0.7297780527084897  0.2702219405850781  0.2702219897028779  1.0000
  S   S4        1.0  0.2702219943119893  0.7297780336832658  0.7297780036825129  1.0000
  S   S5        1.0  0.2702219969621993  0.7297780155731007  0.27022198966208655  1.0000
  S   S6        1.0  0.7297780564965166  0.27022195501108637  0.729777991817909  1.0000
