data_image0
_chemical_formula_structural       In2MgO6
_chemical_formula_sum              "In2 Mg1 O6"
_cell_length_a       5.171475649631763
_cell_length_b       5.171475699227733
_cell_length_c       5.171475515700321
_cell_angle_alpha    60.000001363811286
_cell_angle_beta     60.000000942013614
_cell_angle_gamma    60.000001353150665

_space_group_name_H-M_alt    "P 1"
_space_group_IT_number       1

loop_
  _space_group_symop_operation_xyz
  'x, y, z'

loop_
  _atom_site_type_symbol
  _atom_site_label
  _atom_site_symmetry_multiplicity
  _atom_site_fract_x
  _atom_site_fract_y
  _atom_site_fract_z
  _atom_site_occupancy
  In  In1       1.0  0.2500002308922471  0.2500000458673856  0.24999984515264756  1.0000
  In  In2       1.0  0.7499999863607802  0.7500000594492586  0.7500000437134182  1.0000
  Mg  Mg1       1.0  3.913055764662246e-08  1.6577887237581676e-08  3.7891037149916944e-08  1.0000
  O   O1        1.0  0.2643331283623057  0.26433310554859935  0.7356668534867412  1.0000
  O   O2        1.0  0.7356669022389516  0.7356667960968613  0.26433307197870454  1.0000
  O   O3        1.0  0.7356667657653041  0.26433311649054786  0.2643331341064278  1.0000
  O   O4        1.0  0.26433310680060573  0.7356668372568423  0.7356668617288836  1.0000
  O   O5        1.0  0.264333122513888  0.7356669429664427  0.2643331395508243  1.0000
  O   O6        1.0  0.7356667198062921  0.2643330747242261  0.7356669979978094  1.0000
