data_image0
_chemical_formula_structural       In2MnO6
_chemical_formula_sum              "In2 Mn1 O6"
_cell_length_a       5.292583546526074
_cell_length_b       5.2925836239275315
_cell_length_c       5.29258340739953
_cell_angle_alpha    60.000000214978215
_cell_angle_beta     60.00000021183392
_cell_angle_gamma    59.99999742121653

_space_group_name_H-M_alt    "P 1"
_space_group_IT_number       1

loop_
  _space_group_symop_operation_xyz
  'x, y, z'

loop_
  _atom_site_type_symbol
  _atom_site_label
  _atom_site_symmetry_multiplicity
  _atom_site_fract_x
  _atom_site_fract_y
  _atom_site_fract_z
  _atom_site_occupancy
  In  In1       1.0  0.2499999895870409  0.25000004412226345  0.25000000550490203  1.0000
  In  In2       1.0  0.7500000032530157  0.74999996343913  0.7500000780642817  1.0000
  Mn  Mn1       1.0  2.514475069433284e-08  1.6198541795749702e-08  0.99999998121779  1.0000
  O   O1        1.0  0.24627831941822292  0.24627840072065296  0.753721661641587  1.0000
  O   O2        1.0  0.7537216612351382  0.7537215975844319  0.24627832306178485  1.0000
  O   O3        1.0  0.7537216546730234  0.24627840482955007  0.24627834036088378  1.0000
  O   O4        1.0  0.24627833135714472  0.7537216166163099  0.7537216281942603  1.0000
  O   O5        1.0  0.24627838082373862  0.7537216288457855  0.24627833509264244  1.0000
  O   O6        1.0  0.7537216505388653  0.24627834169036764  0.7537216154673365  1.0000
