data_image0
_chemical_formula_structural       In2MoS6
_chemical_formula_sum              "In2 Mo1 S6"
_cell_length_a       6.619818164820445
_cell_length_b       6.6198182542685595
_cell_length_c       6.619818095276724
_cell_angle_alpha    60.000000850537425
_cell_angle_beta     59.99999867707452
_cell_angle_gamma    59.99999980725287

_space_group_name_H-M_alt    "P 1"
_space_group_IT_number       1

loop_
  _space_group_symop_operation_xyz
  'x, y, z'

loop_
  _atom_site_type_symbol
  _atom_site_label
  _atom_site_symmetry_multiplicity
  _atom_site_fract_x
  _atom_site_fract_y
  _atom_site_fract_z
  _atom_site_occupancy
  In  In1       1.0  0.2500000783366058  0.2499999578409408  0.24999998828147085  1.0000
  In  In2       1.0  0.749999953873748  0.7500000418836128  0.7500000106577469  1.0000
  Mo  Mo1       1.0  8.344568940244244e-08  0.9999999537470354  0.9999999723399433  1.0000
  S   S1        1.0  0.24780663801967912  0.24780659953011686  0.752193403085016  1.0000
  S   S2        1.0  0.7521933696826977  0.7521933742927776  0.24780666939871715  1.0000
  S   S3        1.0  0.7521933936397379  0.2478065405736776  0.2478065204107376  1.0000
  S   S4        1.0  0.24780647735355896  0.7521934980033663  0.7521934354782943  1.0000
  S   S5        1.0  0.2478065391838068  0.7521934112438091  0.24780659139437333  1.0000
  S   S6        1.0  0.7521934608006661  0.24780660143157504  0.752193433799141  1.0000
