data_image0
_chemical_formula_structural       In2MnO6
_chemical_formula_sum              "In2 Mn1 O6"
_cell_length_a       5.2924631403385805
_cell_length_b       5.2924629884683725
_cell_length_c       5.292463064655722
_cell_angle_alpha    59.99999978525352
_cell_angle_beta     59.99999980568487
_cell_angle_gamma    59.99999995902836

_space_group_name_H-M_alt    "P 1"
_space_group_IT_number       1

loop_
  _space_group_symop_operation_xyz
  'x, y, z'

loop_
  _atom_site_type_symbol
  _atom_site_label
  _atom_site_symmetry_multiplicity
  _atom_site_fract_x
  _atom_site_fract_y
  _atom_site_fract_z
  _atom_site_occupancy
  In  In1       1.0  0.24999997760806705  0.2500000506984214  0.2499999411819715  1.0000
  In  In2       1.0  0.7500000771773938  0.7499999808496262  0.7499999050133949  1.0000
  Mn  Mn1       1.0  1.3729726206364296e-08  4.628260839765725e-09  3.2389553483171847e-08  1.0000
  O   O1        1.0  0.24627130685727472  0.2462714156618455  0.7537286182104816  1.0000
  O   O2        1.0  0.7537286772301165  0.7537285858025091  0.24627141819724271  1.0000
  O   O3        1.0  0.7537286479229685  0.24627136665773436  0.24627136847655723  1.0000
  O   O4        1.0  0.24627135941536482  0.7537285977805362  0.7537287031609291  1.0000
  O   O5        1.0  0.24627134835097636  0.7537286019391888  0.24627136828380244  1.0000
  O   O6        1.0  0.7537286198249056  0.2462713948969051  0.7537286670569306  1.0000
