data_image0
_chemical_formula_structural       In2MoO6
_chemical_formula_sum              "In2 Mo1 O6"
_cell_length_a       5.442834568198516
_cell_length_b       5.442834489910869
_cell_length_c       5.442835621954019
_cell_angle_alpha    60.00000166846174
_cell_angle_beta     59.99999395774919
_cell_angle_gamma    59.99999725672086

_space_group_name_H-M_alt    "P 1"
_space_group_IT_number       1

loop_
  _space_group_symop_operation_xyz
  'x, y, z'

loop_
  _atom_site_type_symbol
  _atom_site_label
  _atom_site_symmetry_multiplicity
  _atom_site_fract_x
  _atom_site_fract_y
  _atom_site_fract_z
  _atom_site_occupancy
  In  In1       1.0  0.24999903242227417  0.24999988914315938  0.2500004860569935  1.0000
  In  In2       1.0  0.7499995860873448  0.7500000229604272  0.7499992753623458  1.0000
  Mo  Mo1       1.0  0.9999997465737092  1.6201417497303842e-07  6.407884379006917e-08  1.0000
  O   O1        1.0  0.25002606018764767  0.2500256206588183  0.7499742311735886  1.0000
  O   O2        1.0  0.7499745188363584  0.7499738706580443  0.25002603177800037  1.0000
  O   O3        1.0  0.7499744142460786  0.2500257523208487  0.2500258007657954  1.0000
  O   O4        1.0  0.25002640992004543  0.7499743082957991  0.749974183574312  1.0000
  O   O5        1.0  0.2500255681057054  0.7499743842909854  0.25002603799551876  1.0000
  O   O6        1.0  0.749974665612433  0.2500259711014343  0.7499738957547314  1.0000
