data_image0
_chemical_formula_structural       In2MoSe6
_chemical_formula_sum              "In2 Mo1 Se6"
_cell_length_a       6.940934092774038
_cell_length_b       6.940934181323812
_cell_length_c       6.940934115158599
_cell_angle_alpha    60.000000041467786
_cell_angle_beta     60.00000056610617
_cell_angle_gamma    59.99999915660539

_space_group_name_H-M_alt    "P 1"
_space_group_IT_number       1

loop_
  _space_group_symop_operation_xyz
  'x, y, z'

loop_
  _atom_site_type_symbol
  _atom_site_label
  _atom_site_symmetry_multiplicity
  _atom_site_fract_x
  _atom_site_fract_y
  _atom_site_fract_z
  _atom_site_occupancy
  In  In1       1.0  0.250000000431702  0.2500000375292001  0.24999999220711644  1.0000
  In  In2       1.0  0.7500000036161484  0.7499999908354066  0.7499999700634248  1.0000
  Mo  Mo1       1.0  0.9999999280264932  8.116813047969714e-08  0.9999999420957416  1.0000
  Se  Se1       1.0  0.24891748456649926  0.2489174671482177  0.7510825270313332  1.0000
  Se  Se2       1.0  0.7510824825648508  0.7510824324060974  0.24891754979862632  1.0000
  Se  Se3       1.0  0.7510825178267766  0.24891747602475262  0.24891746096778133  1.0000
  Se  Se4       1.0  0.2489174783902857  0.751082555868903  0.7510825524383907  1.0000
  Se  Se5       1.0  0.24891746024450673  0.7510825551755549  0.24891743938720776  1.0000
  Se  Se6       1.0  0.7510826267330291  0.2489173990790192  0.751082609239389  1.0000
