data_image0
_chemical_formula_structural       In2MnTe6
_chemical_formula_sum              "In2 Mn1 Te6"
_cell_length_a       7.174256848404273
_cell_length_b       7.174408337920416
_cell_length_c       7.174485429136786
_cell_angle_alpha    59.999888460081046
_cell_angle_beta     60.000189964313535
_cell_angle_gamma    60.00074495586168

_space_group_name_H-M_alt    "P 1"
_space_group_IT_number       1

loop_
  _space_group_symop_operation_xyz
  'x, y, z'

loop_
  _atom_site_type_symbol
  _atom_site_label
  _atom_site_symmetry_multiplicity
  _atom_site_fract_x
  _atom_site_fract_y
  _atom_site_fract_z
  _atom_site_occupancy
  In  In1       1.0  0.2500179524526837  0.24997819626418488  0.24999890862070728  1.0000
  In  In2       1.0  0.7499975811423847  0.7500099824648074  0.7500006896648141  1.0000
  Mn  Mn1       1.0  0.9999919562479317  8.612282637473189e-06  0.9999927702291301  1.0000
  Te  Te1       1.0  0.24699348322859951  0.24697689964011085  0.7530316329629697  1.0000
  Te  Te2       1.0  0.7529913585889112  0.7530357177157124  0.24698999614610478  1.0000
  Te  Te3       1.0  0.752996202310168  0.24695611150293048  0.24701088291817208  1.0000
  Te  Te4       1.0  0.2469861460304119  0.7530311179062483  0.75301384563683  1.0000
  Te  Te5       1.0  0.24701125037716876  0.7530421283050088  0.24693996806060464  1.0000
  Te  Te6       1.0  0.7530027553203926  0.2469677937771814  0.7530194897068978  1.0000
