data_image0
_chemical_formula_structural       In2NbS6
_chemical_formula_sum              "In2 Nb1 S6"
_cell_length_a       6.548767192655818
_cell_length_b       6.548767547266379
_cell_length_c       6.54876770402024
_cell_angle_alpha    59.99999729072267
_cell_angle_beta     59.99999843328675
_cell_angle_gamma    60.000000296614225

_space_group_name_H-M_alt    "P 1"
_space_group_IT_number       1

loop_
  _space_group_symop_operation_xyz
  'x, y, z'

loop_
  _atom_site_type_symbol
  _atom_site_label
  _atom_site_symmetry_multiplicity
  _atom_site_fract_x
  _atom_site_fract_y
  _atom_site_fract_z
  _atom_site_occupancy
  In  In1       1.0  0.24999996941123906  0.24999989215572613  0.25000015882729104  1.0000
  In  In2       1.0  0.7499999146721692  0.7500002019909762  0.7499999661799656  1.0000
  Nb  Nb1       1.0  0.9999999268821774  3.5159598862651586e-07  0.9999998271668048  1.0000
  S   S1        1.0  0.2557668197665455  0.25576684099730757  0.7442331443572623  1.0000
  S   S2        1.0  0.7442330140602462  0.7442329913225976  0.2557670023152786  1.0000
  S   S3        1.0  0.7442330745109745  0.2557668472637066  0.25576686072781196  1.0000
  S   S4        1.0  0.2557670411825537  0.744233059863863  0.7442329564340499  1.0000
  S   S5        1.0  0.255766976392612  0.7442331228527094  0.2557669199706125  1.0000
  S   S6        1.0  0.7442332620519612  0.2557666963758565  0.7442331897472142  1.0000
