data_image0
_chemical_formula_structural       In2NbTe6
_chemical_formula_sum              "In2 Nb1 Te6"
_cell_length_a       7.416442498895858
_cell_length_b       7.416442698333827
_cell_length_c       7.416442356249031
_cell_angle_alpha    60.000000739476896
_cell_angle_beta     60.00000085873617
_cell_angle_gamma    59.999998737654664

_space_group_name_H-M_alt    "P 1"
_space_group_IT_number       1

loop_
  _space_group_symop_operation_xyz
  'x, y, z'

loop_
  _atom_site_type_symbol
  _atom_site_label
  _atom_site_symmetry_multiplicity
  _atom_site_fract_x
  _atom_site_fract_y
  _atom_site_fract_z
  _atom_site_occupancy
  In  In1       1.0  0.25000000749262846  0.2500000317834988  0.24999995527910418  1.0000
  In  In2       1.0  0.7499999916871051  0.7499999681933689  0.7500000513313426  1.0000
  Nb  Nb1       1.0  1.135330342284234e-07  0.9999998976137402  0.9999998434108103  1.0000
  Te  Te1       1.0  0.2625566179580935  0.26255667897193763  0.7374433644054779  1.0000
  Te  Te2       1.0  0.7374433864591483  0.737443291279887  0.2625566679322903  1.0000
  Te  Te3       1.0  0.7374433690898093  0.26255667594256465  0.2625566139361972  1.0000
  Te  Te4       1.0  0.2625564757767377  0.737443469356737  0.7374435063864108  1.0000
  Te  Te5       1.0  0.26255659741072035  0.7374433815112352  0.2625566056168562  1.0000
  Te  Te6       1.0  0.7374434415264777  0.26255660195171865  0.7374434042037247  1.0000
