data_image0
_chemical_formula_structural       In2NbSe6
_chemical_formula_sum              "In2 Nb1 Se6"
_cell_length_a       6.89243628232347
_cell_length_b       6.892436288101559
_cell_length_c       6.892436531446206
_cell_angle_alpha    59.99999899387397
_cell_angle_beta     59.99999920052348
_cell_angle_gamma    60.00000116405501

_space_group_name_H-M_alt    "P 1"
_space_group_IT_number       1

loop_
  _space_group_symop_operation_xyz
  'x, y, z'

loop_
  _atom_site_type_symbol
  _atom_site_label
  _atom_site_symmetry_multiplicity
  _atom_site_fract_x
  _atom_site_fract_y
  _atom_site_fract_z
  _atom_site_occupancy
  In  In1       1.0  0.2500000102033182  0.24999999618884378  0.24999999992949545  1.0000
  In  In2       1.0  0.7500000136535498  0.7499999992281736  0.749999984074613  1.0000
  Nb  Nb1       1.0  0.9999999430073896  0.9999998844988703  4.272089761748621e-08  1.0000
  Se  Se1       1.0  0.2566800735516212  0.25668003624300134  0.743319935819162  1.0000
  Se  Se2       1.0  0.743320044358048  0.7433200640135037  0.256679955993131  1.0000
  Se  Se3       1.0  0.7433198591007482  0.2566801384174128  0.2566801003187742  1.0000
  Se  Se4       1.0  0.2566800351122062  0.7433199494005047  0.7433199603414703  1.0000
  Se  Se5       1.0  0.256680086665902  0.7433198994821469  0.25668004565632935  1.0000
  Se  Se6       1.0  0.7433199244156263  0.2566800337419549  0.7433199714793094  1.0000
