data_image0
_chemical_formula_structural       In2NbO6
_chemical_formula_sum              "In2 Nb1 O6"
_cell_length_a       5.411885812741937
_cell_length_b       5.411886071516932
_cell_length_c       5.41188588245953
_cell_angle_alpha    60.00000074236788
_cell_angle_beta     60.000000656031396
_cell_angle_gamma    60.000001712234926

_space_group_name_H-M_alt    "P 1"
_space_group_IT_number       1

loop_
  _space_group_symop_operation_xyz
  'x, y, z'

loop_
  _atom_site_type_symbol
  _atom_site_label
  _atom_site_symmetry_multiplicity
  _atom_site_fract_x
  _atom_site_fract_y
  _atom_site_fract_z
  _atom_site_occupancy
  In  In1       1.0  0.2500001291693115  0.25000040302198506  0.24999977189669687  1.0000
  In  In2       1.0  0.7500000152385314  0.7500001431624619  0.7500000791233723  1.0000
  Nb  Nb1       1.0  4.948415946806654e-08  0.9999999411603172  0.9999999954388387  1.0000
  O   O1        1.0  0.25652473465639497  0.2565249410351815  0.7434751112586421  1.0000
  O   O2        1.0  0.7434754339872311  0.7434749307559767  0.2565247691946277  1.0000
  O   O3        1.0  0.7434750258120222  0.25652478040117294  0.2565248181262291  1.0000
  O   O4        1.0  0.2565247448323  0.7434751140206299  0.7434753387050336  1.0000
  O   O5        1.0  0.2565247567831527  0.743475145449789  0.2565247258095955  1.0000
  O   O6        1.0  0.7434751225510855  0.25652453171779993  0.7434754428047694  1.0000
