data_image0
_chemical_formula_structural       In2NiO6
_chemical_formula_sum              "In2 Ni1 O6"
_cell_length_a       5.094794075457316
_cell_length_b       5.094794006719017
_cell_length_c       5.094793964713728
_cell_angle_alpha    60.000001581888014
_cell_angle_beta     60.0000019193328
_cell_angle_gamma    60.00000138192388

_space_group_name_H-M_alt    "P 1"
_space_group_IT_number       1

loop_
  _space_group_symop_operation_xyz
  'x, y, z'

loop_
  _atom_site_type_symbol
  _atom_site_label
  _atom_site_symmetry_multiplicity
  _atom_site_fract_x
  _atom_site_fract_y
  _atom_site_fract_z
  _atom_site_occupancy
  In  In1       1.0  0.24999980878535086  0.2500001849050723  0.24999995640098444  1.0000
  In  In2       1.0  0.7499999612185473  0.750000119606718  0.7499996917447417  1.0000
  Ni  Ni1       1.0  2.255042783617099e-08  0.9999999663451992  2.5180065478859623e-08  1.0000
  O   O1        1.0  0.24769613845177108  0.24769613427835063  0.7523038497422342  1.0000
  O   O2        1.0  0.7523040870227837  0.7523036197370561  0.24769628361805818  1.0000
  O   O3        1.0  0.7523037997774882  0.24769602873331287  0.2476962484623776  1.0000
  O   O4        1.0  0.24769621361077104  0.7523039127874128  0.7523038245652506  1.0000
  O   O5        1.0  0.24769617590829257  0.7523039123951167  0.24769616216256804  1.0000
  O   O6        1.0  0.7523037954232608  0.24769613489784192  0.752303969295541  1.0000
