data_image0
_chemical_formula_structural       In2NbO6
_chemical_formula_sum              "In2 Nb1 O6"
_cell_length_a       5.411601912697234
_cell_length_b       5.411602632876259
_cell_length_c       5.41160270929875
_cell_angle_alpha    59.999999521326856
_cell_angle_beta     59.999997180196345
_cell_angle_gamma    60.00000117207573

_space_group_name_H-M_alt    "P 1"
_space_group_IT_number       1

loop_
  _space_group_symop_operation_xyz
  'x, y, z'

loop_
  _atom_site_type_symbol
  _atom_site_label
  _atom_site_symmetry_multiplicity
  _atom_site_fract_x
  _atom_site_fract_y
  _atom_site_fract_z
  _atom_site_occupancy
  In  In1       1.0  0.24999974884954038  0.250000278791464  0.24999996145284858  1.0000
  In  In2       1.0  0.750000089790971  0.7499994716748757  0.7500002522642635  1.0000
  Nb  Nb1       1.0  0.9999999178376213  1.3126463042235655e-07  0.9999999237081936  1.0000
  O   O1        1.0  0.256488297051315  0.25648856552834004  0.7435115857255887  1.0000
  O   O2        1.0  0.7435116917245003  0.7435113682558439  0.25648847235224004  1.0000
  O   O3        1.0  0.7435115797132453  0.25648857247031925  0.2564883899166409  1.0000
  O   O4        1.0  0.25648856312148405  0.7435114880521274  0.7435115129795509  1.0000
  O   O5        1.0  0.256488466541542  0.7435115235722963  0.2564884467341877  1.0000
  O   O6        1.0  0.7435115881178593  0.25648864784613085  0.7435114392580322  1.0000
