data_image0
_chemical_formula_structural       In2NiTe6
_chemical_formula_sum              "In2 Ni1 Te6"
_cell_length_a       7.111276875318365
_cell_length_b       7.111278187556106
_cell_length_c       7.111276904018381
_cell_angle_alpha    60.0000033757809
_cell_angle_beta     60.000001895851774
_cell_angle_gamma    60.00000330279779

_space_group_name_H-M_alt    "P 1"
_space_group_IT_number       1

loop_
  _space_group_symop_operation_xyz
  'x, y, z'

loop_
  _atom_site_type_symbol
  _atom_site_label
  _atom_site_symmetry_multiplicity
  _atom_site_fract_x
  _atom_site_fract_y
  _atom_site_fract_z
  _atom_site_occupancy
  In  In1       1.0  0.249999869762309  0.25000009231238635  0.24999998386239844  1.0000
  In  In2       1.0  0.7500000604671333  0.7500000048205533  0.7499999492408747  1.0000
  Ni  Ni1       1.0  1.3560785557772828e-07  4.13341478597801e-08  3.3058172949210874e-07  1.0000
  Te  Te1       1.0  0.2550994641492687  0.255099685021972  0.7449005559434259  1.0000
  Te  Te2       1.0  0.7449006205570342  0.7449000314921731  0.25509981506700047  1.0000
  Te  Te3       1.0  0.7449003457702591  0.25509976876023666  0.25509946960484586  1.0000
  Te  Te4       1.0  0.2550999324758298  0.744899902975242  0.7449003573484748  1.0000
  Te  Te5       1.0  0.2550994902509958  0.7449003568703766  0.25509938229049667  1.0000
  Te  Te6       1.0  0.7449000842538712  0.2551001157145926  0.7449001668952575  1.0000
