data_image0
_chemical_formula_structural       In2NiO6
_chemical_formula_sum              "In2 Ni1 O6"
_cell_length_a       5.09516381428586
_cell_length_b       5.0951636019621915
_cell_length_c       5.095163605316643
_cell_angle_alpha    59.999998873890185
_cell_angle_beta     59.99999859579607
_cell_angle_gamma    59.99999792075181

_space_group_name_H-M_alt    "P 1"
_space_group_IT_number       1

loop_
  _space_group_symop_operation_xyz
  'x, y, z'

loop_
  _atom_site_type_symbol
  _atom_site_label
  _atom_site_symmetry_multiplicity
  _atom_site_fract_x
  _atom_site_fract_y
  _atom_site_fract_z
  _atom_site_occupancy
  In  In1       1.0  0.2499999595428816  0.2499999670177648  0.25000007992383605  1.0000
  In  In2       1.0  0.7500000179667091  0.7500000813337991  0.7499999700540706  1.0000
  Ni  Ni1       1.0  0.9999999888061338  0.9999999927887798  0.9999999954640248  1.0000
  O   O1        1.0  0.24774107757163089  0.24774102962050787  0.7522590009282147  1.0000
  O   O2        1.0  0.7522589577180236  0.7522589201777129  0.2477409575655369  1.0000
  O   O3        1.0  0.7522589168346916  0.2477409618546942  0.24774110385051265  1.0000
  O   O4        1.0  0.2477410809574255  0.7522590528445086  0.7522589076714644  1.0000
  O   O5        1.0  0.24774096553616234  0.7522589313062816  0.24774112464209175  1.0000
  O   O6        1.0  0.7522590671886911  0.24774107377796056  0.7522588545945414  1.0000
