data_image0
_chemical_formula_structural       In2NiSe6
_chemical_formula_sum              "In2 Ni1 Se6"
_cell_length_a       6.593669398787568
_cell_length_b       6.593669638421831
_cell_length_c       6.593669629767514
_cell_angle_alpha    59.99999939111842
_cell_angle_beta     60.00000122524003
_cell_angle_gamma    60.000000507733375

_space_group_name_H-M_alt    "P 1"
_space_group_IT_number       1

loop_
  _space_group_symop_operation_xyz
  'x, y, z'

loop_
  _atom_site_type_symbol
  _atom_site_label
  _atom_site_symmetry_multiplicity
  _atom_site_fract_x
  _atom_site_fract_y
  _atom_site_fract_z
  _atom_site_occupancy
  In  In1       1.0  0.250000030758279  0.24999997813454386  0.250000002634643  1.0000
  In  In2       1.0  0.750000030044087  0.7499999529781874  0.7500000494479051  1.0000
  Ni  Ni1       1.0  0.9999999694522236  0.9999999182719531  1.822275741024061e-08  1.0000
  Se  Se1       1.0  0.2491080340820277  0.24910804760337002  0.7508919518365523  1.0000
  Se  Se2       1.0  0.7508919876257649  0.7508919745246881  0.2491080151379777  1.0000
  Se  Se3       1.0  0.7508919294896574  0.24910810376659892  0.24910802918752864  1.0000
  Se  Se4       1.0  0.2491080305700856  0.7508919982320504  0.7508919681074891  1.0000
  Se  Se5       1.0  0.24910800483971898  0.750892028752441  0.24910795835743124  1.0000
  Se  Se6       1.0  0.7508919888484574  0.24910799337561704  0.7508920120106631  1.0000
