data_image0
_chemical_formula_structural       In2NbTe6
_chemical_formula_sum              "In2 Nb1 Te6"
_cell_length_a       7.4136328148889294
_cell_length_b       7.413632800681404
_cell_length_c       7.413632786216355
_cell_angle_alpha    59.99999992616664
_cell_angle_beta     59.99999990579007
_cell_angle_gamma    60.000000476219654

_space_group_name_H-M_alt    "P 1"
_space_group_IT_number       1

loop_
  _space_group_symop_operation_xyz
  'x, y, z'

loop_
  _atom_site_type_symbol
  _atom_site_label
  _atom_site_symmetry_multiplicity
  _atom_site_fract_x
  _atom_site_fract_y
  _atom_site_fract_z
  _atom_site_occupancy
  In  In1       1.0  0.25000003063222476  0.24999997970507912  0.24999999912639767  1.0000
  In  In2       1.0  0.749999956342349  0.7500000233681122  0.7500000054946555  1.0000
  Nb  Nb1       1.0  0.9999999528177063  0.9999999966959653  6.570915563119364e-08  1.0000
  Te  Te1       1.0  0.2625705944176086  0.26257058448455073  0.7374294103438688  1.0000
  Te  Te2       1.0  0.7374294285368501  0.7374294648451217  0.2625705585544668  1.0000
  Te  Te3       1.0  0.7374293975691121  0.2625705744589794  0.26257059062643906  1.0000
  Te  Te4       1.0  0.2625706410093446  0.7374293906178173  0.7374293734692106  1.0000
  Te  Te5       1.0  0.26257060548839334  0.7374293975721687  0.26257058755063295  1.0000
  Te  Te6       1.0  0.737429392766859  0.2625705856768166  0.7374294132489858  1.0000
