data_image0
_chemical_formula_structural       In2NiS6
_chemical_formula_sum              "In2 Ni1 S6"
_cell_length_a       6.302074378608782
_cell_length_b       6.302075020680091
_cell_length_c       6.302074585261913
_cell_angle_alpha    59.99999607395253
_cell_angle_beta     59.99998896999894
_cell_angle_gamma    59.99999996912355

_space_group_name_H-M_alt    "P 1"
_space_group_IT_number       1

loop_
  _space_group_symop_operation_xyz
  'x, y, z'

loop_
  _atom_site_type_symbol
  _atom_site_label
  _atom_site_symmetry_multiplicity
  _atom_site_fract_x
  _atom_site_fract_y
  _atom_site_fract_z
  _atom_site_occupancy
  In  In1       1.0  0.24999997902407536  0.24999979244685777  0.25000002619670475  1.0000
  In  In2       1.0  0.7500000054241569  0.7500002771344934  0.7499997579553848  1.0000
  Ni  Ni1       1.0  6.499899665563395e-08  0.999999986396201  1.1869929159582588e-07  1.0000
  S   S1        1.0  0.24308241746584716  0.24308239338712725  0.7569175085196537  1.0000
  S   S2        1.0  0.756917675660212  0.7569176140054457  0.24308225080112716  1.0000
  S   S3        1.0  0.7569175866235137  0.24308227987562822  0.24308246702954636  1.0000
  S   S4        1.0  0.24308225096807098  0.756917708082936  0.7569176915940415  1.0000
  S   S5        1.0  0.2430824995581231  0.7569173751429127  0.24308273131237937  1.0000
  S   S6        1.0  0.7569174969029695  0.24308260892885208  0.7569174831092838  1.0000
