data_image0
_chemical_formula_structural       In2NbSe6
_chemical_formula_sum              "In2 Nb1 Se6"
_cell_length_a       6.892904155055745
_cell_length_b       6.892904253310475
_cell_length_c       6.892904508942884
_cell_angle_alpha    59.999997380854296
_cell_angle_beta     59.99999908850517
_cell_angle_gamma    60.000003482322484

_space_group_name_H-M_alt    "P 1"
_space_group_IT_number       1

loop_
  _space_group_symop_operation_xyz
  'x, y, z'

loop_
  _atom_site_type_symbol
  _atom_site_label
  _atom_site_symmetry_multiplicity
  _atom_site_fract_x
  _atom_site_fract_y
  _atom_site_fract_z
  _atom_site_occupancy
  In  In1       1.0  0.2500000099895149  0.2499999388881713  0.25000003682535554  1.0000
  In  In2       1.0  0.7499999812656594  0.7500000281060692  0.7499999928375483  1.0000
  Nb  Nb1       1.0  0.9999999767010942  0.9999999040517273  1.5247269304519478e-07  1.0000
  Se  Se1       1.0  0.25659245703999517  0.256592499937817  0.7434075335471892  1.0000
  Se  Se2       1.0  0.7434075488332241  0.743407578996072  0.25659244589377156  1.0000
  Se  Se3       1.0  0.7434073787546696  0.2565926086655958  0.25659262774495556  1.0000
  Se  Se4       1.0  0.25659271194711464  0.7434073263458952  0.7434072811399849  1.0000
  Se  Se5       1.0  0.2565925928368801  0.743407450970461  0.25659257412476844  1.0000
  Se  Se6       1.0  0.7434073341828037  0.25659266349982135  0.7434073573379355  1.0000
