data_image0
_chemical_formula_structural       In2NbS6
_chemical_formula_sum              "In2 Nb1 S6"
_cell_length_a       6.546515501420174
_cell_length_b       6.546515252142479
_cell_length_c       6.546514923316505
_cell_angle_alpha    60.00000194921844
_cell_angle_beta     60.00000391275345
_cell_angle_gamma    59.99999773995476

_space_group_name_H-M_alt    "P 1"
_space_group_IT_number       1

loop_
  _space_group_symop_operation_xyz
  'x, y, z'

loop_
  _atom_site_type_symbol
  _atom_site_label
  _atom_site_symmetry_multiplicity
  _atom_site_fract_x
  _atom_site_fract_y
  _atom_site_fract_z
  _atom_site_occupancy
  In  In1       1.0  0.2500000299782747  0.2500000073215852  0.24999999267889353  1.0000
  In  In2       1.0  0.749999960819969  0.7499999171980103  0.7500000216560245  1.0000
  Nb  Nb1       1.0  8.156461404842525e-08  0.9999999775499792  0.9999998971212489  1.0000
  S   S1        1.0  0.25582011964821727  0.2558199887899736  0.7441799294171465  1.0000
  S   S2        1.0  0.7441798834601874  0.7441799993380056  0.2558200897293484  1.0000
  S   S3        1.0  0.7441800214338922  0.255819899785763  0.25582001201806703  1.0000
  S   S4        1.0  0.2558199013906796  0.7441802286548308  0.744180051963022  1.0000
  S   S5        1.0  0.2558200363837219  0.7441800736128997  0.25581992114166396  1.0000
  S   S6        1.0  0.7441799695217555  0.25581992199841863  0.7441800806443825  1.0000
