data_image0
_chemical_formula_structural       In2OsSe6
_chemical_formula_sum              "In2 Os1 Se6"
_cell_length_a       6.67993216861948
_cell_length_b       6.679931531897708
_cell_length_c       6.67993142160864
_cell_angle_alpha    60.000000274689235
_cell_angle_beta     60.000000267278274
_cell_angle_gamma    59.99999508285051

_space_group_name_H-M_alt    "P 1"
_space_group_IT_number       1

loop_
  _space_group_symop_operation_xyz
  'x, y, z'

loop_
  _atom_site_type_symbol
  _atom_site_label
  _atom_site_symmetry_multiplicity
  _atom_site_fract_x
  _atom_site_fract_y
  _atom_site_fract_z
  _atom_site_occupancy
  In  In1       1.0  0.25000004371804685  0.2500000273146455  0.24999995137791514  1.0000
  In  In2       1.0  0.7500000493702286  0.7499999591015013  0.7500000133337329  1.0000
  Os  Os1       1.0  7.782349270333593e-08  0.999999937662042  0.9999999174061629  1.0000
  Se  Se1       1.0  0.25979710861565575  0.25979738193482416  0.740202759188659  1.0000
  Se  Se2       1.0  0.7402027157139116  0.7402027988290727  0.2597972352433679  1.0000
  Se  Se3       1.0  0.7402028646966415  0.2597971110236876  0.25979716391509766  1.0000
  Se  Se4       1.0  0.2597972459954204  0.7402026773777807  0.7402029014811459  1.0000
  Se  Se5       1.0  0.2597971092263117  0.7402028523060002  0.2597972184124262  1.0000
  Se  Se6       1.0  0.7402027805298829  0.25979725145218646  0.740202850672123  1.0000
