data_image0
_chemical_formula_structural       In2OsO6
_chemical_formula_sum              "In2 Os1 O6"
_cell_length_a       5.545133505312949
_cell_length_b       5.545133609992835
_cell_length_c       5.545133967604139
_cell_angle_alpha    59.99999937343821
_cell_angle_beta     59.99999796423063
_cell_angle_gamma    60.00000002979284

_space_group_name_H-M_alt    "P 1"
_space_group_IT_number       1

loop_
  _space_group_symop_operation_xyz
  'x, y, z'

loop_
  _atom_site_type_symbol
  _atom_site_label
  _atom_site_symmetry_multiplicity
  _atom_site_fract_x
  _atom_site_fract_y
  _atom_site_fract_z
  _atom_site_occupancy
  In  In1       1.0  0.2499999998345006  0.2500001965259986  0.24999988731136216  1.0000
  In  In2       1.0  0.7499999209729219  0.7499999755638003  0.7499999468914469  1.0000
  Os  Os1       1.0  4.5833756207483077e-08  0.9999999624523699  1.7497532042895408e-08  1.0000
  O   O1        1.0  0.23783056478492165  0.2378304158186208  0.7621695123330208  1.0000
  O   O2        1.0  0.762169447859674  0.7621695994546059  0.23783051486056825  1.0000
  O   O3        1.0  0.7621695208242456  0.2378304606381914  0.2378305165176782  1.0000
  O   O4        1.0  0.23783054531236372  0.7621694066531975  0.7621695669377361  1.0000
  O   O5        1.0  0.2378304835956079  0.7621694366750766  0.23783051235217573  1.0000
  O   O6        1.0  0.7621694715005985  0.23783053884183436  0.7621695075888938  1.0000
