data_image0
_chemical_formula_structural       In2OsS6
_chemical_formula_sum              "In2 Os1 S6"
_cell_length_a       6.1388950074552415
_cell_length_b       6.138894554441666
_cell_length_c       6.138895083349638
_cell_angle_alpha    59.99999558397186
_cell_angle_beta     59.999995986551745
_cell_angle_gamma    59.99999298028433

_space_group_name_H-M_alt    "P 1"
_space_group_IT_number       1

loop_
  _space_group_symop_operation_xyz
  'x, y, z'

loop_
  _atom_site_type_symbol
  _atom_site_label
  _atom_site_symmetry_multiplicity
  _atom_site_fract_x
  _atom_site_fract_y
  _atom_site_fract_z
  _atom_site_occupancy
  In  In1       1.0  0.25000002740428523  0.24999949651351494  0.2500002051939337  1.0000
  In  In2       1.0  0.7499997656994408  0.7499995688668297  0.7500001559853956  1.0000
  Os  Os1       1.0  0.9999997302181818  0.9999992857693162  0.9999998909209005  1.0000
  S   S1        1.0  0.2651719213403755  0.26517212404104346  0.7348281081211623  1.0000
  S   S2        1.0  0.7348283384064547  0.7348283797759632  0.2651718054951202  1.0000
  S   S3        1.0  0.7348282578968467  0.26517199373951267  0.2651716785656789  1.0000
  S   S4        1.0  0.26517178770429045  0.7348285938699288  0.7348283572407547  1.0000
  S   S5        1.0  0.26517195733099347  0.7348284521663483  0.26517165248153285  1.0000
  S   S6        1.0  0.734828231376242  0.26517206162595025  0.734828189042572  1.0000
