data_image0
_chemical_formula_structural       In2PO6
_chemical_formula_sum              "In2 P1 O6"
_cell_length_a       4.988441274913488
_cell_length_b       4.98844037261442
_cell_length_c       4.9884414375109
_cell_angle_alpha    59.99999890969874
_cell_angle_beta     59.99999997900935
_cell_angle_gamma    59.999999049787554

_space_group_name_H-M_alt    "P 1"
_space_group_IT_number       1

loop_
  _space_group_symop_operation_xyz
  'x, y, z'

loop_
  _atom_site_type_symbol
  _atom_site_label
  _atom_site_symmetry_multiplicity
  _atom_site_fract_x
  _atom_site_fract_y
  _atom_site_fract_z
  _atom_site_occupancy
  In  In1       1.0  0.2500002863014642  0.24999954042595418  0.25000022244802594  1.0000
  In  In2       1.0  0.7499997888782772  0.7500001508462444  0.7500007061939796  1.0000
  P   P1        1.0  9.936984285091125e-09  4.91032864675142e-09  0.999999936446588  1.0000
  O   O1        1.0  0.2397568728148762  0.2397567447807193  0.7602431523161697  1.0000
  O   O2        1.0  0.760243212414038  0.7602432288354917  0.23975646944609036  1.0000
  O   O3        1.0  0.7602430584092401  0.2397568613345934  0.23975655736949048  1.0000
  O   O4        1.0  0.23975677549043908  0.760243303784554  0.760243070250316  1.0000
  O   O5        1.0  0.2397568127933692  0.7602433835685799  0.2397565767101134  1.0000
  O   O6        1.0  0.7602432719420236  0.23975673735760128  0.760243162084172  1.0000
