data_image0
_chemical_formula_structural       In2PbS6
_chemical_formula_sum              "In2 Pb1 S6"
_cell_length_a       6.752656078653897
_cell_length_b       6.752656005176903
_cell_length_c       6.7526560261206985
_cell_angle_alpha    59.99999832886751
_cell_angle_beta     59.999997558402576
_cell_angle_gamma    59.99999932476607

_space_group_name_H-M_alt    "P 1"
_space_group_IT_number       1

loop_
  _space_group_symop_operation_xyz
  'x, y, z'

loop_
  _atom_site_type_symbol
  _atom_site_label
  _atom_site_symmetry_multiplicity
  _atom_site_fract_x
  _atom_site_fract_y
  _atom_site_fract_z
  _atom_site_occupancy
  In  In1       1.0  0.24999997633001383  0.2500000028161324  0.25000007003219876  1.0000
  In  In2       1.0  0.7500000416244376  0.7500000501640333  0.7499999596564215  1.0000
  Pb  Pb1       1.0  1.4646053986279014e-08  6.89214815343565e-08  7.085890517733066e-09  1.0000
  S   S1        1.0  0.27189309233161413  0.27189311284867473  0.7281068581165172  1.0000
  S   S2        1.0  0.7281068623708348  0.7281069092981964  0.2718931282799283  1.0000
  S   S3        1.0  0.728106847191037  0.2718930005508526  0.2718931812697538  1.0000
  S   S4        1.0  0.2718931338726873  0.728106834782529  0.7281068557348249  1.0000
  S   S5        1.0  0.2718931145366986  0.7281068581927906  0.2718931389633117  1.0000
  S   S6        1.0  0.7281069094634989  0.2718931766501436  0.7281067960699349  1.0000
