data_image0
_chemical_formula_structural       In2PtSe6
_chemical_formula_sum              "In2 Pt1 Se6"
_cell_length_a       6.674681246898187
_cell_length_b       6.674681432631135
_cell_length_c       6.674680876307882
_cell_angle_alpha    60.00000326704217
_cell_angle_beta     60.000003299458236
_cell_angle_gamma    59.999992908045144

_space_group_name_H-M_alt    "P 1"
_space_group_IT_number       1

loop_
  _space_group_symop_operation_xyz
  'x, y, z'

loop_
  _atom_site_type_symbol
  _atom_site_label
  _atom_site_symmetry_multiplicity
  _atom_site_fract_x
  _atom_site_fract_y
  _atom_site_fract_z
  _atom_site_occupancy
  In  In1       1.0  0.25000003545092  0.2500000750065165  0.24999995027325578  1.0000
  In  In2       1.0  0.749999999115669  0.7500000121698447  0.7499999943829745  1.0000
  Pt  Pt1       1.0  6.678520169045036e-08  1.2660887578120352e-07  0.99999987783358  1.0000
  Se  Se1       1.0  0.25892839515773614  0.2589283325825241  0.7410716390451332  1.0000
  Se  Se2       1.0  0.7410716585105668  0.7410716298198633  0.25892836743642084  1.0000
  Se  Se3       1.0  0.7410717889026749  0.25892811967229323  0.2589281960191886  1.0000
  Se  Se4       1.0  0.2589281210041643  0.7410717913525923  0.741071930504831  1.0000
  Se  Se5       1.0  0.25892814895705296  0.7410717692117711  0.2589281592842689  1.0000
  Se  Se6       1.0  0.7410717876159294  0.25892813447346585  0.7410718901575498  1.0000
