data_image0
_chemical_formula_structural       In2PtO6
_chemical_formula_sum              "In2 Pt1 O6"
_cell_length_a       5.339623376664918
_cell_length_b       5.3396231298655366
_cell_length_c       5.339623518284081
_cell_angle_alpha    60.00000062640039
_cell_angle_beta     59.999999680830214
_cell_angle_gamma    60.000002384115234

_space_group_name_H-M_alt    "P 1"
_space_group_IT_number       1

loop_
  _space_group_symop_operation_xyz
  'x, y, z'

loop_
  _atom_site_type_symbol
  _atom_site_label
  _atom_site_symmetry_multiplicity
  _atom_site_fract_x
  _atom_site_fract_y
  _atom_site_fract_z
  _atom_site_occupancy
  In  In1       1.0  0.24999984968092867  0.25000035667240145  0.2499997820371276  1.0000
  In  In2       1.0  0.7500002756175909  0.7500002397008858  0.7499995833884538  1.0000
  Pt  Pt1       1.0  3.357328861509392e-08  1.605584220913841e-08  0.9999999789310176  1.0000
  O   O1        1.0  0.2533139976666112  0.25331386498848313  0.7466860608859479  1.0000
  O   O2        1.0  0.7466861940479972  0.7466860455710401  0.25331402250693974  1.0000
  O   O3        1.0  0.7466861333216024  0.2533136598703746  0.25331409718027265  1.0000
  O   O4        1.0  0.253313769954402  0.746685915810169  0.7466862660339475  1.0000
  O   O5        1.0  0.25331375586090366  0.7466860535662297  0.2533139952858527  1.0000
  O   O6        1.0  0.7466860343683339  0.25331389369234136  0.7466861431503932  1.0000
