data_image0
_chemical_formula_structural       In2PdO6
_chemical_formula_sum              "In2 Pd1 O6"
_cell_length_a       5.3211962715775085
_cell_length_b       5.321196969007299
_cell_length_c       5.32119614429136
_cell_angle_alpha    60.0000005701357
_cell_angle_beta     60.000001077409294
_cell_angle_gamma    60.00000058865997

_space_group_name_H-M_alt    "P 1"
_space_group_IT_number       1

loop_
  _space_group_symop_operation_xyz
  'x, y, z'

loop_
  _atom_site_type_symbol
  _atom_site_label
  _atom_site_symmetry_multiplicity
  _atom_site_fract_x
  _atom_site_fract_y
  _atom_site_fract_z
  _atom_site_occupancy
  In  In1       1.0  0.24999952359074817  0.2500001248418922  0.2500001936214232  1.0000
  In  In2       1.0  0.7499998508403386  0.7499998934841399  0.7499996946183415  1.0000
  Pd  Pd1       1.0  6.355761848209182e-10  4.6032752779061795e-09  0.9999998639519275  1.0000
  O   O1        1.0  0.2553199194844651  0.25531969268692123  0.74468016419521  1.0000
  O   O2        1.0  0.744680208377317  0.7446802266687877  0.25532012597373843  1.0000
  O   O3        1.0  0.7446803523031523  0.2553197126659805  0.2553197307406307  1.0000
  O   O4        1.0  0.2553198538329068  0.7446801606570514  0.7446804004824891  1.0000
  O   O5        1.0  0.25531974965173154  0.7446803452777437  0.255319709125369  1.0000
  O   O6        1.0  0.7446805152886018  0.25531982035282624  0.7446801506987225  1.0000
