data_image0
_chemical_formula_structural       In2PbO6
_chemical_formula_sum              "In2 Pb1 O6"
_cell_length_a       5.522332556975612
_cell_length_b       5.522333249873793
_cell_length_c       5.522332814922222
_cell_angle_alpha    59.99999748245839
_cell_angle_beta     59.999994897742624
_cell_angle_gamma    59.99999820255112

_space_group_name_H-M_alt    "P 1"
_space_group_IT_number       1

loop_
  _space_group_symop_operation_xyz
  'x, y, z'

loop_
  _atom_site_type_symbol
  _atom_site_label
  _atom_site_symmetry_multiplicity
  _atom_site_fract_x
  _atom_site_fract_y
  _atom_site_fract_z
  _atom_site_occupancy
  In  In1       1.0  0.2500006268004022  0.25000000826790914  0.24999962849823212  1.0000
  In  In2       1.0  0.7500002528728363  0.7499998451616481  0.7500007995225125  1.0000
  Pb  Pb1       1.0  8.824457851257247e-08  0.9999999046344527  9.229110312701917e-08  1.0000
  O   O1        1.0  0.26214882597094247  0.2621486841186938  0.7378513373275254  1.0000
  O   O2        1.0  0.7378511343913468  0.7378514243583141  0.2621482258670635  1.0000
  O   O3        1.0  0.7378511354766263  0.2621490555975977  0.26214857160570965  1.0000
  O   O4        1.0  0.2621484734548801  0.7378510972354736  0.737851355182402  1.0000
  O   O5        1.0  0.2621486695641017  0.7378512626251412  0.26214868093210775  1.0000
  O   O6        1.0  0.7378507961925432  0.2621486861700318  0.7378513778133303  1.0000
