data_image0
_chemical_formula_structural       In2PtO6
_chemical_formula_sum              "In2 Pt1 O6"
_cell_length_a       5.339743020882274
_cell_length_b       5.339743101190897
_cell_length_c       5.339743208960734
_cell_angle_alpha    59.99999976432653
_cell_angle_beta     59.9999997084485
_cell_angle_gamma    59.99999950954689

_space_group_name_H-M_alt    "P 1"
_space_group_IT_number       1

loop_
  _space_group_symop_operation_xyz
  'x, y, z'

loop_
  _atom_site_type_symbol
  _atom_site_label
  _atom_site_symmetry_multiplicity
  _atom_site_fract_x
  _atom_site_fract_y
  _atom_site_fract_z
  _atom_site_occupancy
  In  In1       1.0  0.24999992241225458  0.2500000465458182  0.2499997643274408  1.0000
  In  In2       1.0  0.7500000375564282  0.7499994584263516  0.7499995115372862  1.0000
  Pt  Pt1       1.0  1.413286089526885e-08  0.9999999770635992  0.999999996910773  1.0000
  O   O1        1.0  0.2533134859222947  0.2533135819743852  0.7466865867288682  1.0000
  O   O2        1.0  0.7466863004267796  0.746686560629728  0.25331397031107244  1.0000
  O   O3        1.0  0.7466866361120288  0.25331353479801927  0.253313471644348  1.0000
  O   O4        1.0  0.2533137915335224  0.7466862798155591  0.7466866553212368  1.0000
  O   O5        1.0  0.25331336714377  0.7466865473841628  0.2533136187889381  1.0000
  O   O6        1.0  0.7466864202244767  0.2533140333052034  0.7466864434046542  1.0000
