data_image0
_chemical_formula_structural       In2PdS6
_chemical_formula_sum              "In2 Pd1 S6"
_cell_length_a       6.391613019999369
_cell_length_b       6.391614063105697
_cell_length_c       6.391613138090352
_cell_angle_alpha    60.00000237027773
_cell_angle_beta     60.00000394582875
_cell_angle_gamma    60.00000350826298

_space_group_name_H-M_alt    "P 1"
_space_group_IT_number       1

loop_
  _space_group_symop_operation_xyz
  'x, y, z'

loop_
  _atom_site_type_symbol
  _atom_site_label
  _atom_site_symmetry_multiplicity
  _atom_site_fract_x
  _atom_site_fract_y
  _atom_site_fract_z
  _atom_site_occupancy
  In  In1       1.0  0.2499999849916131  0.2500000940654651  0.2499999771802787  1.0000
  In  In2       1.0  0.750000032022552  0.750000094411303  0.7499996442730247  1.0000
  Pd  Pd1       1.0  1.7142539840457828e-07  0.9999999789220719  5.78130432593384e-08  1.0000
  S   S1        1.0  0.2595022401173543  0.2595021321673921  0.740497862160513  1.0000
  S   S2        1.0  0.7404976439109694  0.7404975772657141  0.25950261446468764  1.0000
  S   S3        1.0  0.7404978601842276  0.2595020452852299  0.25950233531410355  1.0000
  S   S4        1.0  0.25950245209598977  0.7404976909743232  0.7404977275904601  1.0000
  S   S5        1.0  0.2595019469332663  0.7404979749527328  0.2595021609444478  1.0000
  S   S6        1.0  0.7404976500727984  0.2595024492135098  0.7404975761364037  1.0000
