data_image0
_chemical_formula_structural       In2PS6
_chemical_formula_sum              "In2 P1 S6"
_cell_length_a       6.625712154490182
_cell_length_b       6.625712072414157
_cell_length_c       6.62571182021813
_cell_angle_alpha    59.999995717772656
_cell_angle_beta     59.99999956436377
_cell_angle_gamma    59.999995202706216

_space_group_name_H-M_alt    "P 1"
_space_group_IT_number       1

loop_
  _space_group_symop_operation_xyz
  'x, y, z'

loop_
  _atom_site_type_symbol
  _atom_site_label
  _atom_site_symmetry_multiplicity
  _atom_site_fract_x
  _atom_site_fract_y
  _atom_site_fract_z
  _atom_site_occupancy
  In  In1       1.0  0.2499998611224788  0.2500001683868823  0.24999997832927953  1.0000
  In  In2       1.0  0.7500000727411784  0.7499998526496964  0.7499998686478261  1.0000
  P   P1        1.0  9.752806779903491e-09  0.9999999759698489  5.543537056018598e-08  1.0000
  S   S1        1.0  0.2325661557638466  0.23256607301408297  0.7674338993064692  1.0000
  S   S2        1.0  0.7674338967129949  0.7674339424770602  0.23256613412951999  1.0000
  S   S3        1.0  0.767433863978359  0.23256612132438667  0.23256619137486034  1.0000
  S   S4        1.0  0.2325661870728742  0.7674338775304995  0.7674338646755086  1.0000
  S   S5        1.0  0.23256609220218366  0.7674338458767299  0.23256623127970405  1.0000
  S   S6        1.0  0.7674339008639095  0.23256608643313248  0.7674338840172068  1.0000
