data_image0
_chemical_formula_structural       In2PtS6
_chemical_formula_sum              "In2 Pt1 S6"
_cell_length_a       6.292235026407894
_cell_length_b       6.292234583725735
_cell_length_c       6.292234518632733
_cell_angle_alpha    60.00000155713656
_cell_angle_beta     60.00000265057324
_cell_angle_gamma    59.999999300615904

_space_group_name_H-M_alt    "P 1"
_space_group_IT_number       1

loop_
  _space_group_symop_operation_xyz
  'x, y, z'

loop_
  _atom_site_type_symbol
  _atom_site_label
  _atom_site_symmetry_multiplicity
  _atom_site_fract_x
  _atom_site_fract_y
  _atom_site_fract_z
  _atom_site_occupancy
  In  In1       1.0  0.2500000973102562  0.2500000204635166  0.24999987832178733  1.0000
  In  In2       1.0  0.7499999996665272  0.7499999582293037  0.7499998724096183  1.0000
  Pt  Pt1       1.0  0.9999999858374349  3.698233503727004e-08  9.250502331706307e-09  1.0000
  S   S1        1.0  0.257429772199131  0.2574299768858226  0.7425700866809103  1.0000
  S   S2        1.0  0.7425701352577343  0.7425701244326378  0.25742988344111795  1.0000
  S   S3        1.0  0.7425702007856417  0.2574297688862956  0.25742986462239786  1.0000
  S   S4        1.0  0.25742984356746185  0.7425701144310347  0.7425702588895724  1.0000
  S   S5        1.0  0.25742986819683056  0.7425701894650748  0.25742987441832055  1.0000
  S   S6        1.0  0.7425700813946716  0.2574298515137891  0.7425702971067117  1.0000
