data_image0
_chemical_formula_structural       In2PtSe6
_chemical_formula_sum              "In2 Pt1 Se6"
_cell_length_a       6.674612205301397
_cell_length_b       6.674612130319395
_cell_length_c       6.674612084138607
_cell_angle_alpha    60.00000060518617
_cell_angle_beta     60.00000031454931
_cell_angle_gamma    59.99999862546608

_space_group_name_H-M_alt    "P 1"
_space_group_IT_number       1

loop_
  _space_group_symop_operation_xyz
  'x, y, z'

loop_
  _atom_site_type_symbol
  _atom_site_label
  _atom_site_symmetry_multiplicity
  _atom_site_fract_x
  _atom_site_fract_y
  _atom_site_fract_z
  _atom_site_occupancy
  In  In1       1.0  0.2500000554157146  0.24999994603887576  0.2500000156137838  1.0000
  In  In2       1.0  0.7500000419996706  0.7500000032603654  0.749999987439645  1.0000
  Pt  Pt1       1.0  0.9999999371925963  2.0918206767472154e-07  5.416089353204642e-08  1.0000
  Se  Se1       1.0  0.2589378144169443  0.25893780280015893  0.7410621774643178  1.0000
  Se  Se2       1.0  0.741062176647588  0.7410621593435968  0.25893780941727546  1.0000
  Se  Se3       1.0  0.7410622073873496  0.25893773435625145  0.2589377651899193  1.0000
  Se  Se4       1.0  0.2589378046649396  0.7410621855841041  0.7410621603852039  1.0000
  Se  Se5       1.0  0.25893776670379826  0.7410622050256167  0.2589378095421797  1.0000
  Se  Se6       1.0  0.7410621955625654  0.2589377552832091  0.7410622271148943  1.0000
