data_image0
_chemical_formula_structural       In2PtS6
_chemical_formula_sum              "In2 Pt1 S6"
_cell_length_a       6.291785665541287
_cell_length_b       6.291785008325345
_cell_length_c       6.2917860015944855
_cell_angle_alpha    59.99999750598788
_cell_angle_beta     59.9999962837186
_cell_angle_gamma    59.99999566148675

_space_group_name_H-M_alt    "P 1"
_space_group_IT_number       1

loop_
  _space_group_symop_operation_xyz
  'x, y, z'

loop_
  _atom_site_type_symbol
  _atom_site_label
  _atom_site_symmetry_multiplicity
  _atom_site_fract_x
  _atom_site_fract_y
  _atom_site_fract_z
  _atom_site_occupancy
  In  In1       1.0  0.2500002170642514  0.2500002299682664  0.24999976670278704  1.0000
  In  In2       1.0  0.7499999280056788  0.7499999248997207  0.750000098243143  1.0000
  Pt  Pt1       1.0  0.999999976049513  0.9999999727479099  4.939428618872129e-09  1.0000
  S   S1        1.0  0.25747305683131066  0.25747292579892167  0.7425270147149349  1.0000
  S   S2        1.0  0.742526963463941  0.742527003266037  0.25747299214299535  1.0000
  S   S3        1.0  0.7425269740687263  0.2574730253196692  0.25747307287434457  1.0000
  S   S4        1.0  0.25747297205629965  0.7425269115316018  0.7425269767117868  1.0000
  S   S5        1.0  0.2574729987686247  0.742526926048729  0.2574731066453166  1.0000
  S   S6        1.0  0.7425269292996675  0.2574730594669882  0.7425269387625767  1.0000
