data_image0
_chemical_formula_structural       In2PbTe6
_chemical_formula_sum              "In2 Pb1 Te6"
_cell_length_a       7.743581792130348
_cell_length_b       7.743581840185303
_cell_length_c       7.743581756595966
_cell_angle_alpha    59.9999987212187
_cell_angle_beta     59.99999960536807
_cell_angle_gamma    59.999999670189105

_space_group_name_H-M_alt    "P 1"
_space_group_IT_number       1

loop_
  _space_group_symop_operation_xyz
  'x, y, z'

loop_
  _atom_site_type_symbol
  _atom_site_label
  _atom_site_symmetry_multiplicity
  _atom_site_fract_x
  _atom_site_fract_y
  _atom_site_fract_z
  _atom_site_occupancy
  In  In1       1.0  0.2500000012790382  0.2499999822701436  0.25000001852734216  1.0000
  In  In2       1.0  0.7500000086103688  0.7500000353814766  0.7499999779164662  1.0000
  Pb  Pb1       1.0  0.9999999452634231  3.163253016072776e-09  0.9999999302236497  1.0000
  Te  Te1       1.0  0.28726356435226885  0.287263617450796  0.7127363544360169  1.0000
  Te  Te2       1.0  0.7127364218593099  0.7127363907110703  0.2872635978961558  1.0000
  Te  Te3       1.0  0.7127363507926117  0.2872636017108512  0.28726362105117503  1.0000
  Te  Te4       1.0  0.28726357546971976  0.7127364744609235  0.7127363866547014  1.0000
  Te  Te5       1.0  0.2872636323982339  0.712736337544663  0.2872636708151924  1.0000
  Te  Te6       1.0  0.7127364961543411  0.287263556740143  0.7127364351659811  1.0000
