data_image0
_chemical_formula_structural       In2PdO6
_chemical_formula_sum              "In2 Pd1 O6"
_cell_length_a       5.320493801216582
_cell_length_b       5.3204936885735306
_cell_length_c       5.320494064807259
_cell_angle_alpha    59.999998648289115
_cell_angle_beta     59.999998342569604
_cell_angle_gamma    59.999999143711804

_space_group_name_H-M_alt    "P 1"
_space_group_IT_number       1

loop_
  _space_group_symop_operation_xyz
  'x, y, z'

loop_
  _atom_site_type_symbol
  _atom_site_label
  _atom_site_symmetry_multiplicity
  _atom_site_fract_x
  _atom_site_fract_y
  _atom_site_fract_z
  _atom_site_occupancy
  In  In1       1.0  0.2500001516326524  0.2500003174338327  0.24999971797799006  1.0000
  In  In2       1.0  0.7499999726131915  0.7499995734403782  0.7500002724593725  1.0000
  Pd  Pd1       1.0  1.696735647619146e-08  2.0717445573822525e-08  0.9999999473261546  1.0000
  O   O1        1.0  0.2553853952061291  0.25538535355162756  0.7446146190695617  1.0000
  O   O2        1.0  0.7446146725670431  0.7446146155884901  0.25538539242310376  1.0000
  O   O3        1.0  0.7446144881197094  0.2553855650478776  0.255385208439465  1.0000
  O   O4        1.0  0.25538540714748514  0.7446144593387605  0.7446147771043182  1.0000
  O   O5        1.0  0.25538535356624154  0.7446146333789598  0.2553853260900038  1.0000
  O   O6        1.0  0.744614558382421  0.25538546466970924  0.7446147157763638  1.0000
