data_image0
_chemical_formula_structural       In2PdSe6
_chemical_formula_sum              "In2 Pd1 Se6"
_cell_length_a       6.773994487060464
_cell_length_b       6.773994573661162
_cell_length_c       6.773994699647957
_cell_angle_alpha    59.99999940809012
_cell_angle_beta     60.000001695136866
_cell_angle_gamma    60.000000291583504

_space_group_name_H-M_alt    "P 1"
_space_group_IT_number       1

loop_
  _space_group_symop_operation_xyz
  'x, y, z'

loop_
  _atom_site_type_symbol
  _atom_site_label
  _atom_site_symmetry_multiplicity
  _atom_site_fract_x
  _atom_site_fract_y
  _atom_site_fract_z
  _atom_site_occupancy
  In  In1       1.0  0.24999998574909105  0.249999985719047  0.2500000268813351  1.0000
  In  In2       1.0  0.7500000173545955  0.750000052981663  0.7499999214852248  1.0000
  Pd  Pd1       1.0  1.7923474031613043e-08  4.3392235789850356e-08  0.9999999914856527  1.0000
  Se  Se1       1.0  0.261616934798997  0.26161687237521614  0.7383831092962985  1.0000
  Se  Se2       1.0  0.738383022230097  0.7383830795410212  0.26161696897784703  1.0000
  Se  Se3       1.0  0.7383830677436763  0.26161689697609825  0.2616169309071599  1.0000
  Se  Se4       1.0  0.26161694200712066  0.7383830911003365  0.7383830379717488  1.0000
  Se  Se5       1.0  0.2616168780319406  0.7383831157865816  0.26161689921224646  1.0000
  Se  Se6       1.0  0.7383831266050338  0.2616168722898527  0.7383831224155231  1.0000
