data_image0
_chemical_formula_structural       In2PdSe6
_chemical_formula_sum              "In2 Pd1 Se6"
_cell_length_a       6.770594184143028
_cell_length_b       6.770594192058084
_cell_length_c       6.770594269690723
_cell_angle_alpha    59.999999130221504
_cell_angle_beta     59.999999749994366
_cell_angle_gamma    60.000000430798586

_space_group_name_H-M_alt    "P 1"
_space_group_IT_number       1

loop_
  _space_group_symop_operation_xyz
  'x, y, z'

loop_
  _atom_site_type_symbol
  _atom_site_label
  _atom_site_symmetry_multiplicity
  _atom_site_fract_x
  _atom_site_fract_y
  _atom_site_fract_z
  _atom_site_occupancy
  In  In1       1.0  0.25000000408457357  0.250000005965015  0.2499999906962486  1.0000
  In  In2       1.0  0.749999982572154  0.7499999943791126  0.7499999986874952  1.0000
  Pd  Pd1       1.0  3.462655077690532e-08  0.9999999728662322  2.2839162712260723e-08  1.0000
  Se  Se1       1.0  0.2616880808419689  0.2616880670920449  0.7383119269178001  1.0000
  Se  Se2       1.0  0.738311916650516  0.7383119314431646  0.2616880801071524  1.0000
  Se  Se3       1.0  0.7383118900381729  0.2616880986912978  0.26168812256525437  1.0000
  Se  Se4       1.0  0.2616881252153796  0.7383118926082405  0.7383118836279257  1.0000
  Se  Se5       1.0  0.2616880772557429  0.7383119317392371  0.26168807165937313  1.0000
  Se  Se6       1.0  0.7383118898132498  0.26168811201891906  0.7383118984263474  1.0000
