data_image0
_chemical_formula_structural       In2PbSe6
_chemical_formula_sum              "In2 Pb1 Se6"
_cell_length_a       7.019152512816623
_cell_length_b       7.019152187790755
_cell_length_c       7.019152417150251
_cell_angle_alpha    59.99999644320697
_cell_angle_beta     59.99999832367296
_cell_angle_gamma    59.999986182708405

_space_group_name_H-M_alt    "P 1"
_space_group_IT_number       1

loop_
  _space_group_symop_operation_xyz
  'x, y, z'

loop_
  _atom_site_type_symbol
  _atom_site_label
  _atom_site_symmetry_multiplicity
  _atom_site_fract_x
  _atom_site_fract_y
  _atom_site_fract_z
  _atom_site_occupancy
  In  In1       1.0  0.24999980900703286  0.24999991380688413  0.2500001557432771  1.0000
  In  In2       1.0  0.7500000039391919  0.7499999403348137  0.7500000565189159  1.0000
  Pb  Pb1       1.0  5.89231917162131e-08  1.570374742647318e-08  0.9999999854813042  1.0000
  Se  Se1       1.0  0.3044505009303429  0.30445071575374716  0.6955493515547161  1.0000
  Se  Se2       1.0  0.6955497924504657  0.6955496810398785  0.30445027650585815  1.0000
  Se  Se3       1.0  0.6955493567975133  0.30445066046000624  0.3044503375029159  1.0000
  Se  Se4       1.0  0.3044506783673777  0.6955491291217866  0.6955495337899817  1.0000
  Se  Se5       1.0  0.3044506186188319  0.6955491509140084  0.30445071392649775  1.0000
  Se  Se6       1.0  0.6955491838239654  0.30445079396049607  0.6955495907156338  1.0000
