data_image0
_chemical_formula_structural       In2ReSe6
_chemical_formula_sum              "In2 Re1 Se6"
_cell_length_a       6.749831984810561
_cell_length_b       6.749831909499538
_cell_length_c       6.749831476447296
_cell_angle_alpha    60.00000229158562
_cell_angle_beta     60.00000233849059
_cell_angle_gamma    59.999996619084186

_space_group_name_H-M_alt    "P 1"
_space_group_IT_number       1

loop_
  _space_group_symop_operation_xyz
  'x, y, z'

loop_
  _atom_site_type_symbol
  _atom_site_label
  _atom_site_symmetry_multiplicity
  _atom_site_fract_x
  _atom_site_fract_y
  _atom_site_fract_z
  _atom_site_occupancy
  In  In1       1.0  0.2500000082555799  0.250000017928779  0.24999996349761386  1.0000
  In  In2       1.0  0.7499999616602065  0.7500000737456427  0.7499999816978236  1.0000
  Re  Re1       1.0  9.809749337753713e-08  2.9031706996010303e-08  0.9999998831007348  1.0000
  Se  Se1       1.0  0.2567493260173033  0.25674931312631155  0.7432506795047675  1.0000
  Se  Se2       1.0  0.7432506575872284  0.7432505989143892  0.2567493975532669  1.0000
  Se  Se3       1.0  0.7432507718148789  0.2567491485213685  0.2567492333847888  1.0000
  Se  Se4       1.0  0.2567491757253575  0.7432508306551692  0.7432508355450673  1.0000
  Se  Se5       1.0  0.2567491879386708  0.7432508475853288  0.25674917697548744  1.0000
  Se  Se6       1.0  0.7432508191650998  0.25674914792154374  0.7432508406737677  1.0000
