data_image0
_chemical_formula_structural       In2ReO6
_chemical_formula_sum              "In2 Re1 O6"
_cell_length_a       5.550807083855815
_cell_length_b       5.550807484621787
_cell_length_c       5.550807262627736
_cell_angle_alpha    60.000000051824955
_cell_angle_beta     59.999997157617386
_cell_angle_gamma    60.00000018461224

_space_group_name_H-M_alt    "P 1"
_space_group_IT_number       1

loop_
  _space_group_symop_operation_xyz
  'x, y, z'

loop_
  _atom_site_type_symbol
  _atom_site_label
  _atom_site_symmetry_multiplicity
  _atom_site_fract_x
  _atom_site_fract_y
  _atom_site_fract_z
  _atom_site_occupancy
  In  In1       1.0  0.25000018867245793  0.24999982341052576  0.25000002939815014  1.0000
  In  In2       1.0  0.7499999728028526  0.7500000703795812  0.750000124361586  1.0000
  Re  Re1       1.0  1.0846810331860056e-07  0.9999999117429397  7.8169926252433e-08  1.0000
  O   O1        1.0  0.24200212410447067  0.24200207084453468  0.757997874858792  1.0000
  O   O2        1.0  0.7579978756348876  0.7579979773954283  0.2420020411376647  1.0000
  O   O3        1.0  0.7579978063896983  0.24200213132391096  0.24200198612373974  1.0000
  O   O4        1.0  0.24200201600294288  0.757997980902422  0.7579978406281715  1.0000
  O   O5        1.0  0.24200221607971217  0.7579979076481226  0.24200193832626854  1.0000
  O   O6        1.0  0.7579977811179556  0.24200209205045795  0.757998012219424  1.0000
