data_image0
_chemical_formula_structural       In2RuSe6
_chemical_formula_sum              "In2 Ru1 Se6"
_cell_length_a       6.679537880712945
_cell_length_b       6.679537135335524
_cell_length_c       6.679537338969276
_cell_angle_alpha    59.9999992349832
_cell_angle_beta     60.00000116966707
_cell_angle_gamma    59.99999832713995

_space_group_name_H-M_alt    "P 1"
_space_group_IT_number       1

loop_
  _space_group_symop_operation_xyz
  'x, y, z'

loop_
  _atom_site_type_symbol
  _atom_site_label
  _atom_site_symmetry_multiplicity
  _atom_site_fract_x
  _atom_site_fract_y
  _atom_site_fract_z
  _atom_site_occupancy
  In  In1       1.0  0.25000001057698745  0.25000000025477626  0.24999998627369727  1.0000
  In  In2       1.0  0.7499999682749025  0.7500000044314835  0.7500000096750805  1.0000
  Ru  Ru1       1.0  0.9999997209698277  5.207360084462584e-07  0.9999998776499763  1.0000
  Se  Se1       1.0  0.2591293714733481  0.25912928238270466  0.7408706138493686  1.0000
  Se  Se2       1.0  0.7408706929274985  0.7408704967735226  0.25912938621711995  1.0000
  Se  Se3       1.0  0.7408707067525261  0.2591293336489681  0.2591293894076875  1.0000
  Se  Se4       1.0  0.25912946886116844  0.740870506015318  0.7408706550468883  1.0000
  Se  Se5       1.0  0.25912937899585536  0.740870564272676  0.2591294593410678  1.0000
  Se  Se6       1.0  0.7408706869928513  0.25912928272591973  0.7408706317675194  1.0000
