data_image0
_chemical_formula_structural       In2RuO6
_chemical_formula_sum              "In2 Ru1 O6"
_cell_length_a       5.529039947649243
_cell_length_b       5.529039901011751
_cell_length_c       5.529039561453934
_cell_angle_alpha    59.99999838285204
_cell_angle_beta     60.00000066024324
_cell_angle_gamma    59.999998304279835

_space_group_name_H-M_alt    "P 1"
_space_group_IT_number       1

loop_
  _space_group_symop_operation_xyz
  'x, y, z'

loop_
  _atom_site_type_symbol
  _atom_site_label
  _atom_site_symmetry_multiplicity
  _atom_site_fract_x
  _atom_site_fract_y
  _atom_site_fract_z
  _atom_site_occupancy
  In  In1       1.0  0.250000080544277  0.2499999451688885  0.2500000710489902  1.0000
  In  In2       1.0  0.7500000373251422  0.7499998532275739  0.75000027388498  1.0000
  Ru  Ru1       1.0  0.9999999600882234  0.9999999756337571  0.9999999941577309  1.0000
  O   O1        1.0  0.23952635520883359  0.23952641419773069  0.760473578311879  1.0000
  O   O2        1.0  0.7604735696346273  0.7604736500123258  0.2395263359464088  1.0000
  O   O3        1.0  0.7604736415591709  0.23952651796223134  0.2395262132947034  1.0000
  O   O4        1.0  0.23952634475351522  0.7604736813697272  0.7604735918162223  1.0000
  O   O5        1.0  0.23952650289604596  0.7604736088490308  0.23952618590801905  1.0000
  O   O6        1.0  0.7604734950858901  0.23952638004717802  0.7604737222034267  1.0000
