data_image0
_chemical_formula_structural       In2RhS6
_chemical_formula_sum              "In2 Rh1 S6"
_cell_length_a       6.225038262652266
_cell_length_b       6.225038349712289
_cell_length_c       6.225038446941412
_cell_angle_alpha    59.99999866583973
_cell_angle_beta     59.99999877421617
_cell_angle_gamma    60.00000103808713

_space_group_name_H-M_alt    "P 1"
_space_group_IT_number       1

loop_
  _space_group_symop_operation_xyz
  'x, y, z'

loop_
  _atom_site_type_symbol
  _atom_site_label
  _atom_site_symmetry_multiplicity
  _atom_site_fract_x
  _atom_site_fract_y
  _atom_site_fract_z
  _atom_site_occupancy
  In  In1       1.0  0.25000015392982555  0.24999991103096078  0.2499999392491919  1.0000
  In  In2       1.0  0.7500000066533857  0.7499999632844675  0.7500000796164956  1.0000
  Rh  Rh1       1.0  4.1371044070231645e-08  0.9999999704882576  1.816658597765798e-08  1.0000
  S   S1        1.0  0.2603388048258534  0.26033880319106445  0.7396610755147532  1.0000
  S   S2        1.0  0.7396610575445273  0.739661080961608  0.26033882087370824  1.0000
  S   S3        1.0  0.7396612323129189  0.2603387611862869  0.26033879661741743  1.0000
  S   S4        1.0  0.2603387873855785  0.7396613354509356  0.7396611847425604  1.0000
  S   S5        1.0  0.26033882173881107  0.7396613138696566  0.2603388311241662  1.0000
  S   S6        1.0  0.7396610911967337  0.2603388693353423  0.7396612792081672  1.0000
