data_image0
_chemical_formula_structural       In2ReTe6
_chemical_formula_sum              "In2 Re1 Te6"
_cell_length_a       7.329200792264059
_cell_length_b       7.3292006687838045
_cell_length_c       7.3292003811918685
_cell_angle_alpha    59.999999356918565
_cell_angle_beta     60.00000017802528
_cell_angle_gamma    59.99999739717376

_space_group_name_H-M_alt    "P 1"
_space_group_IT_number       1

loop_
  _space_group_symop_operation_xyz
  'x, y, z'

loop_
  _atom_site_type_symbol
  _atom_site_label
  _atom_site_symmetry_multiplicity
  _atom_site_fract_x
  _atom_site_fract_y
  _atom_site_fract_z
  _atom_site_occupancy
  In  In1       1.0  0.25000000868347594  0.2499999904397371  0.24999997578327274  1.0000
  In  In2       1.0  0.7499999861691972  0.7500000247927597  0.7499999751298719  1.0000
  Re  Re1       1.0  2.2867639506775515e-08  4.010515993688555e-08  1.490338031964499e-08  1.0000
  Te  Te1       1.0  0.2564976501298744  0.2564975549760863  0.7435024557616297  1.0000
  Te  Te2       1.0  0.7435023724780363  0.7435023817171341  0.25649764743323006  1.0000
  Te  Te3       1.0  0.7435023962443839  0.25649757430782094  0.25649758130338907  1.0000
  Te  Te4       1.0  0.2564975958232084  0.743502449279918  0.7435023586382428  1.0000
  Te  Te5       1.0  0.25649755641209476  0.7435023984229786  0.25649758273345  1.0000
  Te  Te6       1.0  0.74350241232641  0.2564975817175023  0.7435024233420832  1.0000
