data_image0
_chemical_formula_structural       In2ReS6
_chemical_formula_sum              "In2 Re1 S6"
_cell_length_a       6.380237056229265
_cell_length_b       6.3802378938518505
_cell_length_c       6.380236505767852
_cell_angle_alpha    59.999995878510205
_cell_angle_beta     59.99999936265578
_cell_angle_gamma    59.99999426949112

_space_group_name_H-M_alt    "P 1"
_space_group_IT_number       1

loop_
  _space_group_symop_operation_xyz
  'x, y, z'

loop_
  _atom_site_type_symbol
  _atom_site_label
  _atom_site_symmetry_multiplicity
  _atom_site_fract_x
  _atom_site_fract_y
  _atom_site_fract_z
  _atom_site_occupancy
  In  In1       1.0  0.2500001106562878  0.25000013162347445  0.2499998551291505  1.0000
  In  In2       1.0  0.7500000180567524  0.7499999629623803  0.7500000636847752  1.0000
  Re  Re1       1.0  2.186515608482534e-08  0.9999999289751196  2.3012527652967198e-08  1.0000
  S   S1        1.0  0.2572217965134952  0.25722187755397385  0.7427781442443663  1.0000
  S   S2        1.0  0.7427781217693801  0.7427781479266143  0.25722184850900587  1.0000
  S   S3        1.0  0.7427780928543681  0.2572219603153868  0.25722188520602385  1.0000
  S   S4        1.0  0.2572219108376825  0.7427780152558168  0.7427781289809553  1.0000
  S   S5        1.0  0.257221795672073  0.7427781133813024  0.25722189249357386  1.0000
  S   S6        1.0  0.7427781321178142  0.25722185643113177  0.7427781640912143  1.0000
