data_image0
_chemical_formula_structural       In2RhSe6
_chemical_formula_sum              "In2 Rh1 Se6"
_cell_length_a       6.644874859296094
_cell_length_b       6.644874858496262
_cell_length_c       6.644874860992833
_cell_angle_alpha    59.999998965363396
_cell_angle_beta     59.99999897863537
_cell_angle_gamma    60.000000845770984

_space_group_name_H-M_alt    "P 1"
_space_group_IT_number       1

loop_
  _space_group_symop_operation_xyz
  'x, y, z'

loop_
  _atom_site_type_symbol
  _atom_site_label
  _atom_site_symmetry_multiplicity
  _atom_site_fract_x
  _atom_site_fract_y
  _atom_site_fract_z
  _atom_site_occupancy
  In  In1       1.0  0.2499999876614418  0.2499999683360262  0.2500000391503137  1.0000
  In  In2       1.0  0.7500000801832545  0.7499999861063351  0.7499999039284848  1.0000
  Rh  Rh1       1.0  1.0752850380857365e-07  1.1058854625006985e-08  0.9999999407063199  1.0000
  Se  Se1       1.0  0.25968221123430674  0.259682366211017  0.7403177206781647  1.0000
  Se  Se2       1.0  0.7403176968414423  0.7403177651729849  0.2596823191586337  1.0000
  Se  Se3       1.0  0.7403176045917442  0.25968235616670443  0.2596823393954576  1.0000
  Se  Se4       1.0  0.25968233237798266  0.7403176572562027  0.7403176336108767  1.0000
  Se  Se5       1.0  0.2596823559295211  0.7403175596133266  0.2596824131367662  1.0000
  Se  Se6       1.0  0.7403176202551578  0.2596823413779109  0.7403176641992929  1.0000
