data_image0
_chemical_formula_structural       In2SeO6
_chemical_formula_sum              "In2 Se1 O6"
_cell_length_a       5.229208713476924
_cell_length_b       5.229209075352505
_cell_length_c       5.229208575922094
_cell_angle_alpha    59.99999501890855
_cell_angle_beta     59.99999626403392
_cell_angle_gamma    59.9999985276686

_space_group_name_H-M_alt    "P 1"
_space_group_IT_number       1

loop_
  _space_group_symop_operation_xyz
  'x, y, z'

loop_
  _atom_site_type_symbol
  _atom_site_label
  _atom_site_symmetry_multiplicity
  _atom_site_fract_x
  _atom_site_fract_y
  _atom_site_fract_z
  _atom_site_occupancy
  In  In1       1.0  0.24999954454191403  0.24999998066026066  0.2500000454202491  1.0000
  In  In2       1.0  0.7499995784565517  0.7499999560334615  0.7500004829478062  1.0000
  Se  Se1       1.0  0.9999999478954837  3.044759122243548e-08  5.6724508989404523e-08  1.0000
  O   O1        1.0  0.2415308349541167  0.24153049729277484  0.7584694758500039  1.0000
  O   O2        1.0  0.7584694527779829  0.7584694628221909  0.24153032075243122  1.0000
  O   O3        1.0  0.7584696023900511  0.24153062260778801  0.2415305432269536  1.0000
  O   O4        1.0  0.24153082177808177  0.7584694780345237  0.7584693309876642  1.0000
  O   O5        1.0  0.24153065891722297  0.7584693363978579  0.24153059836449034  1.0000
  O   O6        1.0  0.7584695937519785  0.2415306096643686  0.7584692629548062  1.0000
