data_image0
_chemical_formula_structural       In2SnTe6
_chemical_formula_sum              "In2 Sn1 Te6"
_cell_length_a       7.558695418364018
_cell_length_b       7.558695525920749
_cell_length_c       7.558695382941464
_cell_angle_alpha    59.99999913829851
_cell_angle_beta     59.99999987576138
_cell_angle_gamma    59.99999984897446

_space_group_name_H-M_alt    "P 1"
_space_group_IT_number       1

loop_
  _space_group_symop_operation_xyz
  'x, y, z'

loop_
  _atom_site_type_symbol
  _atom_site_label
  _atom_site_symmetry_multiplicity
  _atom_site_fract_x
  _atom_site_fract_y
  _atom_site_fract_z
  _atom_site_occupancy
  In  In1       1.0  0.24999999964439512  0.24999999526423156  0.2500000122429619  1.0000
  In  In2       1.0  0.7500000057533056  0.7500000019958204  0.7499999868508533  1.0000
  Sn  Sn1       1.0  0.9999999954938323  2.268437446714106e-08  2.001644814858711e-08  1.0000
  Te  Te1       1.0  0.27446954841937693  0.2744695318790485  0.7255304624118777  1.0000
  Te  Te2       1.0  0.7255304614844916  0.7255304426966285  0.2744695484170008  1.0000
  Te  Te3       1.0  0.7255304629599292  0.2744695292959535  0.27446953975461685  1.0000
  Te  Te4       1.0  0.27446954046268934  0.7255304647234737  0.7255304434253372  1.0000
  Te  Te5       1.0  0.2744695203908823  0.7255304783344881  0.27446954166220244  1.0000
  Te  Te6       1.0  0.7255304669371776  0.27446953188806383  0.7255304480783664  1.0000
