data_image0
_chemical_formula_structural       In2SiS6
_chemical_formula_sum              "In2 Si1 S6"
_cell_length_a       6.503758793270779
_cell_length_b       6.5037588391892145
_cell_length_c       6.503759183132937
_cell_angle_alpha    59.999996728846575
_cell_angle_beta     59.99999895322964
_cell_angle_gamma    59.9999996821909

_space_group_name_H-M_alt    "P 1"
_space_group_IT_number       1

loop_
  _space_group_symop_operation_xyz
  'x, y, z'

loop_
  _atom_site_type_symbol
  _atom_site_label
  _atom_site_symmetry_multiplicity
  _atom_site_fract_x
  _atom_site_fract_y
  _atom_site_fract_z
  _atom_site_occupancy
  In  In1       1.0  0.25000006116865064  0.2500000246816359  0.24999995572757513  1.0000
  In  In2       1.0  0.7499999470683901  0.7500000589798311  0.7500000513617906  1.0000
  Si  Si1       1.0  0.9999998983693723  2.25976069748551e-08  0.9999999841639063  1.0000
  S   S1        1.0  0.24647847472676063  0.24647832965156471  0.753521502446376  1.0000
  S   S2        1.0  0.7535215127620171  0.75352169374962  0.24647833142471243  1.0000
  S   S3        1.0  0.753521699738205  0.24647834847740868  0.24647842159290512  1.0000
  S   S4        1.0  0.24647846734357773  0.753521381154879  0.7535216369615152  1.0000
  S   S5        1.0  0.24647833951403122  0.7535216703994672  0.2464784390130676  1.0000
  S   S6        1.0  0.7535215154600959  0.2464785055355586  0.753521713888896  1.0000
