data_image0
_chemical_formula_structural       In2SiO6
_chemical_formula_sum              "In2 Si1 O6"
_cell_length_a       5.059160132903568
_cell_length_b       5.05916028445773
_cell_length_c       5.059160118841744
_cell_angle_alpha    60.00000565206774
_cell_angle_beta     60.00000579841079
_cell_angle_gamma    60.00000705234119

_space_group_name_H-M_alt    "P 1"
_space_group_IT_number       1

loop_
  _space_group_symop_operation_xyz
  'x, y, z'

loop_
  _atom_site_type_symbol
  _atom_site_label
  _atom_site_symmetry_multiplicity
  _atom_site_fract_x
  _atom_site_fract_y
  _atom_site_fract_z
  _atom_site_occupancy
  In  In1       1.0  0.24999983928654765  0.249999385800207  0.25000042082188845  1.0000
  In  In2       1.0  0.7500000984378489  0.7499997091629056  0.7499999373592388  1.0000
  Si  Si1       1.0  0.999999985498679  2.420846064988383e-09  2.3829751001733584e-08  1.0000
  O   O1        1.0  0.2454490291116621  0.24544918350928485  0.7545509900674834  1.0000
  O   O2        1.0  0.754550800235975  0.754551126718512  0.24544898070518323  1.0000
  O   O3        1.0  0.7545508897598774  0.24544922323856155  0.2454489783051546  1.0000
  O   O4        1.0  0.245449177463188  0.7545511402478516  0.7545507539997063  1.0000
  O   O5        1.0  0.24544896980618688  0.7545510933846765  0.24544914707911622  1.0000
  O   O6        1.0  0.7545510861433566  0.24544926283920196  0.7545507111139199  1.0000
