data_image0
_chemical_formula_structural       In2SnSe6
_chemical_formula_sum              "In2 Sn1 Se6"
_cell_length_a       6.9984288537338335
_cell_length_b       6.998428984276231
_cell_length_c       6.998428958858221
_cell_angle_alpha    60.00000082146931
_cell_angle_beta     60.00000062136154
_cell_angle_gamma    60.000000723581984

_space_group_name_H-M_alt    "P 1"
_space_group_IT_number       1

loop_
  _space_group_symop_operation_xyz
  'x, y, z'

loop_
  _atom_site_type_symbol
  _atom_site_label
  _atom_site_symmetry_multiplicity
  _atom_site_fract_x
  _atom_site_fract_y
  _atom_site_fract_z
  _atom_site_occupancy
  In  In1       1.0  0.25000007708253047  0.24999995619206383  0.24999996116209128  1.0000
  In  In2       1.0  0.7500000140870926  0.7499999508275208  0.7499999909498366  1.0000
  Sn  Sn1       1.0  0.99999996965195  0.999999947499152  6.571561452873941e-08  1.0000
  Se  Se1       1.0  0.269705508047307  0.269705659636697  0.7302944014544014  1.0000
  Se  Se2       1.0  0.7302944303066304  0.7302945028870155  0.26970550931555026  1.0000
  Se  Se3       1.0  0.730294405432131  0.2697055445089329  0.2697056053625497  1.0000
  Se  Se4       1.0  0.26970558465631234  0.7302944430119523  0.7302943941905125  1.0000
  Se  Se5       1.0  0.269705609637006  0.7302944465464439  0.2697055650789801  1.0000
  Se  Se6       1.0  0.7302943956840923  0.269705549724583  0.730294508216211  1.0000
