data_image0
_chemical_formula_structural       In2SiTe6
_chemical_formula_sum              "In2 Si1 Te6"
_cell_length_a       7.336524238422848
_cell_length_b       7.336523855566813
_cell_length_c       7.336524015565658
_cell_angle_alpha    60.000000165346655
_cell_angle_beta     59.999999876218624
_cell_angle_gamma    59.99999765565377

_space_group_name_H-M_alt    "P 1"
_space_group_IT_number       1

loop_
  _space_group_symop_operation_xyz
  'x, y, z'

loop_
  _atom_site_type_symbol
  _atom_site_label
  _atom_site_symmetry_multiplicity
  _atom_site_fract_x
  _atom_site_fract_y
  _atom_site_fract_z
  _atom_site_occupancy
  In  In1       1.0  0.2500000034382537  0.24999998015992486  0.2500000843765878  1.0000
  In  In2       1.0  0.7500000266402408  0.7500000473201132  0.7499999039447156  1.0000
  Si  Si1       1.0  0.9999999900328647  0.9999999449104462  0.9999998907718397  1.0000
  Te  Te1       1.0  0.2567062690353083  0.2567062370107655  0.7432937321186903  1.0000
  Te  Te2       1.0  0.743293673602667  0.7432938639220102  0.25670627001172164  1.0000
  Te  Te3       1.0  0.743293724321224  0.25670617660267797  0.2567063281966548  1.0000
  Te  Te4       1.0  0.25670616380285455  0.7432938942812524  0.7432937325716483  1.0000
  Te  Te5       1.0  0.256706250929923  0.7432936919970826  0.25670635413472864  1.0000
  Te  Te6       1.0  0.743293896828885  0.2567061618673967  0.7432937057715812  1.0000
