data_image0
_chemical_formula_structural       In2ScO6
_chemical_formula_sum              "In2 Sc1 O6"
_cell_length_a       5.2222329426604555
_cell_length_b       5.2222331254812095
_cell_length_c       5.2222333594001284
_cell_angle_alpha    59.99999936299423
_cell_angle_beta     59.999998982774144
_cell_angle_gamma    59.999997293982226

_space_group_name_H-M_alt    "P 1"
_space_group_IT_number       1

loop_
  _space_group_symop_operation_xyz
  'x, y, z'

loop_
  _atom_site_type_symbol
  _atom_site_label
  _atom_site_symmetry_multiplicity
  _atom_site_fract_x
  _atom_site_fract_y
  _atom_site_fract_z
  _atom_site_occupancy
  In  In1       1.0  0.24999946168531986  0.2500001509257161  0.2500004435194295  1.0000
  In  In2       1.0  0.749999962419237  0.7500001385134274  0.7500004117750975  1.0000
  Sc  Sc1       1.0  0.9999999845221305  4.643799834959415e-16  7.937619435753115e-11  1.0000
  O   O1        1.0  0.2663716922639809  0.26637187045864874  0.7336282907416243  1.0000
  O   O2        1.0  0.7336285087348102  0.7336279522754644  0.2663714692475466  1.0000
  O   O3        1.0  0.7336282867163332  0.2663716836349367  0.2663717777132655  1.0000
  O   O4        1.0  0.266371889216465  0.7336285260656369  0.7336279143041563  1.0000
  O   O5        1.0  0.26637185650359607  0.733628050715281  0.2663716514266293  1.0000
  O   O6        1.0  0.7336283997312245  0.26637161957749744  0.7336280633356069  1.0000
