data_image0
_chemical_formula_structural       In2ScSe6
_chemical_formula_sum              "In2 Sc1 Se6"
_cell_length_a       6.976254920426387
_cell_length_b       6.976254896184394
_cell_length_c       6.976254847107512
_cell_angle_alpha    60.00000046713356
_cell_angle_beta     60.0000016282927
_cell_angle_gamma    60.000000056504355

_space_group_name_H-M_alt    "P 1"
_space_group_IT_number       1

loop_
  _space_group_symop_operation_xyz
  'x, y, z'

loop_
  _atom_site_type_symbol
  _atom_site_label
  _atom_site_symmetry_multiplicity
  _atom_site_fract_x
  _atom_site_fract_y
  _atom_site_fract_z
  _atom_site_occupancy
  In  In1       1.0  0.25000000164963604  0.24999990659787616  0.25000004536247206  1.0000
  In  In2       1.0  0.7499998832796261  0.7499999954213799  0.7499999702352805  1.0000
  Sc  Sc1       1.0  7.279376849785639e-08  5.96900854839584e-08  8.856893203332545e-08  1.0000
  Se  Se1       1.0  0.27073097174271743  0.2707309763249683  0.7292690036788398  1.0000
  Se  Se2       1.0  0.7292689956102214  0.7292690011846905  0.27073101753447254  1.0000
  Se  Se3       1.0  0.7292690929942772  0.27073095197018654  0.27073088836096487  1.0000
  Se  Se4       1.0  0.2707310011224453  0.7292690325618346  0.7292690215228256  1.0000
  Se  Se5       1.0  0.27073093737334747  0.7292691266085417  0.27073094116467467  1.0000
  Se  Se6       1.0  0.7292690445233801  0.27073095623656296  0.7292690215424549  1.0000
