data_image0
_chemical_formula_structural       In2SnS6
_chemical_formula_sum              "In2 Sn1 S6"
_cell_length_a       6.769143462724454
_cell_length_b       6.769143658550816
_cell_length_c       6.769143115331735
_cell_angle_alpha    60.00000040866909
_cell_angle_beta     60.00000205981386
_cell_angle_gamma    59.9999996090925

_space_group_name_H-M_alt    "P 1"
_space_group_IT_number       1

loop_
  _space_group_symop_operation_xyz
  'x, y, z'

loop_
  _atom_site_type_symbol
  _atom_site_label
  _atom_site_symmetry_multiplicity
  _atom_site_fract_x
  _atom_site_fract_y
  _atom_site_fract_z
  _atom_site_occupancy
  In  In1       1.0  0.25000003529456927  0.24999992943590094  0.25000000703392977  1.0000
  In  In2       1.0  0.7499999880039264  0.7500000958896351  0.7499999690921721  1.0000
  Sn  Sn1       1.0  3.0326537130047025e-08  0.999999960195278  3.871680586342401e-08  1.0000
  S   S1        1.0  0.26160054511806224  0.2616005022680767  0.7383995427049365  1.0000
  S   S2        1.0  0.7383993668698529  0.7383995755273186  0.26160050863757234  1.0000
  S   S3        1.0  0.7383995699995853  0.26160053176314485  0.2616002854959952  1.0000
  S   S4        1.0  0.2616004061889974  0.7383995785997501  0.7383996376886697  1.0000
  S   S5        1.0  0.2616003790439003  0.7383995371127451  0.261600342309676  1.0000
  S   S6        1.0  0.7383996825959483  0.2616002964264093  0.7383997105389438  1.0000
