data_image0
_chemical_formula_structural       In2ScTe6
_chemical_formula_sum              "In2 Sc1 Te6"
_cell_length_a       7.495763589475619
_cell_length_b       7.495763579509332
_cell_length_c       7.495763689518158
_cell_angle_alpha    60.0000002714669
_cell_angle_beta     60.00000025503316
_cell_angle_gamma    60.00000116380372

_space_group_name_H-M_alt    "P 1"
_space_group_IT_number       1

loop_
  _space_group_symop_operation_xyz
  'x, y, z'

loop_
  _atom_site_type_symbol
  _atom_site_label
  _atom_site_symmetry_multiplicity
  _atom_site_fract_x
  _atom_site_fract_y
  _atom_site_fract_z
  _atom_site_occupancy
  In  In1       1.0  0.2500000281455174  0.25000000365418235  0.24999997954098746  1.0000
  In  In2       1.0  0.7499999723559608  0.7499999913555531  0.7500000258121445  1.0000
  Sc  Sc1       1.0  8.93042574201028e-09  7.025839253076993e-08  1.351709727014822e-07  1.0000
  Te  Te1       1.0  0.27103636518884483  0.27103629731515694  0.7289636771258804  1.0000
  Te  Te2       1.0  0.7289635907484563  0.7289636650162564  0.2710363615121534  1.0000
  Te  Te3       1.0  0.7289636629741737  0.2710363649061928  0.27103630067410933  1.0000
  Te  Te4       1.0  0.2710364140543051  0.728963548407739  0.7289636205477767  1.0000
  Te  Te5       1.0  0.27103636582779267  0.7289636649594295  0.27103629409342056  1.0000
  Te  Te6       1.0  0.7289635857043018  0.27103639377303174  0.7289636118310457  1.0000
