data_image0
_chemical_formula_structural       In2SO6
_chemical_formula_sum              "In2 S1 O6"
_cell_length_a       5.149926834576882
_cell_length_b       5.1499264444647626
_cell_length_c       5.14992686311457
_cell_angle_alpha    59.99999331270271
_cell_angle_beta     59.99999447058813
_cell_angle_gamma    59.9999935472151

_space_group_name_H-M_alt    "P 1"
_space_group_IT_number       1

loop_
  _space_group_symop_operation_xyz
  'x, y, z'

loop_
  _atom_site_type_symbol
  _atom_site_label
  _atom_site_symmetry_multiplicity
  _atom_site_fract_x
  _atom_site_fract_y
  _atom_site_fract_z
  _atom_site_occupancy
  In  In1       1.0  0.24999991046492512  0.24999995923712517  0.2500001403969718  1.0000
  In  In2       1.0  0.7500001473268055  0.7499999752167473  0.749999568347224  1.0000
  S   S1        1.0  0.999999987724407  1.6647256733387743e-08  5.5812687175535014e-09  1.0000
  O   O1        1.0  0.22766825558112136  0.22766811090596112  0.7723318330840888  1.0000
  O   O2        1.0  0.7723317447962603  0.7723318948932881  0.227668272583824  1.0000
  O   O3        1.0  0.7723317575440145  0.22766823326382724  0.22766827124876313  1.0000
  O   O4        1.0  0.2276682458915993  0.7723317297281895  0.7723318737114026  1.0000
  O   O5        1.0  0.22766807388182667  0.7723317553024643  0.22766837120148015  1.0000
  O   O6        1.0  0.7723318648455716  0.2276683480021474  0.7723316932374409  1.0000
