data_image0
_chemical_formula_structural       In2SeO6
_chemical_formula_sum              "In2 Se1 O6"
_cell_length_a       5.2286517046066425
_cell_length_b       5.228651853840575
_cell_length_c       5.228651628139399
_cell_angle_alpha    59.9999998362297
_cell_angle_beta     60.00000096070515
_cell_angle_gamma    60.000000964944945

_space_group_name_H-M_alt    "P 1"
_space_group_IT_number       1

loop_
  _space_group_symop_operation_xyz
  'x, y, z'

loop_
  _atom_site_type_symbol
  _atom_site_label
  _atom_site_symmetry_multiplicity
  _atom_site_fract_x
  _atom_site_fract_y
  _atom_site_fract_z
  _atom_site_occupancy
  In  In1       1.0  0.25000007538134433  0.2500001358730468  0.24999998520264402  1.0000
  In  In2       1.0  0.7499999984177835  0.7499999578836879  0.7499998468046687  1.0000
  Se  Se1       1.0  3.024792364133249e-08  3.5135583471156764e-08  0.9999999424452395  1.0000
  O   O1        1.0  0.24152249521929572  0.24152238995825684  0.7584774792307127  1.0000
  O   O2        1.0  0.7584774553567435  0.758477603076472  0.24152252595039486  1.0000
  O   O3        1.0  0.7584775383946538  0.24152233193151432  0.24152245050079574  1.0000
  O   O4        1.0  0.24152252476825511  0.7584775088490212  0.7584776471904568  1.0000
  O   O5        1.0  0.2415223312601749  0.7584775519017526  0.2415224627765831  1.0000
  O   O6        1.0  0.7584775301527179  0.24152252311600098  0.7584776167585261  1.0000
