data_image0
_chemical_formula_structural       In2SO6
_chemical_formula_sum              "In2 S1 O6"
_cell_length_a       5.149627252337398
_cell_length_b       5.149627220393375
_cell_length_c       5.149627518996407
_cell_angle_alpha    59.99999835261578
_cell_angle_beta     59.99999934306429
_cell_angle_gamma    59.99999994309286

_space_group_name_H-M_alt    "P 1"
_space_group_IT_number       1

loop_
  _space_group_symop_operation_xyz
  'x, y, z'

loop_
  _atom_site_type_symbol
  _atom_site_label
  _atom_site_symmetry_multiplicity
  _atom_site_fract_x
  _atom_site_fract_y
  _atom_site_fract_z
  _atom_site_occupancy
  In  In1       1.0  0.2499999354157259  0.25000014288695815  0.24999995180152226  1.0000
  In  In2       1.0  0.7500000038728929  0.7499999030526938  0.750000093187545  1.0000
  S   S1        1.0  0.9999999877470317  0.9999999762168241  2.9669400068926305e-08  1.0000
  O   O1        1.0  0.22766468108615162  0.22766471973392235  0.7723353117770828  1.0000
  O   O2        1.0  0.7723353113842317  0.7723352810176963  0.22766469620302257  1.0000
  O   O3        1.0  0.7723353169217936  0.22766473316377778  0.22766466532896631  1.0000
  O   O4        1.0  0.22766471656673087  0.7723352723444766  0.7723353178218632  1.0000
  O   O5        1.0  0.22766474847405468  0.7723352466846345  0.2276646895600489  1.0000
  O   O6        1.0  0.7723352743703831  0.22766468985241012  0.7723353159214363  1.0000
