data_image0
_chemical_formula_structural       In2SnO6
_chemical_formula_sum              "In2 Sn1 O6"
_cell_length_a       5.308361744325998
_cell_length_b       5.308361646446561
_cell_length_c       5.308361622683377
_cell_angle_alpha    60.00000007168706
_cell_angle_beta     59.99999869859216
_cell_angle_gamma    59.999997250182325

_space_group_name_H-M_alt    "P 1"
_space_group_IT_number       1

loop_
  _space_group_symop_operation_xyz
  'x, y, z'

loop_
  _atom_site_type_symbol
  _atom_site_label
  _atom_site_symmetry_multiplicity
  _atom_site_fract_x
  _atom_site_fract_y
  _atom_site_fract_z
  _atom_site_occupancy
  In  In1       1.0  0.24999963919120125  0.2499999959918383  0.25000010653516713  1.0000
  In  In2       1.0  0.7499998387101253  0.7500002394602289  0.7500001175942341  1.0000
  Sn  Sn1       1.0  0.9999999801588638  1.3843196283457923e-08  0.9999999106917699  1.0000
  O   O1        1.0  0.26644554099050455  0.2664453795149714  0.7335546197128312  1.0000
  O   O2        1.0  0.733554522652269  0.7335544821707778  0.266445536105405  1.0000
  O   O3        1.0  0.7335548399494853  0.26644534976195056  0.2664455333379576  1.0000
  O   O4        1.0  0.2664452466068041  0.7335547172645441  0.7335544216974083  1.0000
  O   O5        1.0  0.26644576155623884  0.7335544348628497  0.2664452205027915  1.0000
  O   O6        1.0  0.7335546354273574  0.2664453991364964  0.7335545244048327  1.0000
