data_image0
_chemical_formula_structural       In2SeS6
_chemical_formula_sum              "In2 Se1 S6"
_cell_length_a       6.706423884665568
_cell_length_b       6.706424510628997
_cell_length_c       6.706423704498918
_cell_angle_alpha    60.000000061354285
_cell_angle_beta     60.000000811938165
_cell_angle_gamma    60.000001789181596

_space_group_name_H-M_alt    "P 1"
_space_group_IT_number       1

loop_
  _space_group_symop_operation_xyz
  'x, y, z'

loop_
  _atom_site_type_symbol
  _atom_site_label
  _atom_site_symmetry_multiplicity
  _atom_site_fract_x
  _atom_site_fract_y
  _atom_site_fract_z
  _atom_site_occupancy
  In  In1       1.0  0.24999997089158896  0.2500000901768697  0.25000000781294945  1.0000
  In  In2       1.0  0.7500000134126217  0.7499999838130893  0.7500000344177661  1.0000
  Se  Se1       1.0  0.9999999657553121  2.008848945259162e-08  0.9999999936581294  1.0000
  S   S1        1.0  0.23776617973199768  0.23776616560197864  0.7622338657138327  1.0000
  S   S2        1.0  0.762233822470457  0.7622337823783706  0.23776617987490792  1.0000
  S   S3        1.0  0.762233749092942  0.23776625616370914  0.23776623879448272  1.0000
  S   S4        1.0  0.23776621517653468  0.7622337849541804  0.7622337568253584  1.0000
  S   S5        1.0  0.2377662220840514  0.7622337551176479  0.23776620331325146  1.0000
  S   S6        1.0  0.7622338522423115  0.23776617277421513  0.762233759595686  1.0000
