data_image0
_chemical_formula_structural       In2SnTe6
_chemical_formula_sum              "In2 Sn1 Te6"
_cell_length_a       7.560266544795666
_cell_length_b       7.560266462809081
_cell_length_c       7.560266290874824
_cell_angle_alpha    60.000000505661056
_cell_angle_beta     60.00000110512413
_cell_angle_gamma    59.999998641593066

_space_group_name_H-M_alt    "P 1"
_space_group_IT_number       1

loop_
  _space_group_symop_operation_xyz
  'x, y, z'

loop_
  _atom_site_type_symbol
  _atom_site_label
  _atom_site_symmetry_multiplicity
  _atom_site_fract_x
  _atom_site_fract_y
  _atom_site_fract_z
  _atom_site_occupancy
  In  In1       1.0  0.24999999603545206  0.24999999652330823  0.25000003030108264  1.0000
  In  In2       1.0  0.7500000016511134  0.7500000268293685  0.7499998961949417  1.0000
  Sn  Sn1       1.0  3.642337265669431e-09  0.999999915761258  5.749336404094198e-08  1.0000
  Te  Te1       1.0  0.27460685541311064  0.27460690391760156  0.7253931051450885  1.0000
  Te  Te2       1.0  0.7253932393262083  0.7253932360733312  0.2746067832860772  1.0000
  Te  Te3       1.0  0.7253931045665923  0.2746068460650733  0.27460687853985954  1.0000
  Te  Te4       1.0  0.2746068602758426  0.7253931108685958  0.7253931981132937  1.0000
  Te  Te5       1.0  0.27460685314392236  0.7253931185987972  0.2746068565825613  1.0000
  Te  Te6       1.0  0.7253930961472902  0.27460685291465464  0.7253931821978745  1.0000
