data_image0
_chemical_formula_structural       In2SnO6
_chemical_formula_sum              "In2 Sn1 O6"
_cell_length_a       5.307709810902382
_cell_length_b       5.307711358142307
_cell_length_c       5.307710472450822
_cell_angle_alpha    59.9999995436635
_cell_angle_beta     59.99999259555048
_cell_angle_gamma    59.99999540357199

_space_group_name_H-M_alt    "P 1"
_space_group_IT_number       1

loop_
  _space_group_symop_operation_xyz
  'x, y, z'

loop_
  _atom_site_type_symbol
  _atom_site_label
  _atom_site_symmetry_multiplicity
  _atom_site_fract_x
  _atom_site_fract_y
  _atom_site_fract_z
  _atom_site_occupancy
  In  In1       1.0  0.2500003070331174  0.2500005161438264  0.24999900641587072  1.0000
  In  In2       1.0  0.7500010342312368  0.7499986571563932  0.7500000474441658  1.0000
  Sn  Sn1       1.0  0.9999999898915819  0.999999997692519  4.323898400438765e-09  1.0000
  O   O1        1.0  0.26649792994350563  0.2664986027688019  0.7335017729420624  1.0000
  O   O2        1.0  0.7335013049118303  0.7335021188520152  0.2664982024237363  1.0000
  O   O3        1.0  0.7335019461220702  0.266498772018437  0.26649788545158143  1.0000
  O   O4        1.0  0.2664981297722497  0.7335010450693367  0.7335023270228831  1.0000
  O   O5        1.0  0.2664978595531905  0.7335014908793933  0.2664988593584872  1.0000
  O   O6        1.0  0.7335014384865297  0.26649884539188357  0.7335019138993203  1.0000
