data_image0
_chemical_formula_structural       In2TaS6
_chemical_formula_sum              "In2 Ta1 S6"
_cell_length_a       6.435619709043035
_cell_length_b       6.4356195725436365
_cell_length_c       6.435620064498848
_cell_angle_alpha    59.99999522065713
_cell_angle_beta     59.99999521048164
_cell_angle_gamma    59.99999632506449

_space_group_name_H-M_alt    "P 1"
_space_group_IT_number       1

loop_
  _space_group_symop_operation_xyz
  'x, y, z'

loop_
  _atom_site_type_symbol
  _atom_site_label
  _atom_site_symmetry_multiplicity
  _atom_site_fract_x
  _atom_site_fract_y
  _atom_site_fract_z
  _atom_site_occupancy
  In  In1       1.0  0.24999990882660977  0.2500001491008013  0.24999997171426852  1.0000
  In  In2       1.0  0.7499999394371877  0.7500001313924018  0.7499999604037209  1.0000
  Ta  Ta1       1.0  4.2035656342588136e-08  0.9999995832271658  2.2155333532342052e-07  1.0000
  S   S1        1.0  0.262120671335054  0.2621206190943014  0.7378792893744658  1.0000
  S   S2        1.0  0.7378795792041695  0.7378793911626352  0.2621205285545328  1.0000
  S   S3        1.0  0.7378792345441875  0.2621207854302747  0.2621205107759573  1.0000
  S   S4        1.0  0.2621206705754247  0.7378793675570825  0.7378795840828984  1.0000
  S   S5        1.0  0.26212070055784187  0.7378793686605187  0.26212059282137734  1.0000
  S   S6        1.0  0.7378792786354087  0.26212063208105707  0.737879349999776  1.0000
