data_image0
_chemical_formula_structural       In2TaO6
_chemical_formula_sum              "In2 Ta1 O6"
_cell_length_a       5.394135174844335
_cell_length_b       5.394135770822671
_cell_length_c       5.394135529216644
_cell_angle_alpha    59.999999028744206
_cell_angle_beta     60.000000428045546
_cell_angle_gamma    60.00000249028966

_space_group_name_H-M_alt    "P 1"
_space_group_IT_number       1

loop_
  _space_group_symop_operation_xyz
  'x, y, z'

loop_
  _atom_site_type_symbol
  _atom_site_label
  _atom_site_symmetry_multiplicity
  _atom_site_fract_x
  _atom_site_fract_y
  _atom_site_fract_z
  _atom_site_occupancy
  In  In1       1.0  0.2499996877884099  0.2500003519540027  0.25000016123350277  1.0000
  In  In2       1.0  0.7499997429490732  0.7499997684818476  0.7500010045009291  1.0000
  Ta  Ta1       1.0  0.9999999026315232  5.4492272801908183e-08  2.3277872892488508e-07  1.0000
  O   O1        1.0  0.25505980113392956  0.25505960781101955  0.7449402143886129  1.0000
  O   O2        1.0  0.7449404237473345  0.7449403650416284  0.2550592562053196  1.0000
  O   O3        1.0  0.7449403944952003  0.25506004305616675  0.25505947733879597  1.0000
  O   O4        1.0  0.25505971619276413  0.7449401182489437  0.7449402545978422  1.0000
  O   O5        1.0  0.2550599521191563  0.7449400526773011  0.2550594414173799  1.0000
  O   O6        1.0  0.7449403730318993  0.25505963863189296  0.7449400790283571  1.0000
