data_image0
_chemical_formula_structural       In2TiS6
_chemical_formula_sum              "In2 Ti1 S6"
_cell_length_a       6.504284719399757
_cell_length_b       6.504284585278917
_cell_length_c       6.504284819085626
_cell_angle_alpha    60.00000091043025
_cell_angle_beta     60.00000086015803
_cell_angle_gamma    60.00000266847552

_space_group_name_H-M_alt    "P 1"
_space_group_IT_number       1

loop_
  _space_group_symop_operation_xyz
  'x, y, z'

loop_
  _atom_site_type_symbol
  _atom_site_label
  _atom_site_symmetry_multiplicity
  _atom_site_fract_x
  _atom_site_fract_y
  _atom_site_fract_z
  _atom_site_occupancy
  In  In1       1.0  0.2500001088120728  0.2499999611194318  0.24999999625355826  1.0000
  In  In2       1.0  0.749999983767893  0.7499999473796592  0.7499999804891402  1.0000
  Ti  Ti1       1.0  0.9999999589713799  0.9999999792872025  1.2772993505118943e-07  1.0000
  S   S1        1.0  0.25366786182241335  0.25366783990807645  0.7463322005072753  1.0000
  S   S2        1.0  0.7463321851537157  0.7463321947507855  0.2536678266668925  1.0000
  S   S3        1.0  0.7463320719600449  0.25366790903827235  0.2536678857832061  1.0000
  S   S4        1.0  0.2536678877406544  0.7463320785460432  0.7463320671207277  1.0000
  S   S5        1.0  0.25366787534956026  0.7463322444826738  0.25366779449399274  1.0000
  S   S6        1.0  0.7463320819112346  0.2536678090059998  0.7463321359024034  1.0000
