data_image0
_chemical_formula_structural       In2TaTe6
_chemical_formula_sum              "In2 Ta1 Te6"
_cell_length_a       7.411846262774262
_cell_length_b       7.411846268587561
_cell_length_c       7.4118458582900715
_cell_angle_alpha    60.00000206115562
_cell_angle_beta     59.99999972817646
_cell_angle_gamma    60.000000938939415

_space_group_name_H-M_alt    "P 1"
_space_group_IT_number       1

loop_
  _space_group_symop_operation_xyz
  'x, y, z'

loop_
  _atom_site_type_symbol
  _atom_site_label
  _atom_site_symmetry_multiplicity
  _atom_site_fract_x
  _atom_site_fract_y
  _atom_site_fract_z
  _atom_site_occupancy
  In  In1       1.0  0.24999996790540288  0.2500000216096438  0.24999997353492193  1.0000
  In  In2       1.0  0.749999983094216  0.7499998781060004  0.7500001456245562  1.0000
  Ta  Ta1       1.0  2.3903272401685317e-08  2.643864581654733e-08  2.2050745747038218e-08  1.0000
  Te  Te1       1.0  0.26280890938410306  0.26280900189364387  0.7371910328279898  1.0000
  Te  Te2       1.0  0.7371909819719883  0.7371910300152257  0.2628089340261651  1.0000
  Te  Te3       1.0  0.7371911017043515  0.2628090139664649  0.2628088194284717  1.0000
  Te  Te4       1.0  0.26280897817532395  0.7371909898513443  0.737191106335974  1.0000
  Te  Te5       1.0  0.26280904950891343  0.7371909832389671  0.2628089163826885  1.0000
  Te  Te6       1.0  0.7371909964422783  0.26280905693198  0.7371910567403276  1.0000
