data_image0
_chemical_formula_structural       In2TiO6
_chemical_formula_sum              "In2 Ti1 O6"
_cell_length_a       5.203134460938942
_cell_length_b       5.2031348897670995
_cell_length_c       5.203134882912683
_cell_angle_alpha    59.99999865107119
_cell_angle_beta     59.99999368466941
_cell_angle_gamma    59.999997254690314

_space_group_name_H-M_alt    "P 1"
_space_group_IT_number       1

loop_
  _space_group_symop_operation_xyz
  'x, y, z'

loop_
  _atom_site_type_symbol
  _atom_site_label
  _atom_site_symmetry_multiplicity
  _atom_site_fract_x
  _atom_site_fract_y
  _atom_site_fract_z
  _atom_site_occupancy
  In  In1       1.0  0.2500003250104873  0.2500003134072663  0.24999956723338243  1.0000
  In  In2       1.0  0.7500005473033835  0.7499994737673062  0.7499996276503591  1.0000
  Ti  Ti1       1.0  1.020619662271145e-07  4.001560993517086e-08  0.9999998232557038  1.0000
  O   O1        1.0  0.25727469719837315  0.257274811573045  0.7427255043525381  1.0000
  O   O2        1.0  0.7427249394868807  0.742725260418565  0.2572752595085204  1.0000
  O   O3        1.0  0.742724863780896  0.257275008460764  0.257274725883352  1.0000
  O   O4        1.0  0.2572746795385723  0.7427251106080414  0.7427253115738779  1.0000
  O   O5        1.0  0.2572746786171236  0.7427250268687589  0.2572749462480741  1.0000
  O   O6        1.0  0.7427251877499603  0.25727494861460415  0.7427252667027832  1.0000
