data_image0
_chemical_formula_structural       In2TeS6
_chemical_formula_sum              "In2 Te1 S6"
_cell_length_a       6.895028453108275
_cell_length_b       6.895028658782829
_cell_length_c       6.895028121135902
_cell_angle_alpha    60.00000206001689
_cell_angle_beta     60.00000495699793
_cell_angle_gamma    59.99999835852455

_space_group_name_H-M_alt    "P 1"
_space_group_IT_number       1

loop_
  _space_group_symop_operation_xyz
  'x, y, z'

loop_
  _atom_site_type_symbol
  _atom_site_label
  _atom_site_symmetry_multiplicity
  _atom_site_fract_x
  _atom_site_fract_y
  _atom_site_fract_z
  _atom_site_occupancy
  In  In1       1.0  0.24999996391525645  0.25000002034488916  0.2500000189639383  1.0000
  In  In2       1.0  0.7499999830756447  0.7500000432719399  0.7500000288101659  1.0000
  Te  Te1       1.0  1.5765843019953505e-08  0.9999999928949125  0.9999998622401451  1.0000
  S   S1        1.0  0.24427974348461148  0.24427972164395087  0.7557203073307807  1.0000
  S   S2        1.0  0.7557202307424685  0.75572026026435  0.24427975172597505  1.0000
  S   S3        1.0  0.7557203548132668  0.2442796908274873  0.24427968071615744  1.0000
  S   S4        1.0  0.24427963769890537  0.7557203568028894  0.7557203145822082  1.0000
  S   S5        1.0  0.24427970033156712  0.7557203680925026  0.2442795846976828  1.0000
  S   S6        1.0  0.755720387808996  0.24427955342253407  0.755720428744801  1.0000
