data_image0
_chemical_formula_structural       In2TeSe6
_chemical_formula_sum              "In2 Te1 Se6"
_cell_length_a       6.861949684698544
_cell_length_b       6.861950033300903
_cell_length_c       6.861949881823337
_cell_angle_alpha    60.00000050950304
_cell_angle_beta     59.99999793423236
_cell_angle_gamma    59.99999843995383

_space_group_name_H-M_alt    "P 1"
_space_group_IT_number       1

loop_
  _space_group_symop_operation_xyz
  'x, y, z'

loop_
  _atom_site_type_symbol
  _atom_site_label
  _atom_site_symmetry_multiplicity
  _atom_site_fract_x
  _atom_site_fract_y
  _atom_site_fract_z
  _atom_site_occupancy
  In  In1       1.0  0.2500000169122519  0.24999999188540903  0.2499999725413446  1.0000
  In  In2       1.0  0.7500000313427482  0.7499999631623828  0.7499999700007529  1.0000
  Te  Te1       1.0  0.9999998539702636  2.159650399558609e-07  8.161728686425397e-08  1.0000
  Se  Se1       1.0  0.3017490521754787  0.3017490031999985  0.6982510637246212  1.0000
  Se  Se2       1.0  0.6982508828913507  0.698251033950207  0.301749181450765  1.0000
  Se  Se3       1.0  0.6982508751862432  0.3017489728407149  0.3017489419650871  1.0000
  Se  Se4       1.0  0.30174914917188556  0.6982508822563167  0.6982508366175095  1.0000
  Se  Se5       1.0  0.30174915067619007  0.6982509012103572  0.3017489957341843  1.0000
  Se  Se6       1.0  0.698250980442293  0.30174903241941237  0.6982509670910927  1.0000
