data_image0
_chemical_formula_structural       In2VO6
_chemical_formula_sum              "In2 V1 O6"
_cell_length_a       5.287421513766929
_cell_length_b       5.28742018363775
_cell_length_c       5.287420669346043
_cell_angle_alpha    60.00000319933115
_cell_angle_beta     60.00000300246818
_cell_angle_gamma    60.00000263989594

_space_group_name_H-M_alt    "P 1"
_space_group_IT_number       1

loop_
  _space_group_symop_operation_xyz
  'x, y, z'

loop_
  _atom_site_type_symbol
  _atom_site_label
  _atom_site_symmetry_multiplicity
  _atom_site_fract_x
  _atom_site_fract_y
  _atom_site_fract_z
  _atom_site_occupancy
  In  In1       1.0  0.2500001549632921  0.24999955364175458  0.2500002430725151  1.0000
  In  In2       1.0  0.7500000118567806  0.7500001248502881  0.7499988109845038  1.0000
  V   V1        1.0  3.3397587793906554e-08  4.632672287498659e-09  0.9999999299202736  1.0000
  O   O1        1.0  0.2473057317441289  0.24730583652191349  0.752694316060226  1.0000
  O   O2        1.0  0.7526941844536842  0.7526942728089753  0.2473062308909981  1.0000
  O   O3        1.0  0.7526940530825329  0.247305623353798  0.2473059712028465  1.0000
  O   O4        1.0  0.24730597786844577  0.7526944234359593  0.7526941581471203  1.0000
  O   O5        1.0  0.24730540193258263  0.7526943254331582  0.24730613146834488  1.0000
  O   O6        1.0  0.752694425321036  0.24730586728584292  0.7526941024169437  1.0000
