data_image0
_chemical_formula_structural       In2VS6
_chemical_formula_sum              "In2 V1 S6"
_cell_length_a       6.456909959777881
_cell_length_b       6.456909178188717
_cell_length_c       6.456909679802035
_cell_angle_alpha    59.99999850498261
_cell_angle_beta     59.99999927478352
_cell_angle_gamma    59.99999888271709

_space_group_name_H-M_alt    "P 1"
_space_group_IT_number       1

loop_
  _space_group_symop_operation_xyz
  'x, y, z'

loop_
  _atom_site_type_symbol
  _atom_site_label
  _atom_site_symmetry_multiplicity
  _atom_site_fract_x
  _atom_site_fract_y
  _atom_site_fract_z
  _atom_site_occupancy
  In  In1       1.0  0.24999999495169564  0.2499999270361519  0.2500000276795329  1.0000
  In  In2       1.0  0.7500000030977294  0.7499998873291145  0.7500000161607633  1.0000
  V   V1        1.0  4.4943513722042544e-08  0.9999999563736574  0.9999999188075317  1.0000
  S   S1        1.0  0.24582517525208863  0.24582513330688727  0.7541748793566504  1.0000
  S   S2        1.0  0.7541748772184342  0.7541749845459781  0.24582509239156486  1.0000
  S   S3        1.0  0.7541748339095986  0.24582516100055232  0.24582510808732064  1.0000
  S   S4        1.0  0.24582511256362974  0.7541748885676013  0.7541749275709715  1.0000
  S   S5        1.0  0.24582508166198738  0.7541748213213106  0.24582518351284074  1.0000
  S   S6        1.0  0.7541749147942649  0.24582520169168004  0.75417487140609  1.0000
