data_image0
_chemical_formula_structural       In2VTe6
_chemical_formula_sum              "In2 V1 Te6"
_cell_length_a       7.225539102198977
_cell_length_b       7.225538662605118
_cell_length_c       7.225539766588074
_cell_angle_alpha    60.00000351013826
_cell_angle_beta     59.999998911717626
_cell_angle_gamma    59.99999979882236

_space_group_name_H-M_alt    "P 1"
_space_group_IT_number       1

loop_
  _space_group_symop_operation_xyz
  'x, y, z'

loop_
  _atom_site_type_symbol
  _atom_site_label
  _atom_site_symmetry_multiplicity
  _atom_site_fract_x
  _atom_site_fract_y
  _atom_site_fract_z
  _atom_site_occupancy
  In  In1       1.0  0.24999998257733647  0.2500000903803631  0.2500000645920572  1.0000
  In  In2       1.0  0.750000046705251  0.7499999694270972  0.7499998245934476  1.0000
  V   V1        1.0  0.9999999948179953  2.0340248522758545e-08  0.9999997945117893  1.0000
  Te  Te1       1.0  0.26110709107831215  0.2611071256597809  0.7388930304963011  1.0000
  Te  Te2       1.0  0.7388929691190633  0.7388927934608814  0.2611074007360372  1.0000
  Te  Te3       1.0  0.7388928544602761  0.26110695259968647  0.26110720937531523  1.0000
  Te  Te4       1.0  0.2611071369226299  0.738892971605992  0.738892683522133  1.0000
  Te  Te5       1.0  0.2611069533945643  0.7388928083990652  0.2611073403025031  1.0000
  Te  Te6       1.0  0.7388929730457535  0.2611072531034233  0.7388926575837664  1.0000
