data_image0
_chemical_formula_structural       In2VTe6
_chemical_formula_sum              "In2 V1 Te6"
_cell_length_a       7.22782307249662
_cell_length_b       7.227823364540339
_cell_length_c       7.2278236801254785
_cell_angle_alpha    60.000002150627424
_cell_angle_beta     60.000001024682035
_cell_angle_gamma    60.0000014870368

_space_group_name_H-M_alt    "P 1"
_space_group_IT_number       1

loop_
  _space_group_symop_operation_xyz
  'x, y, z'

loop_
  _atom_site_type_symbol
  _atom_site_label
  _atom_site_symmetry_multiplicity
  _atom_site_fract_x
  _atom_site_fract_y
  _atom_site_fract_z
  _atom_site_occupancy
  In  In1       1.0  0.25000000123493094  0.24999992126798942  0.2500000485717414  1.0000
  In  In2       1.0  0.7500000222747839  0.7499999908651432  0.7499999288187695  1.0000
  V   V1        1.0  0.999999896287643  0.9999999373040019  1.6794141082352805e-08  1.0000
  Te  Te1       1.0  0.2610703872062344  0.2610701377461458  0.7389297687106292  1.0000
  Te  Te2       1.0  0.7389295932325561  0.738929826916069  0.26107033538732427  1.0000
  Te  Te3       1.0  0.7389297574582648  0.26107029010600924  0.26107032578955003  1.0000
  Te  Te4       1.0  0.2610703462984699  0.738929798253709  0.738929538583131  1.0000
  Te  Te5       1.0  0.26107025676424617  0.738929858514057  0.26107029393885056  1.0000
  Te  Te6       1.0  0.7389297413585789  0.2610702400125828  0.7389297260836232  1.0000
