data_image0
_chemical_formula_structural       In2VO6
_chemical_formula_sum              "In2 V1 O6"
_cell_length_a       5.287340377643281
_cell_length_b       5.2873406176943485
_cell_length_c       5.287340291953514
_cell_angle_alpha    59.999997889584655
_cell_angle_beta     59.999997457969556
_cell_angle_gamma    59.999997063329815

_space_group_name_H-M_alt    "P 1"
_space_group_IT_number       1

loop_
  _space_group_symop_operation_xyz
  'x, y, z'

loop_
  _atom_site_type_symbol
  _atom_site_label
  _atom_site_symmetry_multiplicity
  _atom_site_fract_x
  _atom_site_fract_y
  _atom_site_fract_z
  _atom_site_occupancy
  In  In1       1.0  0.24999996692564824  0.250000110649496  0.2499999577762917  1.0000
  In  In2       1.0  0.749999999741306  0.7500000285037159  0.750000166591406  1.0000
  V   V1        1.0  1.9655070549108645e-08  0.9999999999999982  2.799866681941731e-08  1.0000
  O   O1        1.0  0.24730774269579267  0.24730758594498436  0.7526923009991681  1.0000
  O   O2        1.0  0.7526922709382649  0.7526924188586487  0.24730753040657616  1.0000
  O   O3        1.0  0.7526924188809201  0.24730771426827333  0.24730759441277764  1.0000
  O   O4        1.0  0.24730763653485469  0.7526922372587922  0.7526923883712686  1.0000
  O   O5        1.0  0.24730767243180662  0.7526922945254878  0.2473076904427959  1.0000
  O   O6        1.0  0.7526923173345899  0.24730766395069906  0.7526922346911165  1.0000
