data_image0
_chemical_formula_structural       In2VS6
_chemical_formula_sum              "In2 V1 S6"
_cell_length_a       6.460780518821787
_cell_length_b       6.4607808750543425
_cell_length_c       6.460781238007253
_cell_angle_alpha    60.00000387411731
_cell_angle_beta     60.000002339620316
_cell_angle_gamma    60.00000749074436

_space_group_name_H-M_alt    "P 1"
_space_group_IT_number       1

loop_
  _space_group_symop_operation_xyz
  'x, y, z'

loop_
  _atom_site_type_symbol
  _atom_site_label
  _atom_site_symmetry_multiplicity
  _atom_site_fract_x
  _atom_site_fract_y
  _atom_site_fract_z
  _atom_site_occupancy
  In  In1       1.0  0.25000006600572766  0.24999995203746952  0.25000015264307707  1.0000
  In  In2       1.0  0.7499999406845703  0.7500001670007269  0.750000141712699  1.0000
  V   V1        1.0  0.9999999594539933  0.9999999393388438  0.9999997162786833  1.0000
  S   S1        1.0  0.24560887146603777  0.2456086352868731  0.7543913291145266  1.0000
  S   S2        1.0  0.7543911329693266  0.7543913832813002  0.24560878443365863  1.0000
  S   S3        1.0  0.7543910292933736  0.2456089182507866  0.24560864739963423  1.0000
  S   S4        1.0  0.24560840755025684  0.7543914358492797  0.7543913283391889  1.0000
  S   S5        1.0  0.24560894292794866  0.7543910560838841  0.24560871342088347  1.0000
  S   S6        1.0  0.7543916031949484  0.24560851700406003  0.7543911709310047  1.0000
