data_image0
_chemical_formula_structural       In2VSe6
_chemical_formula_sum              "In2 V1 Se6"
_cell_length_a       6.772153488169252
_cell_length_b       6.772153443459496
_cell_length_c       6.772153406614227
_cell_angle_alpha    59.99999940595804
_cell_angle_beta     60.000001358766475
_cell_angle_gamma    60.00000071928586

_space_group_name_H-M_alt    "P 1"
_space_group_IT_number       1

loop_
  _space_group_symop_operation_xyz
  'x, y, z'

loop_
  _atom_site_type_symbol
  _atom_site_label
  _atom_site_symmetry_multiplicity
  _atom_site_fract_x
  _atom_site_fract_y
  _atom_site_fract_z
  _atom_site_occupancy
  In  In1       1.0  0.2500000408074495  0.2500000081183957  0.24999998426068684  1.0000
  In  In2       1.0  0.7500000115927071  0.7500000243551864  0.7499999609445548  1.0000
  V   V1        1.0  9.004074803602968e-08  4.7021036833548765e-08  0.9999999093195802  1.0000
  Se  Se1       1.0  0.2505751567569388  0.2505751758899454  0.7494248522490834  1.0000
  Se  Se2       1.0  0.7494248407381972  0.7494247553075589  0.2505752182990334  1.0000
  Se  Se3       1.0  0.7494247765949751  0.25057520215287243  0.2505752001877916  1.0000
  Se  Se4       1.0  0.25057515665704383  0.7494248194697002  0.7494248203534691  1.0000
  Se  Se5       1.0  0.2505751017145843  0.7494248419337267  0.2505752126753507  1.0000
  Se  Se6       1.0  0.7494248280593537  0.2505751236253031  0.7494248479731683  1.0000
