data_image0
_chemical_formula_structural       In2WS6
_chemical_formula_sum              "In2 W1 S6"
_cell_length_a       6.6019228865346555
_cell_length_b       6.60192290789113
_cell_length_c       6.601923562993573
_cell_angle_alpha    59.99998820751898
_cell_angle_beta     59.999988932185744
_cell_angle_gamma    59.999989052361066

_space_group_name_H-M_alt    "P 1"
_space_group_IT_number       1

loop_
  _space_group_symop_operation_xyz
  'x, y, z'

loop_
  _atom_site_type_symbol
  _atom_site_label
  _atom_site_symmetry_multiplicity
  _atom_site_fract_x
  _atom_site_fract_y
  _atom_site_fract_z
  _atom_site_occupancy
  In  In1       1.0  0.2500000355142059  0.24999995461296085  0.2500000544034922  1.0000
  In  In2       1.0  0.7500000907799619  0.7500000790344172  0.7499998635522971  1.0000
  W   W1        1.0  6.56510294291326e-08  0.9999999814486528  7.793572995367989e-08  1.0000
  S   S1        1.0  0.24533303947329235  0.24533323922822425  0.7546670195196813  1.0000
  S   S2        1.0  0.7546667122300053  0.7546665959198332  0.24533345157020753  1.0000
  S   S3        1.0  0.7546665639020051  0.2453331503914789  0.24533336880865206  1.0000
  S   S4        1.0  0.2453333275484779  0.7546666328128487  0.7546667357462626  1.0000
  S   S5        1.0  0.24533350740331616  0.7546667729136292  0.24533307350727068  1.0000
  S   S6        1.0  0.7546666630349185  0.24533360578865387  0.7546663529658374  1.0000
