data_image0
_chemical_formula_structural       In2WSe6
_chemical_formula_sum              "In2 W1 Se6"
_cell_length_a       6.911508940807582
_cell_length_b       6.911508362978985
_cell_length_c       6.911508165798623
_cell_angle_alpha    59.99999978922377
_cell_angle_beta     60.000001334747374
_cell_angle_gamma    59.999997909481884

_space_group_name_H-M_alt    "P 1"
_space_group_IT_number       1

loop_
  _space_group_symop_operation_xyz
  'x, y, z'

loop_
  _atom_site_type_symbol
  _atom_site_label
  _atom_site_symmetry_multiplicity
  _atom_site_fract_x
  _atom_site_fract_y
  _atom_site_fract_z
  _atom_site_occupancy
  In  In1       1.0  0.24999994736439077  0.24999996513078016  0.2500000279839573  1.0000
  In  In2       1.0  0.7500000080967938  0.7500000389273402  0.7499999407574546  1.0000
  W   W1        1.0  0.9999999760544115  0.9999999415227783  0.9999998198414874  1.0000
  Se  Se1       1.0  0.24722946053570163  0.24722932645744963  0.7527706815416898  1.0000
  Se  Se2       1.0  0.7527706529696112  0.7527704791325183  0.24722948971637218  1.0000
  Se  Se3       1.0  0.7527706171944941  0.24722945035742622  0.24722945041657393  1.0000
  Se  Se4       1.0  0.2472291926933804  0.7527707698892159  0.7527706291503167  1.0000
  Se  Se5       1.0  0.24722931971308054  0.7527706957718947  0.24722940876837  1.0000
  Se  Se6       1.0  0.752770810562732  0.24722934018289067  0.7527705694726448  1.0000
