data_image0
_chemical_formula_structural       In2WTe6
_chemical_formula_sum              "In2 W1 Te6"
_cell_length_a       7.34430083500476
_cell_length_b       7.344301166755551
_cell_length_c       7.344301792192293
_cell_angle_alpha    59.99999500132099
_cell_angle_beta     59.999997445083025
_cell_angle_gamma    60.00000683305364

_space_group_name_H-M_alt    "P 1"
_space_group_IT_number       1

loop_
  _space_group_symop_operation_xyz
  'x, y, z'

loop_
  _atom_site_type_symbol
  _atom_site_label
  _atom_site_symmetry_multiplicity
  _atom_site_fract_x
  _atom_site_fract_y
  _atom_site_fract_z
  _atom_site_occupancy
  In  In1       1.0  0.2500000654745952  0.24999991357001702  0.24999997071941196  1.0000
  In  In2       1.0  0.7500000046376241  0.7500000141984853  0.7500000701006662  1.0000
  W   W1        1.0  0.9999997501446826  0.9999997732046675  1.9339253132118704e-07  1.0000
  Te  Te1       1.0  0.26008485939908027  0.2600849343001815  0.7399151292480137  1.0000
  Te  Te2       1.0  0.7399152560164113  0.739915338664126  0.26008470406812223  1.0000
  Te  Te3       1.0  0.7399148628689793  0.2600852092987182  0.26008512770573455  1.0000
  Te  Te4       1.0  0.260085108761544  0.7399148535463943  0.739914810397694  1.0000
  Te  Te5       1.0  0.2600851148492447  0.739914885274011  0.2600850977067033  1.0000
  Te  Te6       1.0  0.7399149782743467  0.2600850725115203  0.7399148988983764  1.0000
