data_image0
_chemical_formula_structural       In2WO6
_chemical_formula_sum              "In2 W1 O6"
_cell_length_a       5.44900148068443
_cell_length_b       5.449001913534769
_cell_length_c       5.449001926811474
_cell_angle_alpha    60.000002710664425
_cell_angle_beta     60.000005463743605
_cell_angle_gamma    60.00000249987383

_space_group_name_H-M_alt    "P 1"
_space_group_IT_number       1

loop_
  _space_group_symop_operation_xyz
  'x, y, z'

loop_
  _atom_site_type_symbol
  _atom_site_label
  _atom_site_symmetry_multiplicity
  _atom_site_fract_x
  _atom_site_fract_y
  _atom_site_fract_z
  _atom_site_occupancy
  In  In1       1.0  0.2500002513894409  0.2500000780117814  0.24999962231805306  1.0000
  In  In2       1.0  0.7500002653640518  0.7500000856904603  0.7499995690851836  1.0000
  W   W1        1.0  0.9999999420570057  0.999999964037603  0.9999999900615387  1.0000
  O   O1        1.0  0.24973431289488948  0.2497346354437959  0.7502655489428811  1.0000
  O   O2        1.0  0.7502655392089899  0.7502655260108045  0.24973463658039077  1.0000
  O   O3        1.0  0.7502656192308473  0.24973420207175548  0.24973467121659507  1.0000
  O   O4        1.0  0.24973425321593626  0.7502654851287257  0.7502657339214817  1.0000
  O   O5        1.0  0.24973419078026649  0.7502657522175503  0.24973459735540024  1.0000
  O   O6        1.0  0.750265397335333  0.2497343620364064  0.7502656776951714  1.0000
