data_image0
_chemical_formula_structural       In2YS6
_chemical_formula_sum              "In2 Y1 S6"
_cell_length_a       6.977952615082045
_cell_length_b       6.9779526808714785
_cell_length_c       6.977952256278217
_cell_angle_alpha    60.00000075343917
_cell_angle_beta     59.99999898923911
_cell_angle_gamma    59.99999864126397

_space_group_name_H-M_alt    "P 1"
_space_group_IT_number       1

loop_
  _space_group_symop_operation_xyz
  'x, y, z'

loop_
  _atom_site_type_symbol
  _atom_site_label
  _atom_site_symmetry_multiplicity
  _atom_site_fract_x
  _atom_site_fract_y
  _atom_site_fract_z
  _atom_site_occupancy
  In  In1       1.0  0.24999991311537634  0.25000003297311285  0.25000004694816313  1.0000
  In  In2       1.0  0.7500000049835273  0.7499999374442811  0.7499999755495852  1.0000
  Y   Y1        1.0  0.9999999681059124  1.1057530810774715e-07  3.947907452654206e-08  1.0000
  S   S1        1.0  0.27555428379868824  0.2755542965113143  0.7244456519505623  1.0000
  S   S2        1.0  0.7244456600913273  0.7244456809267334  0.275554394267688  1.0000
  S   S3        1.0  0.724445831379556  0.27555435709960424  0.27555420583908324  1.0000
  S   S4        1.0  0.2755543473549879  0.7244456852794927  0.7244456890532877  1.0000
  S   S5        1.0  0.2755542710304644  0.7244456730471707  0.2755542928404472  1.0000
  S   S6        1.0  0.7244457233233367  0.275554232429168  0.7244457082364423  1.0000
