data_image0
_chemical_formula_structural       In2YSe6
_chemical_formula_sum              "In2 Y1 Se6"
_cell_length_a       7.2814662407942325
_cell_length_b       7.281465978498658
_cell_length_c       7.281466305345259
_cell_angle_alpha    60.00000040183217
_cell_angle_beta     59.999999434655194
_cell_angle_gamma    60.000000598268095

_space_group_name_H-M_alt    "P 1"
_space_group_IT_number       1

loop_
  _space_group_symop_operation_xyz
  'x, y, z'

loop_
  _atom_site_type_symbol
  _atom_site_label
  _atom_site_symmetry_multiplicity
  _atom_site_fract_x
  _atom_site_fract_y
  _atom_site_fract_z
  _atom_site_occupancy
  In  In1       1.0  0.24999998385001618  0.24999996447896897  0.2499999928119675  1.0000
  In  In2       1.0  0.7500000436367641  0.7500000263151583  0.7499999524744556  1.0000
  Y   Y1        1.0  0.9999998742868955  1.0596619541146046e-07  0.999999965926264  1.0000
  Se  Se1       1.0  0.2799429899062416  0.2799430111281654  0.7200570392451254  1.0000
  Se  Se2       1.0  0.7200570679197792  0.7200569409798931  0.27994305166973615  1.0000
  Se  Se3       1.0  0.7200571304323085  0.2799429258383619  0.2799429819853729  1.0000
  Se  Se4       1.0  0.2799429672478014  0.7200569875836232  0.7200570328112438  1.0000
  Se  Se5       1.0  0.2799429608017783  0.7200570248140137  0.27994297779939264  1.0000
  Se  Se6       1.0  0.720056990357336  0.2799430046661853  0.7200570055347247  1.0000
