data_image0
_chemical_formula_structural       In2YTe6
_chemical_formula_sum              "In2 Y1 Te6"
_cell_length_a       7.7254412659173335
_cell_length_b       7.725441078070245
_cell_length_c       7.7254411962924845
_cell_angle_alpha    59.99999993620025
_cell_angle_beta     60.000000367115035
_cell_angle_gamma    60.000000529085646

_space_group_name_H-M_alt    "P 1"
_space_group_IT_number       1

loop_
  _space_group_symop_operation_xyz
  'x, y, z'

loop_
  _atom_site_type_symbol
  _atom_site_label
  _atom_site_symmetry_multiplicity
  _atom_site_fract_x
  _atom_site_fract_y
  _atom_site_fract_z
  _atom_site_occupancy
  In  In1       1.0  0.2500000110790439  0.24999999457929772  0.2499999621331355  1.0000
  In  In2       1.0  0.750000006408136  0.7500000059326498  0.7500000362809136  1.0000
  Y   Y1        1.0  0.9999999672829811  1.7438737002074493e-08  5.682727020204738e-08  1.0000
  Te  Te1       1.0  0.27892573344125465  0.2789257382878081  0.7210742410993463  1.0000
  Te  Te2       1.0  0.7210742938895198  0.7210742685654983  0.27892570391737026  1.0000
  Te  Te3       1.0  0.7210742631844252  0.2789257433429721  0.27892574961071853  1.0000
  Te  Te4       1.0  0.27892574464049463  0.7210742413155781  0.721074266738857  1.0000
  Te  Te5       1.0  0.2789257136457663  0.7210742392133009  0.27892577898714294  1.0000
  Te  Te6       1.0  0.7210742721968441  0.2789257486159283  0.7210742040522411  1.0000
