data_image0
_chemical_formula_structural       In2YO6
_chemical_formula_sum              "In2 Y1 O6"
_cell_length_a       5.542620012166849
_cell_length_b       5.542620045940392
_cell_length_c       5.542619959116806
_cell_angle_alpha    59.99999969385965
_cell_angle_beta     59.99999909825493
_cell_angle_gamma    60.000001324984304

_space_group_name_H-M_alt    "P 1"
_space_group_IT_number       1

loop_
  _space_group_symop_operation_xyz
  'x, y, z'

loop_
  _atom_site_type_symbol
  _atom_site_label
  _atom_site_symmetry_multiplicity
  _atom_site_fract_x
  _atom_site_fract_y
  _atom_site_fract_z
  _atom_site_occupancy
  In  In1       1.0  0.24999995249548743  0.2500000209678187  0.24999995716679463  1.0000
  In  In2       1.0  0.7499999598468806  0.7499997933217926  0.750000169810916  1.0000
  Y   Y1        1.0  5.5408161227970306e-08  0.999999971274085  1.6347056616011271e-07  1.0000
  O   O1        1.0  0.27541083134493  0.2754109524451231  0.7245891671596695  1.0000
  O   O2        1.0  0.7245890951761023  0.7245891380552102  0.27541076590992153  1.0000
  O   O3        1.0  0.7245891429667244  0.2754109259332332  0.2754108479868379  1.0000
  O   O4        1.0  0.2754110114368952  0.7245890496634437  0.7245890718941081  1.0000
  O   O5        1.0  0.2754108707022024  0.7245891821643986  0.2754107959983045  1.0000
  O   O6        1.0  0.7245890927912649  0.2754109724168231  0.724589027005994  1.0000
