data_image0
_chemical_formula_structural       In2ZnS6
_chemical_formula_sum              "In2 Zn1 S6"
_cell_length_a       6.430034061914921
_cell_length_b       6.430033943470338
_cell_length_c       6.430034473045682
_cell_angle_alpha    60.00000038425342
_cell_angle_beta     60.000004039022755
_cell_angle_gamma    60.00000085204608

_space_group_name_H-M_alt    "P 1"
_space_group_IT_number       1

loop_
  _space_group_symop_operation_xyz
  'x, y, z'

loop_
  _atom_site_type_symbol
  _atom_site_label
  _atom_site_symmetry_multiplicity
  _atom_site_fract_x
  _atom_site_fract_y
  _atom_site_fract_z
  _atom_site_occupancy
  In  In1       1.0  0.2499998316047183  0.2500001134861473  0.24999992574570432  1.0000
  In  In2       1.0  0.7500004154270696  0.7499999652275512  0.7499997378263771  1.0000
  Zn  Zn1       1.0  1.2737685172358857e-07  0.999999849526701  3.6457899275416065e-07  1.0000
  S   S1        1.0  0.26095287635515124  0.2609533303330992  0.7390472612598205  1.0000
  S   S2        1.0  0.7390466286471302  0.7390470188516098  0.26095359454047407  1.0000
  S   S3        1.0  0.7390467993303287  0.2609531538125872  0.2609531693176961  1.0000
  S   S4        1.0  0.2609530107077342  0.7390468944255026  0.7390466097937082  1.0000
  S   S5        1.0  0.26095323120947433  0.7390467096508816  0.26095295450306266  1.0000
  S   S6        1.0  0.739047101211337  0.2609529404996049  0.7390464063196144  1.0000
