data_image0
_chemical_formula_structural       In2ZrO6
_chemical_formula_sum              "In2 Zr1 O6"
_cell_length_a       5.471432812755116
_cell_length_b       5.471432717401324
_cell_length_c       5.471433025279348
_cell_angle_alpha    59.99999317344538
_cell_angle_beta     59.9999958162989
_cell_angle_gamma    59.99999649371541

_space_group_name_H-M_alt    "P 1"
_space_group_IT_number       1

loop_
  _space_group_symop_operation_xyz
  'x, y, z'

loop_
  _atom_site_type_symbol
  _atom_site_label
  _atom_site_symmetry_multiplicity
  _atom_site_fract_x
  _atom_site_fract_y
  _atom_site_fract_z
  _atom_site_occupancy
  In  In1       1.0  0.2500000227126017  0.24999977002731688  0.2499999420756678  1.0000
  In  In2       1.0  0.7499993630971645  0.7500000196659907  0.7500004161219124  1.0000
  Zr  Zr1       1.0  1.1682286100888844e-08  0.9999999776156447  0.9999999998680109  1.0000
  O   O1        1.0  0.2647811045745269  0.26478079788052505  0.7352191234549084  1.0000
  O   O2        1.0  0.7352189701857215  0.7352192738556639  0.2647808991152939  1.0000
  O   O3        1.0  0.7352192418108088  0.2647809789476458  0.26478081779376866  1.0000
  O   O4        1.0  0.2647811042350038  0.735219032350785  0.7352191139739249  1.0000
  O   O5        1.0  0.2647811531164282  0.7352191991751885  0.26478068436733715  1.0000
  O   O6        1.0  0.7352190062506533  0.26478097329061107  0.7352190371797158  1.0000
