data_image0
_chemical_formula_structural       In2ZrSe6
_chemical_formula_sum              "In2 Zr1 Se6"
_cell_length_a       7.006968850997999
_cell_length_b       7.006968560160367
_cell_length_c       7.006968783571419
_cell_angle_alpha    59.99999978061859
_cell_angle_beta     59.999998121234015
_cell_angle_gamma    59.99999830043619

_space_group_name_H-M_alt    "P 1"
_space_group_IT_number       1

loop_
  _space_group_symop_operation_xyz
  'x, y, z'

loop_
  _atom_site_type_symbol
  _atom_site_label
  _atom_site_symmetry_multiplicity
  _atom_site_fract_x
  _atom_site_fract_y
  _atom_site_fract_z
  _atom_site_occupancy
  In  In1       1.0  0.2499999688835122  0.24999994302581072  0.2500000583434464  1.0000
  In  In2       1.0  0.7499999794393235  0.7500000161022498  0.7500000279977292  1.0000
  Zr  Zr1       1.0  0.999999980773147  5.768055293194223e-08  5.641213475642459e-08  1.0000
  Se  Se1       1.0  0.265223381678202  0.2652233420426597  0.7347766320460501  1.0000
  Se  Se2       1.0  0.734776625004838  0.7347766100938177  0.2652233900777468  1.0000
  Se  Se3       1.0  0.734776680225345  0.2652233329805953  0.26522327922281275  1.0000
  Se  Se4       1.0  0.26522332292760326  0.7347766890717005  0.7347766212247817  1.0000
  Se  Se5       1.0  0.2652233546318871  0.7347766597521392  0.2652233165106321  1.0000
  Se  Se6       1.0  0.7347767076638221  0.26522334307330664  0.7347766153564288  1.0000
