data_image0
_chemical_formula_structural       In2ZnO6
_chemical_formula_sum              "In2 Zn1 O6"
_cell_length_a       5.22435519385251
_cell_length_b       5.224355044223194
_cell_length_c       5.224355152347413
_cell_angle_alpha    59.99999916482854
_cell_angle_beta     59.99999994850721
_cell_angle_gamma    59.99999853746462

_space_group_name_H-M_alt    "P 1"
_space_group_IT_number       1

loop_
  _space_group_symop_operation_xyz
  'x, y, z'

loop_
  _atom_site_type_symbol
  _atom_site_label
  _atom_site_symmetry_multiplicity
  _atom_site_fract_x
  _atom_site_fract_y
  _atom_site_fract_z
  _atom_site_occupancy
  In  In1       1.0  0.25000015853890856  0.24999993445655577  0.24999976577344074  1.0000
  In  In2       1.0  0.7500000571867008  0.7500001104728035  0.7499998142847182  1.0000
  Zn  Zn1       1.0  7.119450969229193e-08  9.142765006752023e-08  0.9999998727502359  1.0000
  O   O1        1.0  0.2609307760928316  0.26093073332781125  0.7390693090034964  1.0000
  O   O2        1.0  0.7390690703909701  0.7390693186344464  0.2609308809201678  1.0000
  O   O3        1.0  0.7390692882127536  0.26093070930344814  0.2609307847265194  1.0000
  O   O4        1.0  0.26093072008877316  0.7390692020008846  0.7390693582491199  1.0000
  O   O5        1.0  0.2609306558379247  0.7390692467907122  0.2609308442466849  1.0000
  O   O6        1.0  0.7390691790163997  0.26093068092371285  0.7390693466217206  1.0000
