data_image0
_chemical_formula_structural       In2ZrTe6
_chemical_formula_sum              "In2 Zr1 Te6"
_cell_length_a       7.5163171435517695
_cell_length_b       7.5163169195885615
_cell_length_c       7.516317079637863
_cell_angle_alpha    59.999998756369564
_cell_angle_beta     59.999999608336736
_cell_angle_gamma    59.99999905834198

_space_group_name_H-M_alt    "P 1"
_space_group_IT_number       1

loop_
  _space_group_symop_operation_xyz
  'x, y, z'

loop_
  _atom_site_type_symbol
  _atom_site_label
  _atom_site_symmetry_multiplicity
  _atom_site_fract_x
  _atom_site_fract_y
  _atom_site_fract_z
  _atom_site_occupancy
  In  In1       1.0  0.24999993995868747  0.2500001143697279  0.24999993597817993  1.0000
  In  In2       1.0  0.7500000778505421  0.7499999194526576  0.7499999905584748  1.0000
  Zr  Zr1       1.0  0.9999999804945903  0.9999999755582778  0.9999998689731022  1.0000
  Te  Te1       1.0  0.26875992470783094  0.2687599104099327  0.7312400627314378  1.0000
  Te  Te2       1.0  0.7312401308875086  0.7312401022296263  0.2687599073906889  1.0000
  Te  Te3       1.0  0.7312400329611052  0.2687599744037186  0.26875993321116964  1.0000
  Te  Te4       1.0  0.26875987069905205  0.7312400838603886  0.7312401978318186  1.0000
  Te  Te5       1.0  0.2687599192341571  0.7312400121863166  0.2687599330679521  1.0000
  Te  Te6       1.0  0.7312401304504951  0.268759907574696  0.7312401755881928  1.0000
