data_image0
_chemical_formula_structural       In2ZnTe6
_chemical_formula_sum              "In2 Zn1 Te6"
_cell_length_a       7.302751591550586
_cell_length_b       7.302751361919597
_cell_length_c       7.302751263087111
_cell_angle_alpha    60.00000170815631
_cell_angle_beta     60.0000023220189
_cell_angle_gamma    59.99999864847204

_space_group_name_H-M_alt    "P 1"
_space_group_IT_number       1

loop_
  _space_group_symop_operation_xyz
  'x, y, z'

loop_
  _atom_site_type_symbol
  _atom_site_label
  _atom_site_symmetry_multiplicity
  _atom_site_fract_x
  _atom_site_fract_y
  _atom_site_fract_z
  _atom_site_occupancy
  In  In1       1.0  0.24999997818383538  0.2500000254273348  0.24999999646319426  1.0000
  In  In2       1.0  0.7500000285457742  0.7499999840414692  0.7499999830353286  1.0000
  Zn  Zn1       1.0  0.9999999239742638  6.205272340169769e-08  0.9999999700141394  1.0000
  Te  Te1       1.0  0.26882210104330573  0.26882217917089  0.7311778692030476  1.0000
  Te  Te2       1.0  0.7311778972213425  0.7311778319750151  0.2688221355989559  1.0000
  Te  Te3       1.0  0.7311779565281514  0.2688221456081984  0.26882215717845925  1.0000
  Te  Te4       1.0  0.2688220798137799  0.731177803484984  0.7311778719353861  1.0000
  Te  Te5       1.0  0.26882208796127915  0.7311778100754768  0.2688222538711606  1.0000
  Te  Te6       1.0  0.7311779433493499  0.26882215411161103  0.7311777661033423  1.0000
