data_image0
_chemical_formula_structural       In2ZrS6
_chemical_formula_sum              "In2 Zr1 S6"
_cell_length_a       6.6834312113268455
_cell_length_b       6.683430871954744
_cell_length_c       6.683430813130716
_cell_angle_alpha    60.00000215036712
_cell_angle_beta     60.00000023698585
_cell_angle_gamma    60.0000004042387

_space_group_name_H-M_alt    "P 1"
_space_group_IT_number       1

loop_
  _space_group_symop_operation_xyz
  'x, y, z'

loop_
  _atom_site_type_symbol
  _atom_site_label
  _atom_site_symmetry_multiplicity
  _atom_site_fract_x
  _atom_site_fract_y
  _atom_site_fract_z
  _atom_site_occupancy
  In  In1       1.0  0.24999998581249253  0.2500000437189474  0.24999998299249676  1.0000
  In  In2       1.0  0.7500000063223714  0.7499999534034504  0.7499999894719357  1.0000
  Zr  Zr1       1.0  4.97351265413729e-09  1.0995054979406642e-08  0.9999999860307661  1.0000
  S   S1        1.0  0.26477641962932136  0.26477644959229363  0.7352235831263962  1.0000
  S   S2        1.0  0.7352236482281852  0.7352235328700322  0.26477641416753817  1.0000
  S   S3        1.0  0.7352236169650185  0.26477641812851  0.2647763919632721  1.0000
  S   S4        1.0  0.2647764416431229  0.7352235661663228  0.7352235297385027  1.0000
  S   S5        1.0  0.2647763876531589  0.7352235091883673  0.2647765486760984  1.0000
  S   S6        1.0  0.7352235056880416  0.26477650442661554  0.7352235577056015  1.0000
