data_image0
_chemical_formula_structural       In2ZnSe6
_chemical_formula_sum              "In2 Zn1 Se6"
_cell_length_a       6.569604987377242
_cell_length_b       6.569604995816804
_cell_length_c       6.5696049705146615
_cell_angle_alpha    60.00000195074331
_cell_angle_beta     59.99999758818712
_cell_angle_gamma    60.000002588489004

_space_group_name_H-M_alt    "P 1"
_space_group_IT_number       1

loop_
  _space_group_symop_operation_xyz
  'x, y, z'

loop_
  _atom_site_type_symbol
  _atom_site_label
  _atom_site_symmetry_multiplicity
  _atom_site_fract_x
  _atom_site_fract_y
  _atom_site_fract_z
  _atom_site_occupancy
  In  In1       1.0  0.24999998360980635  0.2500000750775647  0.2499999000865288  1.0000
  In  In2       1.0  0.7499999660481819  0.7500000108428618  0.7500000053369253  1.0000
  Zn  Zn1       1.0  9.324954235283466e-08  0.9999996569762669  3.5168915791226534e-07  1.0000
  Se  Se1       1.0  0.2833165794769158  0.2833164619821212  0.7166835295038151  1.0000
  Se  Se2       1.0  0.7166836748377579  0.7166836854588787  0.28331632221473546  1.0000
  Se  Se3       1.0  0.7166836811726026  0.28331624713589326  0.283316483319119  1.0000
  Se  Se4       1.0  0.2833164018408062  0.7166835125391398  0.7166838564691761  1.0000
  Se  Se5       1.0  0.2833161216959486  0.7166838742090521  0.28331615771534996  1.0000
  Se  Se6       1.0  0.7166834995450784  0.28331647457194054  0.7166833953794429  1.0000
