data_image0
_chemical_formula_structural       Ir2CN6
_chemical_formula_sum              "Ir2 C1 N6"
_cell_length_a       4.863184114339111
_cell_length_b       4.863184079130328
_cell_length_c       4.863183901887845
_cell_angle_alpha    60.000000940587555
_cell_angle_beta     60.00000158455445
_cell_angle_gamma    60.00000173982657

_space_group_name_H-M_alt    "P 1"
_space_group_IT_number       1

loop_
  _space_group_symop_operation_xyz
  'x, y, z'

loop_
  _atom_site_type_symbol
  _atom_site_label
  _atom_site_symmetry_multiplicity
  _atom_site_fract_x
  _atom_site_fract_y
  _atom_site_fract_z
  _atom_site_occupancy
  Ir  Ir1       1.0  0.250000033486759  0.2500012769470567  0.24999926621360943  1.0000
  Ir  Ir2       1.0  0.7499993028169581  0.7500009170509839  0.7499997530583566  1.0000
  C   C1        1.0  0.9999995523254356  1.2717925948790257e-06  0.9999995344780642  1.0000
  N   N1        1.0  0.234760867584951  0.23476024090225545  0.7652394657080568  1.0000
  N   N2        1.0  0.7652393303374249  0.7652385633277948  0.23476109729076708  1.0000
  N   N3        1.0  0.7652392353644534  0.2347602385317677  0.23476091239687435  1.0000
  N   N4        1.0  0.2347612490173914  0.7652385682166882  0.7652393066552045  1.0000
  N   N5        1.0  0.23476125268435702  0.7652385549795916  0.2347609474617786  1.0000
  N   N6        1.0  0.7652391820496156  0.23476036509691547  0.7652397168039363  1.0000
