data_image0
_chemical_formula_structural       Ir2CrN6
_chemical_formula_sum              "Ir2 Cr1 N6"
_cell_length_a       5.076542558308696
_cell_length_b       5.076542726480543
_cell_length_c       5.076542715191281
_cell_angle_alpha    60.00000029009178
_cell_angle_beta     60.000000463288025
_cell_angle_gamma    59.99999983940447

_space_group_name_H-M_alt    "P 1"
_space_group_IT_number       1

loop_
  _space_group_symop_operation_xyz
  'x, y, z'

loop_
  _atom_site_type_symbol
  _atom_site_label
  _atom_site_symmetry_multiplicity
  _atom_site_fract_x
  _atom_site_fract_y
  _atom_site_fract_z
  _atom_site_occupancy
  Ir  Ir1       1.0  0.2500003903302883  0.2499995860760364  0.24999951317599547  1.0000
  Ir  Ir2       1.0  0.7500003567971929  0.7499992696901986  0.7499994768617451  1.0000
  Cr  Cr1       1.0  0.9999999247771908  4.825114052595056e-08  7.652085916396221e-08  1.0000
  N   N1        1.0  0.26156155538053766  0.2615619423098396  0.7384384465415922  1.0000
  N   N2        1.0  0.7384381300649664  0.7384385153942469  0.26156201077109487  1.0000
  N   N3        1.0  0.738438271103088  0.26156187047969137  0.26156170878177804  1.0000
  N   N4        1.0  0.2615617752242787  0.7384383097803379  0.7384383364812346  1.0000
  N   N5        1.0  0.2615615249365529  0.7384384319146211  0.2615619384027868  1.0000
  N   N6        1.0  0.7384380616218444  0.26156204267736555  0.7384384949046323  1.0000
