data_image0
_chemical_formula_structural       Ir2CoN6
_chemical_formula_sum              "Ir2 Co1 N6"
_cell_length_a       5.074694175490668
_cell_length_b       5.074694115172303
_cell_length_c       5.0746941996682615
_cell_angle_alpha    59.99999775135042
_cell_angle_beta     59.99999927288977
_cell_angle_gamma    59.99999896368152

_space_group_name_H-M_alt    "P 1"
_space_group_IT_number       1

loop_
  _space_group_symop_operation_xyz
  'x, y, z'

loop_
  _atom_site_type_symbol
  _atom_site_label
  _atom_site_symmetry_multiplicity
  _atom_site_fract_x
  _atom_site_fract_y
  _atom_site_fract_z
  _atom_site_occupancy
  Ir  Ir1       1.0  0.25000037479169945  0.25000082688722075  0.2499994697906731  1.0000
  Ir  Ir2       1.0  0.7500002262833959  0.7500008129774313  0.7500004095446113  1.0000
  Co  Co1       1.0  1.5766155278488187e-08  4.826871754912424e-08  1.1334928843384353e-08  1.0000
  N   N1        1.0  0.25861990244808675  0.2586195986473591  0.7413801327640063  1.0000
  N   N2        1.0  0.7413801381280821  0.7413800911611036  0.2586192953420948  1.0000
  N   N3        1.0  0.7413800316713092  0.2586195591392827  0.25861999240740047  1.0000
  N   N4        1.0  0.258619496874889  0.7413797758940878  0.7413805134750419  1.0000
  N   N5        1.0  0.2586197823773332  0.7413798082813844  0.2586198543683767  1.0000
  N   N6        1.0  0.7413800118869898  0.25861947365640076  0.7413803382937764  1.0000
