data_image0
_chemical_formula_structural       Ir2GeN6
_chemical_formula_sum              "Ir2 Ge1 N6"
_cell_length_a       5.101844748626138
_cell_length_b       5.101844867148909
_cell_length_c       5.101845153378626
_cell_angle_alpha    60.000000464421426
_cell_angle_beta     60.00000059584661
_cell_angle_gamma    60.00000434061183

_space_group_name_H-M_alt    "P 1"
_space_group_IT_number       1

loop_
  _space_group_symop_operation_xyz
  'x, y, z'

loop_
  _atom_site_type_symbol
  _atom_site_label
  _atom_site_symmetry_multiplicity
  _atom_site_fract_x
  _atom_site_fract_y
  _atom_site_fract_z
  _atom_site_occupancy
  Ir  Ir1       1.0  0.25000066163126483  0.2500002514937434  0.24999940362874853  1.0000
  Ir  Ir2       1.0  0.7499997640789426  0.7500002671609387  0.7499992101801489  1.0000
  Ge  Ge1       1.0  0.9999999320538928  8.162012822607606e-08  0.9999999794424631  1.0000
  N   N1        1.0  0.26098092840719933  0.2609809201396653  0.7390191977165147  1.0000
  N   N2        1.0  0.7390187120792748  0.7390193536546119  0.2609814011908051  1.0000
  N   N3        1.0  0.7390189744329535  0.26098066993901015  0.26098123043096283  1.0000
  N   N4        1.0  0.26098112359744713  0.739018754045682  0.7390193960427179  1.0000
  N   N5        1.0  0.26098092874834333  0.7390187352855824  0.26098096841925816  1.0000
  N   N6        1.0  0.7390189272186559  0.2609809599660007  0.7390192357570416  1.0000
