data_image0
_chemical_formula_structural       Ir2MnN6
_chemical_formula_sum              "Ir2 Mn1 N6"
_cell_length_a       4.9072619481883
_cell_length_b       4.9072620359335355
_cell_length_c       4.9072621942223735
_cell_angle_alpha    59.99999721182409
_cell_angle_beta     60.00000077614448
_cell_angle_gamma    60.000002161842175

_space_group_name_H-M_alt    "P 1"
_space_group_IT_number       1

loop_
  _space_group_symop_operation_xyz
  'x, y, z'

loop_
  _atom_site_type_symbol
  _atom_site_label
  _atom_site_symmetry_multiplicity
  _atom_site_fract_x
  _atom_site_fract_y
  _atom_site_fract_z
  _atom_site_occupancy
  Ir  Ir1       1.0  0.25000001964307156  0.25000006191248925  0.2499999509699873  1.0000
  Ir  Ir2       1.0  0.7500000257990754  0.750000030999075  0.7499999509198219  1.0000
  Mn  Mn1       1.0  2.1571354917496134e-09  3.394261505570372e-07  0.9999997843768373  1.0000
  N   N1        1.0  0.26075505194479004  0.260755012557974  0.7392450192391508  1.0000
  N   N2        1.0  0.739244830595037  0.7392448207924092  0.26075517539425525  1.0000
  N   N3        1.0  0.7392447058062567  0.2607552410635016  0.260755326027125  1.0000
  N   N4        1.0  0.2607554009864623  0.739244554850185  0.7392446651571959  1.0000
  N   N5        1.0  0.2607551679229672  0.7392447882169517  0.2607552757969357  1.0000
  N   N6        1.0  0.7392447722765951  0.2607551474604334  0.7392448734856358  1.0000
