data_image0
_chemical_formula_structural       Ir2PdN6
_chemical_formula_sum              "Ir2 Pd1 N6"
_cell_length_a       5.064039033004743
_cell_length_b       5.06403901705786
_cell_length_c       5.064038918267474
_cell_angle_alpha    60.000000483337566
_cell_angle_beta     59.99999996294109
_cell_angle_gamma    60.00000006892376

_space_group_name_H-M_alt    "P 1"
_space_group_IT_number       1

loop_
  _space_group_symop_operation_xyz
  'x, y, z'

loop_
  _atom_site_type_symbol
  _atom_site_label
  _atom_site_symmetry_multiplicity
  _atom_site_fract_x
  _atom_site_fract_y
  _atom_site_fract_z
  _atom_site_occupancy
  Ir  Ir1       1.0  0.24999984208986814  0.2500000581339584  0.24999998902574355  1.0000
  Ir  Ir2       1.0  0.7499999004551148  0.7500000026873894  0.7500000238183855  1.0000
  Pd  Pd1       1.0  0.9999999701045397  0.9999999733963473  0.9999999907300978  1.0000
  N   N1        1.0  0.2770155052481974  0.27701535934925037  0.7229845798805397  1.0000
  N   N2        1.0  0.7229845669611665  0.7229845128280143  0.27701546908769037  1.0000
  N   N3        1.0  0.7229847074119108  0.2770154818613961  0.2770154003124059  1.0000
  N   N4        1.0  0.2770155484539758  0.7229845644488679  0.7229845250528957  1.0000
  N   N5        1.0  0.2770154160135609  0.7229845687793438  0.27701546911290087  1.0000
  N   N6        1.0  0.7229845486549953  0.2770154823679482  0.7229845441407196  1.0000
