data_image0
_chemical_formula_structural       Ir2PN6
_chemical_formula_sum              "Ir2 P1 N6"
_cell_length_a       5.045146967068665
_cell_length_b       5.045146913549725
_cell_length_c       5.045146930232038
_cell_angle_alpha    60.000000430489116
_cell_angle_beta     60.000000901025885
_cell_angle_gamma    60.000000108432715

_space_group_name_H-M_alt    "P 1"
_space_group_IT_number       1

loop_
  _space_group_symop_operation_xyz
  'x, y, z'

loop_
  _atom_site_type_symbol
  _atom_site_label
  _atom_site_symmetry_multiplicity
  _atom_site_fract_x
  _atom_site_fract_y
  _atom_site_fract_z
  _atom_site_occupancy
  Ir  Ir1       1.0  0.25000015670502695  0.2500002993312565  0.24999973557391458  1.0000
  Ir  Ir2       1.0  0.7500001345598409  0.7500002911012011  0.7499997929076077  1.0000
  P   P1        1.0  1.1721346248496207e-08  0.9999999854345785  3.511778573106761e-08  1.0000
  N   N1        1.0  0.24621536186564225  0.24621533553155692  0.7537846257377193  1.0000
  N   N2        1.0  0.7537846309040735  0.7537845848915045  0.24621532158667966  1.0000
  N   N3        1.0  0.7537845211636268  0.2462152321837611  0.24621550339048506  1.0000
  N   N4        1.0  0.24621533995039904  0.7537844309168518  0.7537848128480302  1.0000
  N   N5        1.0  0.24621529874271547  0.7537845650193095  0.2462154853842381  1.0000
  N   N6        1.0  0.753784581395099  0.24621526072851152  0.7537846587525637  1.0000
