data_image0
_chemical_formula_structural       Ir2RhN6
_chemical_formula_sum              "Ir2 Rh1 N6"
_cell_length_a       5.033710619078509
_cell_length_b       5.033710736401715
_cell_length_c       5.033710766152734
_cell_angle_alpha    60.0000013689133
_cell_angle_beta     60.000000452255925
_cell_angle_gamma    60.000000560575835

_space_group_name_H-M_alt    "P 1"
_space_group_IT_number       1

loop_
  _space_group_symop_operation_xyz
  'x, y, z'

loop_
  _atom_site_type_symbol
  _atom_site_label
  _atom_site_symmetry_multiplicity
  _atom_site_fract_x
  _atom_site_fract_y
  _atom_site_fract_z
  _atom_site_occupancy
  Ir  Ir1       1.0  0.24999998991458708  0.2500000148711751  0.2500003304223394  1.0000
  Ir  Ir2       1.0  0.7499999737750145  0.7500000738105328  0.7499994966180256  1.0000
  Rh  Rh1       1.0  2.738807050955668e-08  7.299256318903951e-09  0.9999999866295489  1.0000
  N   N1        1.0  0.27623558852784097  0.27623538798260294  0.723764421393261  1.0000
  N   N2        1.0  0.7237646089842134  0.7237645084853559  0.2762358417621318  1.0000
  N   N3        1.0  0.7237644234713894  0.2762353311523915  0.2762355098655815  1.0000
  N   N4        1.0  0.27623548523539304  0.723764633441957  0.7237643947902347  1.0000
  N   N5        1.0  0.2762353818372387  0.7237645184155984  0.2762355011150694  1.0000
  N   N6        1.0  0.7237645289765814  0.27623553620291497  0.7237645164036264  1.0000
