data_image0
_chemical_formula_structural       Ir2RuN6
_chemical_formula_sum              "Ir2 Ru1 N6"
_cell_length_a       5.068080392962999
_cell_length_b       5.068080507032248
_cell_length_c       5.06808062097412
_cell_angle_alpha    59.999998975465026
_cell_angle_beta     59.99999859233111
_cell_angle_gamma    60.00000017961096

_space_group_name_H-M_alt    "P 1"
_space_group_IT_number       1

loop_
  _space_group_symop_operation_xyz
  'x, y, z'

loop_
  _atom_site_type_symbol
  _atom_site_label
  _atom_site_symmetry_multiplicity
  _atom_site_fract_x
  _atom_site_fract_y
  _atom_site_fract_z
  _atom_site_occupancy
  Ir  Ir1       1.0  0.2499990586010205  0.25000183247780533  0.2500001380336654  1.0000
  Ir  Ir2       1.0  0.7500001410066731  0.7500002244443494  0.7499998947764708  1.0000
  Ru  Ru1       1.0  0.9999999221679337  0.9999999395853678  0.9999999645472702  1.0000
  N   N1        1.0  0.2640250170988092  0.26402487165857386  0.7359751102772663  1.0000
  N   N2        1.0  0.735975651902464  0.7359744448558785  0.26402527785497126  1.0000
  N   N3        1.0  0.735974963857933  0.26402497452681417  0.26402478475623664  1.0000
  N   N4        1.0  0.2640245873950897  0.7359748108051783  0.7359753556326196  1.0000
  N   N5        1.0  0.264025047995045  0.7359741865557627  0.26402483744099586  1.0000
  N   N6        1.0  0.7359755996559959  0.26402473605529214  0.735974617846855  1.0000
