data_image0
_chemical_formula_structural       Ir2SiN6
_chemical_formula_sum              "Ir2 Si1 N6"
_cell_length_a       5.051203667030406
_cell_length_b       5.05120366448322
_cell_length_c       5.0512038504680525
_cell_angle_alpha    60.00000018511534
_cell_angle_beta     59.99999878638105
_cell_angle_gamma    60.000000202966824

_space_group_name_H-M_alt    "P 1"
_space_group_IT_number       1

loop_
  _space_group_symop_operation_xyz
  'x, y, z'

loop_
  _atom_site_type_symbol
  _atom_site_label
  _atom_site_symmetry_multiplicity
  _atom_site_fract_x
  _atom_site_fract_y
  _atom_site_fract_z
  _atom_site_occupancy
  Ir  Ir1       1.0  0.24999990619987775  0.24999983059338812  0.2500001688299834  1.0000
  Ir  Ir2       1.0  0.7500000114715637  0.7500001973560609  0.7499998766041227  1.0000
  Si  Si1       1.0  0.9999999876469486  0.9999999684794274  3.5794894210936764e-08  1.0000
  N   N1        1.0  0.25641212394392826  0.2564120978009494  0.74358790162867  1.0000
  N   N2        1.0  0.7435879770941636  0.7435877846689334  0.25641210110517965  1.0000
  N   N3        1.0  0.7435878548367432  0.25641202779756234  0.2564122044786981  1.0000
  N   N4        1.0  0.25641216205540324  0.7435880316724591  0.743587734010522  1.0000
  N   N5        1.0  0.256412004409677  0.7435880384487541  0.2564122008480957  1.0000
  N   N6        1.0  0.7435879491680675  0.25641198465137577  0.7435877993616274  1.0000
