data_image0
_chemical_formula_structural       Ir2SN6
_chemical_formula_sum              "Ir2 S1 N6"
_cell_length_a       5.010685768714832
_cell_length_b       5.010685751553651
_cell_length_c       5.010685732603522
_cell_angle_alpha    60.00000031074843
_cell_angle_beta     59.9999995064075
_cell_angle_gamma    59.99999962127953

_space_group_name_H-M_alt    "P 1"
_space_group_IT_number       1

loop_
  _space_group_symop_operation_xyz
  'x, y, z'

loop_
  _atom_site_type_symbol
  _atom_site_label
  _atom_site_symmetry_multiplicity
  _atom_site_fract_x
  _atom_site_fract_y
  _atom_site_fract_z
  _atom_site_occupancy
  Ir  Ir1       1.0  0.25000008755390224  0.24999995039256645  0.24999994880081663  1.0000
  Ir  Ir2       1.0  0.7499997425010961  0.749999897618755  0.750000011415777  1.0000
  S   S1        1.0  0.9999998979520719  0.9999999535589469  5.827861255827831e-08  1.0000
  N   N1        1.0  0.24137447046948932  0.24137429712308472  0.7586256146874722  1.0000
  N   N2        1.0  0.7586256051379482  0.7586256853228653  0.2413744369341961  1.0000
  N   N3        1.0  0.7586256532668809  0.24137442064805467  0.24137433351978127  1.0000
  N   N4        1.0  0.24137447664546888  0.7586256546800021  0.7586256125766203  1.0000
  N   N5        1.0  0.24137448239483572  0.758625635050861  0.24137433130743327  1.0000
  N   N6        1.0  0.7586255890428877  0.2413745258265054  0.758625659127937  1.0000
