data_image0
_chemical_formula_structural       Ir2SeN6
_chemical_formula_sum              "Ir2 Se1 N6"
_cell_length_a       4.7783206547784
_cell_length_b       4.778320072342195
_cell_length_c       4.778319585110128
_cell_angle_alpha    59.999989645096186
_cell_angle_beta     60.000006557390535
_cell_angle_gamma    60.00000219951008

_space_group_name_H-M_alt    "P 1"
_space_group_IT_number       1

loop_
  _space_group_symop_operation_xyz
  'x, y, z'

loop_
  _atom_site_type_symbol
  _atom_site_label
  _atom_site_symmetry_multiplicity
  _atom_site_fract_x
  _atom_site_fract_y
  _atom_site_fract_z
  _atom_site_occupancy
  Ir  Ir1       1.0  0.24999975082643508  0.2500008921870921  0.25000047497704275  1.0000
  Ir  Ir2       1.0  0.7499993077629463  0.7500014667646546  0.7500007381450415  1.0000
  Se  Se1       1.0  1.1372828451554907e-07  0.9999997385609211  0.9999997222673872  1.0000
  N   N1        1.0  0.27577369438859  0.27577303033871237  0.7242264638793673  1.0000
  N   N2        1.0  0.7242269399079111  0.7242264066466345  0.27577314960712934  1.0000
  N   N3        1.0  0.7242266339890796  0.27577331688788365  0.2757730562911389  1.0000
  N   N4        1.0  0.2757732412830912  0.7242267660058915  0.7242264274952988  1.0000
  N   N5        1.0  0.27577420075272085  0.7242258347388775  0.27577339935177564  1.0000
  N   N6        1.0  0.7242262814777831  0.2757732972341886  0.7242260010960613  1.0000
