data_image0
_chemical_formula_structural       Ir2VN6
_chemical_formula_sum              "Ir2 V1 N6"
_cell_length_a       5.043035035915277
_cell_length_b       5.043034752716493
_cell_length_c       5.043034722620482
_cell_angle_alpha    59.99999906212227
_cell_angle_beta     59.999999258496416
_cell_angle_gamma    59.99999906760898

_space_group_name_H-M_alt    "P 1"
_space_group_IT_number       1

loop_
  _space_group_symop_operation_xyz
  'x, y, z'

loop_
  _atom_site_type_symbol
  _atom_site_label
  _atom_site_symmetry_multiplicity
  _atom_site_fract_x
  _atom_site_fract_y
  _atom_site_fract_z
  _atom_site_occupancy
  Ir  Ir1       1.0  0.25000072255561545  0.2499997131298442  0.24999974869058014  1.0000
  Ir  Ir2       1.0  0.7500002809272234  0.7499996615357343  0.750000523248388  1.0000
  V   V1        1.0  5.143674602938413e-08  2.4285870871925927e-08  0.9999999482581592  1.0000
  N   N1        1.0  0.2657359273639699  0.2657363805903001  0.7342638019141149  1.0000
  N   N2        1.0  0.7342636641233876  0.734264035939115  0.26573590157615445  1.0000
  N   N3        1.0  0.7342637003136997  0.2657362433997613  0.26573612211054737  1.0000
  N   N4        1.0  0.2657360523611557  0.7342637651270302  0.7342638693707243  1.0000
  N   N5        1.0  0.2657361419669294  0.7342637832059095  0.2657360817411034  1.0000
  N   N6        1.0  0.7342634853500836  0.26573639532197446  0.7342639627699987  1.0000
