data_image0
_chemical_formula_structural       K2CO6
_chemical_formula_sum              "K2 C1 O6"
_cell_length_a       5.275636757112699
_cell_length_b       5.275636988616281
_cell_length_c       5.275637358559769
_cell_angle_alpha    60.0000014164767
_cell_angle_beta     59.99999312545686
_cell_angle_gamma    59.999997540036325

_space_group_name_H-M_alt    "P 1"
_space_group_IT_number       1

loop_
  _space_group_symop_operation_xyz
  'x, y, z'

loop_
  _atom_site_type_symbol
  _atom_site_label
  _atom_site_symmetry_multiplicity
  _atom_site_fract_x
  _atom_site_fract_y
  _atom_site_fract_z
  _atom_site_occupancy
  K   K1        1.0  0.25000009056364453  0.24999993284578859  0.25000000668697453  1.0000
  K   K2        1.0  0.7499999934512865  0.7500000422960176  0.7500001263901963  1.0000
  C   C1        1.0  9.823565755001539e-08  0.9999995542699048  0.9999999823011413  1.0000
  O   O1        1.0  0.20481540286467287  0.20481548108692652  0.7951845062025913  1.0000
  O   O2        1.0  0.7951845352100758  0.7951846101304121  0.2048153783316369  1.0000
  O   O3        1.0  0.7951847351274722  0.20481543744442451  0.20481520320471477  1.0000
  O   O4        1.0  0.20481519171524573  0.7951847071676686  0.7951847474414095  1.0000
  O   O5        1.0  0.20481517100909002  0.7951846473822208  0.20481544303417423  1.0000
  O   O6        1.0  0.7951847591945146  0.2048154740147638  0.7951845194345657  1.0000
