data_image0
_chemical_formula_structural       K2CoSe6
_chemical_formula_sum              "K2 Co1 Se6"
_cell_length_a       6.653122129854574
_cell_length_b       6.6531218985284735
_cell_length_c       6.653121314773459
_cell_angle_alpha    60.0000016568948
_cell_angle_beta     59.99999719015654
_cell_angle_gamma    59.99999786879801

_space_group_name_H-M_alt    "P 1"
_space_group_IT_number       1

loop_
  _space_group_symop_operation_xyz
  'x, y, z'

loop_
  _atom_site_type_symbol
  _atom_site_label
  _atom_site_symmetry_multiplicity
  _atom_site_fract_x
  _atom_site_fract_y
  _atom_site_fract_z
  _atom_site_occupancy
  K   K1        1.0  0.25000003913963653  0.2499999976695292  0.24999999222098174  1.0000
  K   K2        1.0  0.7499999878642538  0.7499999911677331  0.7500000348454375  1.0000
  Co  Co1       1.0  3.3414531583905205e-07  0.9999998306411082  0.999999490739462  1.0000
  Se  Se1       1.0  0.24851966940366008  0.24851967445929177  0.7514803617233985  1.0000
  Se  Se2       1.0  0.7514801510484982  0.7514803456725512  0.24851981309376342  1.0000
  Se  Se3       1.0  0.7514803020712578  0.24851957036102368  0.24851980504841234  1.0000
  Se  Se4       1.0  0.24851957765216384  0.751480527086829  0.7514803691125351  1.0000
  Se  Se5       1.0  0.24851960414051658  0.7514804530343986  0.24851964835358076  1.0000
  Se  Se6       1.0  0.7514803376606222  0.24851963520916542  0.7514804572851399  1.0000
