data_image0
_chemical_formula_structural       K2CoTe6
_chemical_formula_sum              "K2 Co1 Te6"
_cell_length_a       7.518413933430192
_cell_length_b       7.51841284914544
_cell_length_c       7.518421755080427
_cell_angle_alpha    59.99996130976292
_cell_angle_beta     59.99996926628081
_cell_angle_gamma    59.99991821001475

_space_group_name_H-M_alt    "P 1"
_space_group_IT_number       1

loop_
  _space_group_symop_operation_xyz
  'x, y, z'

loop_
  _atom_site_type_symbol
  _atom_site_label
  _atom_site_symmetry_multiplicity
  _atom_site_fract_x
  _atom_site_fract_y
  _atom_site_fract_z
  _atom_site_occupancy
  K   K1        1.0  0.2500003603362646  0.2500004613920047  0.24999948163460262  1.0000
  K   K2        1.0  0.749999954174285  0.7499996411521428  0.7500002988038696  1.0000
  Co  Co1       1.0  0.9999991610243072  0.9999996188157076  8.947141728971491e-07  1.0000
  Te  Te1       1.0  0.2257865836569525  0.22578551326033747  0.7742137385280838  1.0000
  Te  Te2       1.0  0.7742137527118992  0.7742145974287697  0.22578619050692283  1.0000
  Te  Te3       1.0  0.7742162820943712  0.2257840271721319  0.2257868105036881  1.0000
  Te  Te4       1.0  0.22578412464603673  0.7742159369073909  0.77421282014354  1.0000
  Te  Te5       1.0  0.22578346455287027  0.7742158795592727  0.22578709898725832  1.0000
  Te  Te6       1.0  0.7742163308148646  0.2257842783710279  0.7742126300253919  1.0000
