data_image0
_chemical_formula_structural       K2CoO6
_chemical_formula_sum              "K2 Co1 O6"
_cell_length_a       6.0654410295117795
_cell_length_b       6.065441105210252
_cell_length_c       6.065441098631884
_cell_angle_alpha    59.999999915090086
_cell_angle_beta     59.999998780138206
_cell_angle_gamma    60.00000109121844

_space_group_name_H-M_alt    "P 1"
_space_group_IT_number       1

loop_
  _space_group_symop_operation_xyz
  'x, y, z'

loop_
  _atom_site_type_symbol
  _atom_site_label
  _atom_site_symmetry_multiplicity
  _atom_site_fract_x
  _atom_site_fract_y
  _atom_site_fract_z
  _atom_site_occupancy
  K   K1        1.0  0.2500000206223601  0.24999993162466563  0.25000001392508875  1.0000
  K   K2        1.0  0.7500000388637329  0.7500000694876621  0.7499999258622154  1.0000
  Co  Co1       1.0  2.523524470976377e-07  0.9999999111544053  0.9999997682162637  1.0000
  O   O1        1.0  0.2063897413023521  0.20638976143026494  0.7936103050600755  1.0000
  O   O2        1.0  0.7936101723284898  0.7936101346827183  0.20638981620980773  1.0000
  O   O3        1.0  0.7936101228916063  0.20638984313419936  0.2063899165049175  1.0000
  O   O4        1.0  0.2063896368003208  0.7936103720152465  0.7936103348965201  1.0000
  O   O5        1.0  0.20638991182415406  0.7936101387388825  0.20638976038433782  1.0000
  O   O6        1.0  0.793610154739109  0.20638982400830067  0.7936101422890431  1.0000
