data_image0
_chemical_formula_structural       K2CoS6
_chemical_formula_sum              "K2 Co1 S6"
_cell_length_a       6.398955420229332
_cell_length_b       6.398955388966518
_cell_length_c       6.398955711880725
_cell_angle_alpha    59.99999935268993
_cell_angle_beta     59.99999920124656
_cell_angle_gamma    60.00000277587666

_space_group_name_H-M_alt    "P 1"
_space_group_IT_number       1

loop_
  _space_group_symop_operation_xyz
  'x, y, z'

loop_
  _atom_site_type_symbol
  _atom_site_label
  _atom_site_symmetry_multiplicity
  _atom_site_fract_x
  _atom_site_fract_y
  _atom_site_fract_z
  _atom_site_occupancy
  K   K1        1.0  0.24999995840960473  0.24999992648318892  0.2500000114503059  1.0000
  K   K2        1.0  0.750000026110454  0.7500000684599879  0.7499999831824298  1.0000
  Co  Co1       1.0  0.9999993161578407  2.488168871502753e-07  2.4095395929925474e-07  1.0000
  S   S1        1.0  0.24149659548158445  0.24149653798304557  0.7585034189426704  1.0000
  S   S2        1.0  0.7585036041008232  0.7585036292180012  0.24149630858047366  1.0000
  S   S3        1.0  0.7585033808773206  0.24149662974561584  0.24149645467053532  1.0000
  S   S4        1.0  0.24149666752940596  0.758503390079254  0.7585034377560858  1.0000
  S   S5        1.0  0.24149695475316588  0.7585031615391656  0.24149666716464463  1.0000
  S   S6        1.0  0.758503511541032  0.24149651951192574  0.7585034357459287  1.0000
