data_image0
_chemical_formula_structural       K2CrSe6
_chemical_formula_sum              "K2 Cr1 Se6"
_cell_length_a       6.73211528344249
_cell_length_b       6.732114452941816
_cell_length_c       6.732114514197261
_cell_angle_alpha    60.00000132938179
_cell_angle_beta     60.000000733168534
_cell_angle_gamma    59.99999495513623

_space_group_name_H-M_alt    "P 1"
_space_group_IT_number       1

loop_
  _space_group_symop_operation_xyz
  'x, y, z'

loop_
  _atom_site_type_symbol
  _atom_site_label
  _atom_site_symmetry_multiplicity
  _atom_site_fract_x
  _atom_site_fract_y
  _atom_site_fract_z
  _atom_site_occupancy
  K   K1        1.0  0.24999998390181633  0.24999999936383188  0.2500000194909599  1.0000
  K   K2        1.0  0.7499999839823425  0.7500000144648105  0.7500000207790185  1.0000
  Cr  Cr1       1.0  2.048237920740083e-07  0.9999998126164727  0.9999997149922253  1.0000
  Se  Se1       1.0  0.26187519561780975  0.2618757785527823  0.7381247248737081  1.0000
  Se  Se2       1.0  0.7381244919732287  0.7381244226593882  0.2618755638678408  1.0000
  Se  Se3       1.0  0.7381246370153681  0.26187539436687834  0.2618756441019371  1.0000
  Se  Se4       1.0  0.26187538956954903  0.7381244793789469  0.7381245616341287  1.0000
  Se  Se5       1.0  0.26187553059260643  0.738124532406376  0.26187543419821907  1.0000
  Se  Se6       1.0  0.7381245598325659  0.2618755614695803  0.7381243205858369  1.0000
