data_image0
_chemical_formula_structural       K2CrS6
_chemical_formula_sum              "K2 Cr1 S6"
_cell_length_a       6.3701561434038565
_cell_length_b       6.37015579651359
_cell_length_c       6.370155014129964
_cell_angle_alpha    60.00000771320581
_cell_angle_beta     60.000000490293
_cell_angle_gamma    59.999988849259445

_space_group_name_H-M_alt    "P 1"
_space_group_IT_number       1

loop_
  _space_group_symop_operation_xyz
  'x, y, z'

loop_
  _atom_site_type_symbol
  _atom_site_label
  _atom_site_symmetry_multiplicity
  _atom_site_fract_x
  _atom_site_fract_y
  _atom_site_fract_z
  _atom_site_occupancy
  K   K1        1.0  0.24999996384827358  0.24999998461825138  0.25000011559038693  1.0000
  K   K2        1.0  0.7500000204267475  0.7500000076883425  0.7500000560461945  1.0000
  Cr  Cr1       1.0  1.796016008640534e-08  1.0382197577070226e-07  0.9999998527688061  1.0000
  S   S1        1.0  0.24720842807622612  0.24720842541167345  0.752791811139936  1.0000
  S   S2        1.0  0.7527916602497998  0.7527917822294031  0.24720842999769804  1.0000
  S   S3        1.0  0.7527917522728369  0.24720814200292943  0.24720825707808444  1.0000
  S   S4        1.0  0.24720843372742296  0.7527915061529592  0.7527916247124949  1.0000
  S   S5        1.0  0.24720818397766417  0.752791755668457  0.2472083034102839  1.0000
  S   S6        1.0  0.7527916172708202  0.24720832892435318  0.7527915713755962  1.0000
