data_image0
_chemical_formula_structural       K2CrO6
_chemical_formula_sum              "K2 Cr1 O6"
_cell_length_a       5.952522790266093
_cell_length_b       5.952519191236346
_cell_length_c       5.952520875454892
_cell_angle_alpha    59.99999274887865
_cell_angle_beta     59.99999698525778
_cell_angle_gamma    59.999996090810924

_space_group_name_H-M_alt    "P 1"
_space_group_IT_number       1

loop_
  _space_group_symop_operation_xyz
  'x, y, z'

loop_
  _atom_site_type_symbol
  _atom_site_label
  _atom_site_symmetry_multiplicity
  _atom_site_fract_x
  _atom_site_fract_y
  _atom_site_fract_z
  _atom_site_occupancy
  K   K1        1.0  0.25000003704458884  0.250000041671597  0.24999989552750415  1.0000
  K   K2        1.0  0.7499999709568766  0.7500000159660366  0.7500001471874492  1.0000
  Cr  Cr1       1.0  0.9999998001382678  0.9999999012388431  2.8706822535130915e-07  1.0000
  O   O1        1.0  0.21237001603053526  0.2123703693292543  0.7876299373869189  1.0000
  O   O2        1.0  0.7876304053540325  0.7876297459191163  0.21237015710431975  1.0000
  O   O3        1.0  0.7876297113908471  0.21237032989577376  0.21237041282622043  1.0000
  O   O4        1.0  0.21237042587806784  0.7876295610824441  0.7876296485846999  1.0000
  O   O5        1.0  0.21237012562452165  0.7876296925370408  0.21237019981401106  1.0000
  O   O6        1.0  0.7876298702101038  0.21237029102971233  0.7876296105062791  1.0000
