data_image0
_chemical_formula_structural       K2CrTe6
_chemical_formula_sum              "K2 Cr1 Te6"
_cell_length_a       7.331022924323134
_cell_length_b       7.331022764330277
_cell_length_c       7.331019596440377
_cell_angle_alpha    60.00000752811151
_cell_angle_beta     60.000011702298636
_cell_angle_gamma    60.00003645417692

_space_group_name_H-M_alt    "P 1"
_space_group_IT_number       1

loop_
  _space_group_symop_operation_xyz
  'x, y, z'

loop_
  _atom_site_type_symbol
  _atom_site_label
  _atom_site_symmetry_multiplicity
  _atom_site_fract_x
  _atom_site_fract_y
  _atom_site_fract_z
  _atom_site_occupancy
  K   K1        1.0  0.2499998148285023  0.24999986678839925  0.2500002399655063  1.0000
  K   K2        1.0  0.750000258128677  0.7500001316267105  0.749999680510177  1.0000
  Cr  Cr1       1.0  0.9999995417587003  1.3197981096526257e-07  3.459156921976733e-07  1.0000
  Te  Te1       1.0  0.26795646857072447  0.26795617731052546  0.7320436025685987  1.0000
  Te  Te2       1.0  0.7320433593743756  0.7320437292197073  0.26795635540516666  1.0000
  Te  Te3       1.0  0.7320426239736998  0.2679570207359588  0.26795623629047616  1.0000
  Te  Te4       1.0  0.267957985758053  0.7320427471320065  0.7320438366224409  1.0000
  Te  Te5       1.0  0.26795744787325243  0.7320428621201208  0.26795538683573117  1.0000
  Te  Te6       1.0  0.7320424896236447  0.26795730168759274  0.7320443195200423  1.0000
