data_image0
_chemical_formula_structural       K2CS6
_chemical_formula_sum              "K2 C1 S6"
_cell_length_a       6.361034823852501
_cell_length_b       6.361035191597144
_cell_length_c       6.361035321530106
_cell_angle_alpha    59.9999868245396
_cell_angle_beta     59.99999489513499
_cell_angle_gamma    59.99999394595188

_space_group_name_H-M_alt    "P 1"
_space_group_IT_number       1

loop_
  _space_group_symop_operation_xyz
  'x, y, z'

loop_
  _atom_site_type_symbol
  _atom_site_label
  _atom_site_symmetry_multiplicity
  _atom_site_fract_x
  _atom_site_fract_y
  _atom_site_fract_z
  _atom_site_occupancy
  K   K1        1.0  0.24999989093291333  0.25000021099320935  0.2500002003734878  1.0000
  K   K2        1.0  0.7499998943439211  0.7500001208269402  0.7500001301723772  1.0000
  C   C1        1.0  7.3454265830254665e-06  0.9999852284386332  0.9999832384142215  1.0000
  S   S1        1.0  0.2309846207565622  0.23098497333607676  0.7690154877693721  1.0000
  S   S2        1.0  0.7690184416122955  0.7690188857918827  0.23098149245452795  1.0000
  S   S3        1.0  0.7690096927512324  0.2309903987397798  0.23099032187844018  1.0000
  S   S4        1.0  0.23097588970769975  0.7690242232959316  0.7690242598103205  1.0000
  S   S5        1.0  0.23098507191758533  0.7690149447433056  0.23098538239806435  1.0000
  S   S6        1.0  0.7690190827926837  0.2309810029715328  0.7690195254948513  1.0000
