data_image0
_chemical_formula_structural       K2FeS6
_chemical_formula_sum              "K2 Fe1 S6"
_cell_length_a       6.4650012166943345
_cell_length_b       6.464998837185881
_cell_length_c       6.465000054067665
_cell_angle_alpha    60.00000624819571
_cell_angle_beta     60.000002694695446
_cell_angle_gamma    59.99999336068709

_space_group_name_H-M_alt    "P 1"
_space_group_IT_number       1

loop_
  _space_group_symop_operation_xyz
  'x, y, z'

loop_
  _atom_site_type_symbol
  _atom_site_label
  _atom_site_symmetry_multiplicity
  _atom_site_fract_x
  _atom_site_fract_y
  _atom_site_fract_z
  _atom_site_occupancy
  K   K1        1.0  0.2500000234507571  0.2500000008928764  0.24999994847672108  1.0000
  K   K2        1.0  0.7499999481744316  0.7500001655990881  0.7499997817487409  1.0000
  Fe  Fe1       1.0  0.9999998184885588  0.999999933695188  2.3991740456426783e-07  1.0000
  S   S1        1.0  0.24080009787921403  0.2407996510226551  0.7592002190392588  1.0000
  S   S2        1.0  0.7591999062454572  0.7592000911183756  0.2407999205689628  1.0000
  S   S3        1.0  0.7592001810433598  0.24080003212931894  0.24079970254052077  1.0000
  S   S4        1.0  0.24079954554207872  0.7592003711657004  0.7592003535357196  1.0000
  S   S5        1.0  0.24079999753905137  0.7592001967597941  0.24079967460538368  1.0000
  S   S6        1.0  0.7592004421011336  0.24079949802062647  0.7592003297034058  1.0000
