data_image0
_chemical_formula_structural       K2FeO6
_chemical_formula_sum              "K2 Fe1 O6"
_cell_length_a       6.194548697248882
_cell_length_b       6.194550289280491
_cell_length_c       6.1945488692110064
_cell_angle_alpha    60.00000464759644
_cell_angle_beta     60.00000128354197
_cell_angle_gamma    60.00000611821491

_space_group_name_H-M_alt    "P 1"
_space_group_IT_number       1

loop_
  _space_group_symop_operation_xyz
  'x, y, z'

loop_
  _atom_site_type_symbol
  _atom_site_label
  _atom_site_symmetry_multiplicity
  _atom_site_fract_x
  _atom_site_fract_y
  _atom_site_fract_z
  _atom_site_occupancy
  K   K1        1.0  0.250000090793639  0.2500000119215259  0.24999988516802868  1.0000
  K   K2        1.0  0.7499999519340178  0.7499999289994019  0.7500002081178584  1.0000
  Fe  Fe1       1.0  1.4379749736752882e-07  0.9999999209146916  0.9999999837871353  1.0000
  O   O1        1.0  0.20337329434682702  0.20337306817654605  0.7966267176496541  1.0000
  O   O2        1.0  0.7966268701294321  0.7966268094761447  0.2033731300768308  1.0000
  O   O3        1.0  0.7966265814192903  0.20337330535562734  0.2033735090072738  1.0000
  O   O4        1.0  0.2033731018420703  0.7966268807297482  0.7966267754182987  1.0000
  O   O5        1.0  0.20337314081994148  0.7966268025986516  0.20337309927129354  1.0000
  O   O6        1.0  0.7966267940927019  0.20337318775060345  0.79662678751684  1.0000
