data_image0
_chemical_formula_structural       K2GeO6
_chemical_formula_sum              "K2 Ge1 O6"
_cell_length_a       6.244299792076206
_cell_length_b       6.244300745568911
_cell_length_c       6.244299279391312
_cell_angle_alpha    60.000004277718425
_cell_angle_beta     60.000004370955494
_cell_angle_gamma    60.000007332462296

_space_group_name_H-M_alt    "P 1"
_space_group_IT_number       1

loop_
  _space_group_symop_operation_xyz
  'x, y, z'

loop_
  _atom_site_type_symbol
  _atom_site_label
  _atom_site_symmetry_multiplicity
  _atom_site_fract_x
  _atom_site_fract_y
  _atom_site_fract_z
  _atom_site_occupancy
  K   K1        1.0  0.24999997872854707  0.24999997460359932  0.24999999269173007  1.0000
  K   K2        1.0  0.7499999626706118  0.7500000218798016  0.7500000711398903  1.0000
  Ge  Ge1       1.0  0.9999999673873002  0.9999999646951627  0.9999998802185402  1.0000
  O   O1        1.0  0.21107487187012733  0.21107494459717885  0.7889251401841372  1.0000
  O   O2        1.0  0.788925281854645  0.7889248753620017  0.21107505468264054  1.0000
  O   O3        1.0  0.7889250040606431  0.2110750666458727  0.21107483441007147  1.0000
  O   O4        1.0  0.21107520147712533  0.7889248808030338  0.7889250177745492  1.0000
  O   O5        1.0  0.21107495500322287  0.7889249366958238  0.21107494788984493  1.0000
  O   O6        1.0  0.7889249094534225  0.21107531280562122  0.7889250407156884  1.0000
