data_image0
_chemical_formula_structural       K2GeS6
_chemical_formula_sum              "K2 Ge1 S6"
_cell_length_a       6.761757107156189
_cell_length_b       6.761757123591767
_cell_length_c       6.761757294740984
_cell_angle_alpha    60.00000156549795
_cell_angle_beta     60.00000149819939
_cell_angle_gamma    60.00000964659476

_space_group_name_H-M_alt    "P 1"
_space_group_IT_number       1

loop_
  _space_group_symop_operation_xyz
  'x, y, z'

loop_
  _atom_site_type_symbol
  _atom_site_label
  _atom_site_symmetry_multiplicity
  _atom_site_fract_x
  _atom_site_fract_y
  _atom_site_fract_z
  _atom_site_occupancy
  K   K1        1.0  0.24999997765027426  0.25000001340318345  0.2500000272766048  1.0000
  K   K2        1.0  0.7500000356373452  0.7499999985500763  0.7500000128647485  1.0000
  Ge  Ge1       1.0  0.9999999780574494  7.607383904226265e-08  1.0751475650799975e-07  1.0000
  S   S1        1.0  0.24491988917467913  0.24491971863791112  0.7550802871305644  1.0000
  S   S2        1.0  0.755080229214505  0.7550802444107484  0.24491973082792984  1.0000
  S   S3        1.0  0.7550799342214456  0.24491989763906097  0.24491994199049394  1.0000
  S   S4        1.0  0.24491999608182613  0.755079958543945  0.7550799690720331  1.0000
  S   S5        1.0  0.2449200118216633  0.7550800072661958  0.2449200065691747  1.0000
  S   S6        1.0  0.7550799215476592  0.24492010611883847  0.7550798823194185  1.0000
