data_image0
_chemical_formula_structural       K2GeTe6
_chemical_formula_sum              "K2 Ge1 Te6"
_cell_length_a       7.484746787778958
_cell_length_b       7.48474673442609
_cell_length_c       7.484746099384963
_cell_angle_alpha    60.00000197318968
_cell_angle_beta     60.000000642987395
_cell_angle_gamma    59.99999639649133

_space_group_name_H-M_alt    "P 1"
_space_group_IT_number       1

loop_
  _space_group_symop_operation_xyz
  'x, y, z'

loop_
  _atom_site_type_symbol
  _atom_site_label
  _atom_site_symmetry_multiplicity
  _atom_site_fract_x
  _atom_site_fract_y
  _atom_site_fract_z
  _atom_site_occupancy
  K   K1        1.0  0.25000001689188894  0.24999998935423007  0.2500000482600383  1.0000
  K   K2        1.0  0.7499999707019146  0.7500000089707208  0.7499999505448707  1.0000
  Ge  Ge1       1.0  0.9999997591428802  1.7181372301195365e-07  7.279319965756995e-07  1.0000
  Te  Te1       1.0  0.2781595993301065  0.2781599030883806  0.7218403770178632  1.0000
  Te  Te2       1.0  0.7218403312438432  0.7218401459625259  0.2781598173252913  1.0000
  Te  Te3       1.0  0.721840652678574  0.278159505422693  0.27815936972362365  1.0000
  Te  Te4       1.0  0.2781600896996546  0.7218398252832284  0.7218399735873738  1.0000
  Te  Te5       1.0  0.2781595429018167  0.7218404472544171  0.27815966870708436  1.0000
  Te  Te6       1.0  0.7218400486678771  0.278160012513092  0.7218400462110797  1.0000
