data_image0
_chemical_formula_structural       K2HfO6
_chemical_formula_sum              "K2 Hf1 O6"
_cell_length_a       6.309767074323968
_cell_length_b       6.309767199353618
_cell_length_c       6.309766900145726
_cell_angle_alpha    60.00000512070348
_cell_angle_beta     60.00000445708282
_cell_angle_gamma    60.000007029891464

_space_group_name_H-M_alt    "P 1"
_space_group_IT_number       1

loop_
  _space_group_symop_operation_xyz
  'x, y, z'

loop_
  _atom_site_type_symbol
  _atom_site_label
  _atom_site_symmetry_multiplicity
  _atom_site_fract_x
  _atom_site_fract_y
  _atom_site_fract_z
  _atom_site_occupancy
  K   K1        1.0  0.2500000089981484  0.25000008451411443  0.24999993811212498  1.0000
  K   K2        1.0  0.7500000576482401  0.7499999255082679  0.7500001738108392  1.0000
  Hf  Hf1       1.0  8.597288696935805e-08  6.599502637210745e-08  0.9999999462038718  1.0000
  O   O1        1.0  0.22814989729034021  0.2281496886608203  0.7718502018032554  1.0000
  O   O2        1.0  0.7718501812242425  0.771850274776838  0.22814982604791828  1.0000
  O   O3        1.0  0.7718502725846679  0.22814964019125433  0.22814977272144932  1.0000
  O   O4        1.0  0.228149688367804  0.7718501543767785  0.771850227182368  1.0000
  O   O5        1.0  0.22814960910241686  0.7718503668650772  0.22814979504381966  1.0000
  O   O6        1.0  0.7718501782135871  0.2281498003807256  0.7718502099390956  1.0000
