data_image0
_chemical_formula_structural       K2HfTe6
_chemical_formula_sum              "K2 Hf1 Te6"
_cell_length_a       7.583451989539577
_cell_length_b       7.583452645963242
_cell_length_c       7.583452883800447
_cell_angle_alpha    59.99999853755668
_cell_angle_beta     59.99999875396775
_cell_angle_gamma    59.99999850383106

_space_group_name_H-M_alt    "P 1"
_space_group_IT_number       1

loop_
  _space_group_symop_operation_xyz
  'x, y, z'

loop_
  _atom_site_type_symbol
  _atom_site_label
  _atom_site_symmetry_multiplicity
  _atom_site_fract_x
  _atom_site_fract_y
  _atom_site_fract_z
  _atom_site_occupancy
  K   K1        1.0  0.2500000272348664  0.24999997706329552  0.2500000466478114  1.0000
  K   K2        1.0  0.7499999710254965  0.7500000393964182  0.7499999987643798  1.0000
  Hf  Hf1       1.0  0.9999999727293355  7.267602834172147e-08  0.9999998335633196  1.0000
  Te  Te1       1.0  0.26923645733072976  0.269236546043303  0.7307635630074001  1.0000
  Te  Te2       1.0  0.7307635629540709  0.7307634865666385  0.2692364356255878  1.0000
  Te  Te3       1.0  0.7307633156225899  0.269236587514481  0.2692366341945753  1.0000
  Te  Te4       1.0  0.26923660856585996  0.7307634273302119  0.7307634279625131  1.0000
  Te  Te5       1.0  0.2692367192993619  0.7307634874794139  0.26923639778645914  1.0000
  Te  Te6       1.0  0.7307633284725225  0.2692364078535896  0.7307636662907411  1.0000
