data_image0
_chemical_formula_structural       K2HfS6
_chemical_formula_sum              "K2 Hf1 S6"
_cell_length_a       6.79410416725483
_cell_length_b       6.794104180943162
_cell_length_c       6.794102847630217
_cell_angle_alpha    59.999996290779535
_cell_angle_beta     60.000003751949265
_cell_angle_gamma    60.00000180057112

_space_group_name_H-M_alt    "P 1"
_space_group_IT_number       1

loop_
  _space_group_symop_operation_xyz
  'x, y, z'

loop_
  _atom_site_type_symbol
  _atom_site_label
  _atom_site_symmetry_multiplicity
  _atom_site_fract_x
  _atom_site_fract_y
  _atom_site_fract_z
  _atom_site_occupancy
  K   K1        1.0  0.2500000141458283  0.2500000116526637  0.24999999753992447  1.0000
  K   K2        1.0  0.7499999755536602  0.7500000367606499  0.7500000030823877  1.0000
  Hf  Hf1       1.0  0.9999997292687344  1.748578638176187e-07  0.9999999934776997  1.0000
  S   S1        1.0  0.2608482797403952  0.2608481377313181  0.7391517456273062  1.0000
  S   S2        1.0  0.739151648727845  0.7391516456912056  0.26084841074672327  1.0000
  S   S3        1.0  0.739151750815319  0.2608483342475715  0.2608483678986843  1.0000
  S   S4        1.0  0.26084836018937013  0.7391516510727141  0.7391514829246404  1.0000
  S   S5        1.0  0.26084841705379325  0.7391516618941122  0.2608483775976852  1.0000
  S   S6        1.0  0.7391518279070497  0.26084833965008164  0.7391516071403886  1.0000
