data_image0
_chemical_formula_structural       K2HfSe6
_chemical_formula_sum              "K2 Hf1 Se6"
_cell_length_a       7.084221514140831
_cell_length_b       7.084221553865909
_cell_length_c       7.084221815249747
_cell_angle_alpha    59.999999546498785
_cell_angle_beta     60.000000844308744
_cell_angle_gamma    60.000005796240394

_space_group_name_H-M_alt    "P 1"
_space_group_IT_number       1

loop_
  _space_group_symop_operation_xyz
  'x, y, z'

loop_
  _atom_site_type_symbol
  _atom_site_label
  _atom_site_symmetry_multiplicity
  _atom_site_fract_x
  _atom_site_fract_y
  _atom_site_fract_z
  _atom_site_occupancy
  K   K1        1.0  0.24999999337437456  0.24999999178250445  0.2500000063998227  1.0000
  K   K2        1.0  0.7499999840412349  0.7499999978223657  0.7500000017682236  1.0000
  Hf  Hf1       1.0  9.937674327979849e-08  8.81705796526424e-08  2.0407133416219503e-07  1.0000
  Se  Se1       1.0  0.26867082773185147  0.2686706340601578  0.7313292236724863  1.0000
  Se  Se2       1.0  0.7313292376027772  0.7313293607312223  0.2686705981956196  1.0000
  Se  Se3       1.0  0.7313290478810139  0.268670833806542  0.268670861843711  1.0000
  Se  Se4       1.0  0.26867083287252574  0.7313291817308434  0.7313291068749656  1.0000
  Se  Se5       1.0  0.26867080632602436  0.7313291418789106  0.2686708855084401  1.0000
  Se  Se6       1.0  0.7313291578041622  0.2686707751148985  0.7313291218486301  1.0000
