data_image0
_chemical_formula_structural       K2IrO6
_chemical_formula_sum              "K2 Ir1 O6"
_cell_length_a       6.256698762514304
_cell_length_b       6.256699189383993
_cell_length_c       6.2566987011279185
_cell_angle_alpha    60.000004293706525
_cell_angle_beta     60.000005809692716
_cell_angle_gamma    60.0000056261125

_space_group_name_H-M_alt    "P 1"
_space_group_IT_number       1

loop_
  _space_group_symop_operation_xyz
  'x, y, z'

loop_
  _atom_site_type_symbol
  _atom_site_label
  _atom_site_symmetry_multiplicity
  _atom_site_fract_x
  _atom_site_fract_y
  _atom_site_fract_z
  _atom_site_occupancy
  K   K1        1.0  0.25000001193891186  0.2500000004433766  0.24999996256524862  1.0000
  K   K2        1.0  0.7500000727660141  0.7499999347753509  0.7500001086775155  1.0000
  Ir  Ir1       1.0  0.9999999452862135  0.9999999980425057  0.9999999612075855  1.0000
  O   O1        1.0  0.2121394446903466  0.21213953589578424  0.7878604859035169  1.0000
  O   O2        1.0  0.7878604318392257  0.7878605089425766  0.2121395179421516  1.0000
  O   O3        1.0  0.7878603805338561  0.2121395511703039  0.21213945213132243  1.0000
  O   O4        1.0  0.21213954135062704  0.7878605347754214  0.7878604861071934  1.0000
  O   O5        1.0  0.2121395985537681  0.7878604670210508  0.21213943750648373  1.0000
  O   O6        1.0  0.7878604016079506  0.21213961109470167  0.7878603600214639  1.0000
