data_image0
_chemical_formula_structural       K2IrS6
_chemical_formula_sum              "K2 Ir1 S6"
_cell_length_a       6.510885282890986
_cell_length_b       6.510885099624158
_cell_length_c       6.510886142376475
_cell_angle_alpha    59.99999952737966
_cell_angle_beta     59.999998570713494
_cell_angle_gamma    60.00000247839595

_space_group_name_H-M_alt    "P 1"
_space_group_IT_number       1

loop_
  _space_group_symop_operation_xyz
  'x, y, z'

loop_
  _atom_site_type_symbol
  _atom_site_label
  _atom_site_symmetry_multiplicity
  _atom_site_fract_x
  _atom_site_fract_y
  _atom_site_fract_z
  _atom_site_occupancy
  K   K1        1.0  0.25000004266853015  0.2499999856978646  0.24999995422438193  1.0000
  K   K2        1.0  0.750000009611923  0.7499999345207188  0.7499999961278727  1.0000
  Ir  Ir1       1.0  0.9999999625968747  0.9999999153517369  3.559164252105396e-07  1.0000
  S   S1        1.0  0.25454974667283  0.2545496586762781  0.7454503625784644  1.0000
  S   S2        1.0  0.7454502417803568  0.7454502295640725  0.25454979233723996  1.0000
  S   S3        1.0  0.7454501890011807  0.2545498419380332  0.2545497709583961  1.0000
  S   S4        1.0  0.2545498131357931  0.7454501967881281  0.7454500469149004  1.0000
  S   S5        1.0  0.25454975582975625  0.7454502506275541  0.25454972108797225  1.0000
  S   S6        1.0  0.7454502203471511  0.2545499404654976  0.7454499721463477  1.0000
