data_image0
_chemical_formula_structural       K2IrSe6
_chemical_formula_sum              "K2 Ir1 Se6"
_cell_length_a       6.785752524764295
_cell_length_b       6.785752349749036
_cell_length_c       6.785752655149723
_cell_angle_alpha    59.999995515536376
_cell_angle_beta     60.000001976726665
_cell_angle_gamma    60.00000937218557

_space_group_name_H-M_alt    "P 1"
_space_group_IT_number       1

loop_
  _space_group_symop_operation_xyz
  'x, y, z'

loop_
  _atom_site_type_symbol
  _atom_site_label
  _atom_site_symmetry_multiplicity
  _atom_site_fract_x
  _atom_site_fract_y
  _atom_site_fract_z
  _atom_site_occupancy
  K   K1        1.0  0.2499999753067883  0.24999999663515207  0.25000000187275273  1.0000
  K   K2        1.0  0.7499999906009355  0.7499999592225525  0.7500000372507307  1.0000
  Ir  Ir1       1.0  0.999999823691768  0.9999993700978763  4.134209197537232e-07  1.0000
  Se  Se1       1.0  0.260700775810212  0.26070079271872554  0.739299215695048  1.0000
  Se  Se2       1.0  0.739300003871343  0.739299886894794  0.26070007382139837  1.0000
  Se  Se3       1.0  0.7392990509106295  0.2607009190900061  0.26070102508956877  1.0000
  Se  Se4       1.0  0.26070056693063454  0.739299085499326  0.7392993272793453  1.0000
  Se  Se5       1.0  0.26070053009596406  0.7392993266717977  0.2607007593182388  1.0000
  Se  Se6       1.0  0.7392992810290228  0.2607006851370842  0.7392991376431562  1.0000
