data_image0
_chemical_formula_structural       K2MnTe6
_chemical_formula_sum              "K2 Mn1 Te6"
_cell_length_a       7.160298863310465
_cell_length_b       7.1602989347382655
_cell_length_c       7.16030962718679
_cell_angle_alpha    59.99996512072982
_cell_angle_beta     59.99996506604126
_cell_angle_gamma    59.99986008417295

_space_group_name_H-M_alt    "P 1"
_space_group_IT_number       1

loop_
  _space_group_symop_operation_xyz
  'x, y, z'

loop_
  _atom_site_type_symbol
  _atom_site_label
  _atom_site_symmetry_multiplicity
  _atom_site_fract_x
  _atom_site_fract_y
  _atom_site_fract_z
  _atom_site_occupancy
  K   K1        1.0  0.2500005761562598  0.2500005438331784  0.24999964432056337  1.0000
  K   K2        1.0  0.7499996338936337  0.7499995601261724  0.7500007463940663  1.0000
  Mn  Mn1       1.0  0.9999997875389887  0.9999999503966118  0.9999990919709585  1.0000
  Te  Te1       1.0  0.25786144822998386  0.25786139167289535  0.7421391920104106  1.0000
  Te  Te2       1.0  0.7421382047915877  0.7421377321894516  0.25786306219143035  1.0000
  Te  Te3       1.0  0.7421426802338196  0.2578576315032897  0.257862788508888  1.0000
  Te  Te4       1.0  0.25785945241239894  0.7421407636964134  0.7421365875054576  1.0000
  Te  Te5       1.0  0.25785731290225666  0.7421428388879024  0.25786254206983394  1.0000
  Te  Te6       1.0  0.7421408896554813  0.2578596203876683  0.7421363312154777  1.0000
