data_image0
_chemical_formula_structural       K2MnSe6
_chemical_formula_sum              "K2 Mn1 Se6"
_cell_length_a       6.818190859724491
_cell_length_b       6.818190906047836
_cell_length_c       6.818188775611675
_cell_angle_alpha    60.00001012532531
_cell_angle_beta     59.999993105840545
_cell_angle_gamma    59.99999747360558

_space_group_name_H-M_alt    "P 1"
_space_group_IT_number       1

loop_
  _space_group_symop_operation_xyz
  'x, y, z'

loop_
  _atom_site_type_symbol
  _atom_site_label
  _atom_site_symmetry_multiplicity
  _atom_site_fract_x
  _atom_site_fract_y
  _atom_site_fract_z
  _atom_site_occupancy
  K   K1        1.0  0.2500000707170866  0.25000001608604694  0.2499999449251139  1.0000
  K   K2        1.0  0.7499999461276035  0.7499999368881807  0.749999926672283  1.0000
  Mn  Mn1       1.0  1.49867083080807e-07  0.9999992455582408  4.973537875901889e-07  1.0000
  Se  Se1       1.0  0.244087057186603  0.24408739038651084  0.7559129152311512  1.0000
  Se  Se2       1.0  0.7559131188319016  0.7559127709573505  0.24408704246089188  1.0000
  Se  Se3       1.0  0.755912366871018  0.24408765627476472  0.2440874377375004  1.0000
  Se  Se4       1.0  0.2440877294681467  0.7559123020883437  0.7559126656845953  1.0000
  Se  Se5       1.0  0.24408782463334455  0.7559122847923866  0.24408748449479345  1.0000
  Se  Se6       1.0  0.7559117826164193  0.24408827712413628  0.7559120776958511  1.0000
