data_image0
_chemical_formula_structural       K2MnO6
_chemical_formula_sum              "K2 Mn1 O6"
_cell_length_a       6.139049614569492
_cell_length_b       6.139048362434253
_cell_length_c       6.139049402626203
_cell_angle_alpha    59.99999599069337
_cell_angle_beta     60.00000431341121
_cell_angle_gamma    60.000006361271694

_space_group_name_H-M_alt    "P 1"
_space_group_IT_number       1

loop_
  _space_group_symop_operation_xyz
  'x, y, z'

loop_
  _atom_site_type_symbol
  _atom_site_label
  _atom_site_symmetry_multiplicity
  _atom_site_fract_x
  _atom_site_fract_y
  _atom_site_fract_z
  _atom_site_occupancy
  K   K1        1.0  0.2500000895977959  0.24999993533473178  0.2500001413001751  1.0000
  K   K2        1.0  0.74999985481682  0.7500001112403262  0.7499996198316446  1.0000
  Mn  Mn1       1.0  0.9999999174647612  1.855357110136384e-07  0.9999998475069296  1.0000
  O   O1        1.0  0.21084855301893887  0.21084865427880303  0.789151571298  1.0000
  O   O2        1.0  0.7891513754194177  0.7891512765858062  0.210848814395595  1.0000
  O   O3        1.0  0.7891511782215186  0.21084877264190655  0.21084885889392757  1.0000
  O   O4        1.0  0.21084916160830355  0.7891509228118352  0.7891510038886206  1.0000
  O   O5        1.0  0.21084909644724678  0.7891508315008381  0.21084921042423735  1.0000
  O   O6        1.0  0.7891506716931039  0.21084925297934817  0.7891510906490691  1.0000
