data_image0
_chemical_formula_structural       K2MnS6
_chemical_formula_sum              "K2 Mn1 S6"
_cell_length_a       6.630777671212804
_cell_length_b       6.630777648924539
_cell_length_c       6.6307783840176775
_cell_angle_alpha    59.99999521955996
_cell_angle_beta     60.00000367890739
_cell_angle_gamma    59.99999907420804

_space_group_name_H-M_alt    "P 1"
_space_group_IT_number       1

loop_
  _space_group_symop_operation_xyz
  'x, y, z'

loop_
  _atom_site_type_symbol
  _atom_site_label
  _atom_site_symmetry_multiplicity
  _atom_site_fract_x
  _atom_site_fract_y
  _atom_site_fract_z
  _atom_site_occupancy
  K   K1        1.0  0.2500001318391359  0.2500000353691368  0.24999997893525563  1.0000
  K   K2        1.0  0.7500003039493964  0.7499997330011359  0.7500000213472882  1.0000
  Mn  Mn1       1.0  0.9999995835517914  7.388243120573118e-08  7.325515841160226e-08  1.0000
  S   S1        1.0  0.23724978707076821  0.23724980265416717  0.7627502652759518  1.0000
  S   S2        1.0  0.7627503896648027  0.7627501264103905  0.2372498037914562  1.0000
  S   S3        1.0  0.762749878568505  0.23725007899126394  0.23725006943315144  1.0000
  S   S4        1.0  0.23724963295444096  0.762750184391292  0.7627501092811436  1.0000
  S   S5        1.0  0.23724994956466847  0.7627500077540181  0.23724992479851711  1.0000
  S   S6        1.0  0.7627502622619251  0.2372499988871014  0.7627498828309746  1.0000
