data_image0
_chemical_formula_structural       K2MoS6
_chemical_formula_sum              "K2 Mo1 S6"
_cell_length_a       6.741796489098818
_cell_length_b       6.741796293133539
_cell_length_c       6.741796470270601
_cell_angle_alpha    59.999998233713356
_cell_angle_beta     59.99999525895824
_cell_angle_gamma    60.000000316668434

_space_group_name_H-M_alt    "P 1"
_space_group_IT_number       1

loop_
  _space_group_symop_operation_xyz
  'x, y, z'

loop_
  _atom_site_type_symbol
  _atom_site_label
  _atom_site_symmetry_multiplicity
  _atom_site_fract_x
  _atom_site_fract_y
  _atom_site_fract_z
  _atom_site_occupancy
  K   K1        1.0  0.24999998350013775  0.2499999612414922  0.24999997895819995  1.0000
  K   K2        1.0  0.7499999393036273  0.7500000817387541  0.7499999102136408  1.0000
  Mo  Mo1       1.0  0.9999999916083916  5.0866053344103416e-08  6.330997534267555e-08  1.0000
  S   S1        1.0  0.24006997715667586  0.24007008309537  0.759929972786282  1.0000
  S   S2        1.0  0.7599298226438882  0.7599297636872413  0.24007019464871637  1.0000
  S   S3        1.0  0.7599299198168458  0.2400701700346816  0.24006998149546385  1.0000
  S   S4        1.0  0.24007023180367215  0.7599298493291906  0.7599299370884708  1.0000
  S   S5        1.0  0.24007017660786328  0.7599298596545194  0.24007002968822658  1.0000
  S   S6        1.0  0.7599299608090065  0.24007015607606308  0.7599299497291236  1.0000
