data_image0
_chemical_formula_structural       K2MoSe6
_chemical_formula_sum              "K2 Mo1 Se6"
_cell_length_a       6.974397175009338
_cell_length_b       6.974397321393229
_cell_length_c       6.97439724552198
_cell_angle_alpha    60.0000032366616
_cell_angle_beta     60.0000021784743
_cell_angle_gamma    59.9999960482787

_space_group_name_H-M_alt    "P 1"
_space_group_IT_number       1

loop_
  _space_group_symop_operation_xyz
  'x, y, z'

loop_
  _atom_site_type_symbol
  _atom_site_label
  _atom_site_symmetry_multiplicity
  _atom_site_fract_x
  _atom_site_fract_y
  _atom_site_fract_z
  _atom_site_occupancy
  K   K1        1.0  0.24999998511771007  0.2500000165854123  0.24999998456089847  1.0000
  K   K2        1.0  0.7500000214290777  0.7499999707336086  0.7500000203762932  1.0000
  Mo  Mo1       1.0  0.9999999180220651  0.9999999578546112  2.9577361220156576e-07  1.0000
  Se  Se1       1.0  0.24516531554088797  0.2451654155019722  0.7548346479745398  1.0000
  Se  Se2       1.0  0.7548347532482369  0.7548347228380622  0.24516529191163516  1.0000
  Se  Se3       1.0  0.7548350613501531  0.2451649905045255  0.2451650376905227  1.0000
  Se  Se4       1.0  0.24516525701146696  0.7548347070648442  0.7548348070972494  1.0000
  Se  Se5       1.0  0.24516500023671337  0.7548349270828137  0.24516517161669113  1.0000
  Se  Se6       1.0  0.7548346869201156  0.2451653131086272  0.7548347332344129  1.0000
