data_image0
_chemical_formula_structural       K2MoO6
_chemical_formula_sum              "K2 Mo1 O6"
_cell_length_a       6.443513600030779
_cell_length_b       6.443513288162461
_cell_length_c       6.443512831524822
_cell_angle_alpha    59.99999877422277
_cell_angle_beta     59.99999016210018
_cell_angle_gamma    59.9999914119432

_space_group_name_H-M_alt    "P 1"
_space_group_IT_number       1

loop_
  _space_group_symop_operation_xyz
  'x, y, z'

loop_
  _atom_site_type_symbol
  _atom_site_label
  _atom_site_symmetry_multiplicity
  _atom_site_fract_x
  _atom_site_fract_y
  _atom_site_fract_z
  _atom_site_occupancy
  K   K1        1.0  0.2500001460356208  0.2499998808666798  0.25000010185467686  1.0000
  K   K2        1.0  0.7500000187454929  0.7500000512593474  0.7499998344669079  1.0000
  Mo  Mo1       1.0  0.9999998053325581  3.0982077519938754e-07  2.3124666675680256e-08  1.0000
  O   O1        1.0  0.2061583105856079  0.20615780724122915  0.7938418315595014  1.0000
  O   O2        1.0  0.7938420376913481  0.7938419937336662  0.2061580428948973  1.0000
  O   O3        1.0  0.7938418702632669  0.20615795512763493  0.20615828863074248  1.0000
  O   O4        1.0  0.20615800380727906  0.7938421233554617  0.7938420628482337  1.0000
  O   O5        1.0  0.20615789023638434  0.7938421659503551  0.2061579935613788  1.0000
  O   O6        1.0  0.7938420045095255  0.20615770535197991  0.7938419995532896  1.0000
