data_image0
_chemical_formula_structural       K2NbO6
_chemical_formula_sum              "K2 Nb1 O6"
_cell_length_a       6.289910261790046
_cell_length_b       6.289910556082924
_cell_length_c       6.289909472005581
_cell_angle_alpha    59.9999954351121
_cell_angle_beta     59.99999677670548
_cell_angle_gamma    59.99999296326884

_space_group_name_H-M_alt    "P 1"
_space_group_IT_number       1

loop_
  _space_group_symop_operation_xyz
  'x, y, z'

loop_
  _atom_site_type_symbol
  _atom_site_label
  _atom_site_symmetry_multiplicity
  _atom_site_fract_x
  _atom_site_fract_y
  _atom_site_fract_z
  _atom_site_occupancy
  K   K1        1.0  0.2500000905821049  0.2500000237899791  0.24999995145098722  1.0000
  K   K2        1.0  0.7499999154709942  0.7500001103131156  0.7500000257378335  1.0000
  Nb  Nb1       1.0  0.9999999478530418  1.6745555513226829e-07  3.159599716776602e-07  1.0000
  O   O1        1.0  0.22236995048272074  0.22236950772517544  0.7776301709735489  1.0000
  O   O2        1.0  0.7776301859917814  0.7776303012025565  0.22236961741962952  1.0000
  O   O3        1.0  0.7776302232725475  0.22236967612527633  0.22236978376259522  1.0000
  O   O4        1.0  0.22236956945566502  0.7776305417056258  0.7776302280176585  1.0000
  O   O5        1.0  0.22236976074565626  0.7776302403605965  0.2223697366821284  1.0000
  O   O6        1.0  0.7776304397050119  0.22236948678646914  0.7776303785829031  1.0000
