data_image0
_chemical_formula_structural       K2NbS6
_chemical_formula_sum              "K2 Nb1 S6"
_cell_length_a       6.657883914433487
_cell_length_b       6.657883374320613
_cell_length_c       6.657883570213847
_cell_angle_alpha    60.00000134069594
_cell_angle_beta     60.000001543362906
_cell_angle_gamma    59.999994840855386

_space_group_name_H-M_alt    "P 1"
_space_group_IT_number       1

loop_
  _space_group_symop_operation_xyz
  'x, y, z'

loop_
  _atom_site_type_symbol
  _atom_site_label
  _atom_site_symmetry_multiplicity
  _atom_site_fract_x
  _atom_site_fract_y
  _atom_site_fract_z
  _atom_site_occupancy
  K   K1        1.0  0.2499999536615001  0.24999999396825603  0.24999999342724902  1.0000
  K   K2        1.0  0.7499999859108251  0.7499998880881773  0.7500000653594582  1.0000
  Nb  Nb1       1.0  0.9999998547005254  4.046989893696402e-08  0.9999997144695578  1.0000
  S   S1        1.0  0.2519357044786084  0.2519362749541771  0.7480640233514483  1.0000
  S   S2        1.0  0.7480643579097045  0.7480639878872238  0.2519359368366255  1.0000
  S   S3        1.0  0.7480642738206267  0.25193570997649734  0.25193567958852947  1.0000
  S   S4        1.0  0.2519358992408361  0.7480640543493063  0.7480643904099461  1.0000
  S   S5        1.0  0.2519357568855815  0.7480642341737759  0.25193571379706886  1.0000
  S   S6        1.0  0.7480642047581243  0.25193576377373755  0.7480644081825445  1.0000
