data_image0
_chemical_formula_structural       K2NbTe6
_chemical_formula_sum              "K2 Nb1 Te6"
_cell_length_a       7.452673907096408
_cell_length_b       7.452673044485249
_cell_length_c       7.452673533362711
_cell_angle_alpha    59.99999627758354
_cell_angle_beta     59.99999934970987
_cell_angle_gamma    59.999990605145136

_space_group_name_H-M_alt    "P 1"
_space_group_IT_number       1

loop_
  _space_group_symop_operation_xyz
  'x, y, z'

loop_
  _atom_site_type_symbol
  _atom_site_label
  _atom_site_symmetry_multiplicity
  _atom_site_fract_x
  _atom_site_fract_y
  _atom_site_fract_z
  _atom_site_occupancy
  K   K1        1.0  0.2500000129771239  0.25000004760894134  0.25000001652821674  1.0000
  K   K2        1.0  0.7499999602918493  0.7499999604134997  0.7500000177532339  1.0000
  Nb  Nb1       1.0  0.9999998465955053  2.7937191702804073e-08  0.9999994575816933  1.0000
  Te  Te1       1.0  0.2652545245403412  0.26525444079727234  0.734745746637397  1.0000
  Te  Te2       1.0  0.7347455219091861  0.7347455754419779  0.2652545904462618  1.0000
  Te  Te3       1.0  0.7347456991566966  0.2652542787942234  0.2652544322351206  1.0000
  Te  Te4       1.0  0.265254156386269  0.7347459987398129  0.7347454818741236  1.0000
  Te  Te5       1.0  0.2652544072384071  0.7347457251773691  0.26525448515861333  1.0000
  Te  Te6       1.0  0.7347458672410252  0.26525397882283386  0.7347457558241798  1.0000
