data_image0
_chemical_formula_structural       K2NiS6
_chemical_formula_sum              "K2 Ni1 S6"
_cell_length_a       6.3749211777991
_cell_length_b       6.374921395071065
_cell_length_c       6.374921309142839
_cell_angle_alpha    59.99999988380759
_cell_angle_beta     60.0000002985271
_cell_angle_gamma    59.99999937724122

_space_group_name_H-M_alt    "P 1"
_space_group_IT_number       1

loop_
  _space_group_symop_operation_xyz
  'x, y, z'

loop_
  _atom_site_type_symbol
  _atom_site_label
  _atom_site_symmetry_multiplicity
  _atom_site_fract_x
  _atom_site_fract_y
  _atom_site_fract_z
  _atom_site_occupancy
  K   K1        1.0  0.25000002288618967  0.2500000054104966  0.24999998592431408  1.0000
  K   K2        1.0  0.7499999742691681  0.7499999950983778  0.7500000218087854  1.0000
  Ni  Ni1       1.0  7.234281970557182e-08  5.76357529295169e-09  0.9999999703586839  1.0000
  S   S1        1.0  0.24330554829867704  0.24330556426090244  0.7566944838394424  1.0000
  S   S2        1.0  0.7566943933085374  0.7566944996473122  0.2433055654588156  1.0000
  S   S3        1.0  0.7566945206915388  0.24330551003955458  0.2433055125545103  1.0000
  S   S4        1.0  0.24330545569803153  0.7566944712573997  0.7566944320291619  1.0000
  S   S5        1.0  0.2433054775928329  0.7566944284001418  0.2433056238427516  1.0000
  S   S6        1.0  0.7566945248144307  0.24330551831535296  0.7566944285534937  1.0000
