data_image0
_chemical_formula_structural       K2NiSe6
_chemical_formula_sum              "K2 Ni1 Se6"
_cell_length_a       6.644258784743393
_cell_length_b       6.644258382258222
_cell_length_c       6.64425866862642
_cell_angle_alpha    59.999998549151826
_cell_angle_beta     60.00000242385338
_cell_angle_gamma    60.00000011895376

_space_group_name_H-M_alt    "P 1"
_space_group_IT_number       1

loop_
  _space_group_symop_operation_xyz
  'x, y, z'

loop_
  _atom_site_type_symbol
  _atom_site_label
  _atom_site_symmetry_multiplicity
  _atom_site_fract_x
  _atom_site_fract_y
  _atom_site_fract_z
  _atom_site_occupancy
  K   K1        1.0  0.2499999961422343  0.2500000108444484  0.24999999177205898  1.0000
  K   K2        1.0  0.749999990604367  0.7499999790772633  0.750000014500915  1.0000
  Ni  Ni1       1.0  0.9999999529353159  6.820258639913436e-08  4.481636223405664e-09  1.0000
  Se  Se1       1.0  0.25018229707372375  0.2501823311667411  0.7498176910339246  1.0000
  Se  Se2       1.0  0.7498176816159432  0.7498176255753333  0.25018236595851145  1.0000
  Se  Se3       1.0  0.7498177918667507  0.2501822231775132  0.2501822547541866  1.0000
  Se  Se4       1.0  0.2501822510375917  0.7498177077581778  0.7498177604582223  1.0000
  Se  Se5       1.0  0.25018230264217567  0.749817796177552  0.250182216337544  1.0000
  Se  Se6       1.0  0.7498177034832366  0.2501822711633136  0.7498176768189194  1.0000
