data_image0
_chemical_formula_structural       K2NiTe6
_chemical_formula_sum              "K2 Ni1 Te6"
_cell_length_a       7.154828963586842
_cell_length_b       7.154843056132894
_cell_length_c       7.1548368215357305
_cell_angle_alpha    60.0000546580994
_cell_angle_beta     59.99997486475888
_cell_angle_gamma    60.00003465831965

_space_group_name_H-M_alt    "P 1"
_space_group_IT_number       1

loop_
  _space_group_symop_operation_xyz
  'x, y, z'

loop_
  _atom_site_type_symbol
  _atom_site_label
  _atom_site_symmetry_multiplicity
  _atom_site_fract_x
  _atom_site_fract_y
  _atom_site_fract_z
  _atom_site_occupancy
  K   K1        1.0  0.24999971922797876  0.25000048880125464  0.2500000748558121  1.0000
  K   K2        1.0  0.7499997788161732  0.7500003486180641  0.7499989536420231  1.0000
  Ni  Ni1       1.0  1.934327902715432e-06  1.5611340399323604e-06  2.8589433908990877e-06  1.0000
  Te  Te1       1.0  0.26261941207940537  0.26262292878840815  0.737376567361076  1.0000
  Te  Te2       1.0  0.7373768886756076  0.7373731499131325  0.2626237975693399  1.0000
  Te  Te3       1.0  0.7373804119152101  0.2626220849599726  0.262619340868469  1.0000
  Te  Te4       1.0  0.2626221499149125  0.737377956485999  0.7373784712614594  1.0000
  Te  Te5       1.0  0.26262033028543613  0.7373771494073831  0.26262301032009705  1.0000
  Te  Te6       1.0  0.7373795445192705  0.2626240731601049  0.7373765526881072  1.0000
