data_image0
_chemical_formula_structural       K2NiO6
_chemical_formula_sum              "K2 Ni1 O6"
_cell_length_a       6.013091864038597
_cell_length_b       6.013097253837425
_cell_length_c       6.013093892970864
_cell_angle_alpha    60.00000164327629
_cell_angle_beta     59.99999982200366
_cell_angle_gamma    59.999997024729154

_space_group_name_H-M_alt    "P 1"
_space_group_IT_number       1

loop_
  _space_group_symop_operation_xyz
  'x, y, z'

loop_
  _atom_site_type_symbol
  _atom_site_label
  _atom_site_symmetry_multiplicity
  _atom_site_fract_x
  _atom_site_fract_y
  _atom_site_fract_z
  _atom_site_occupancy
  K   K1        1.0  0.24999968000353007  0.25000010979321236  0.2499999715456996  1.0000
  K   K2        1.0  0.7499999713682757  0.7499999260938998  0.7499999948499939  1.0000
  Ni  Ni1       1.0  1.4439275577137835e-07  0.9999999470432983  0.9999999309994682  1.0000
  O   O1        1.0  0.21172174407897884  0.21172175269396476  0.7882783564892669  1.0000
  O   O2        1.0  0.7882784551639592  0.7882782526410037  0.21172177864759176  1.0000
  O   O3        1.0  0.788278155746839  0.21172173688878201  0.2117218341097659  1.0000
  O   O4        1.0  0.21172165826561712  0.788278531192895  0.7882781943021373  1.0000
  O   O5        1.0  0.2117219744500214  0.7882777771837274  0.21172208602128562  1.0000
  O   O6        1.0  0.7882782553716153  0.21172169858451168  0.7882781090233957  1.0000
