data_image0
_chemical_formula_structural       K2OsO6
_chemical_formula_sum              "K2 Os1 O6"
_cell_length_a       6.3236894814230515
_cell_length_b       6.323686997150738
_cell_length_c       6.323689776510483
_cell_angle_alpha    60.00000155884151
_cell_angle_beta     59.999994219865265
_cell_angle_gamma    60.00000468001424

_space_group_name_H-M_alt    "P 1"
_space_group_IT_number       1

loop_
  _space_group_symop_operation_xyz
  'x, y, z'

loop_
  _atom_site_type_symbol
  _atom_site_label
  _atom_site_symmetry_multiplicity
  _atom_site_fract_x
  _atom_site_fract_y
  _atom_site_fract_z
  _atom_site_occupancy
  K   K1        1.0  0.25000000009657314  0.25000018814804004  0.24999987954223749  1.0000
  K   K2        1.0  0.7499999044270554  0.7499999098200495  0.749999968010701  1.0000
  Os  Os1       1.0  3.1357704166849094e-07  0.9999997385377822  2.45459140347303e-08  1.0000
  O   O1        1.0  0.20793384481255203  0.20793436911885008  0.7920656607904134  1.0000
  O   O2        1.0  0.792066091120002  0.7920658373076295  0.20793393339167107  1.0000
  O   O3        1.0  0.7920658052616821  0.20793439993697158  0.20793396719536478  1.0000
  O   O4        1.0  0.2079339345176253  0.7920656554224332  0.7920659966849186  1.0000
  O   O5        1.0  0.2079341793928748  0.7920655762715992  0.20793426117252362  1.0000
  O   O6        1.0  0.7920659218855526  0.2079340026455599  0.7920660764503025  1.0000
