data_image0
_chemical_formula_structural       K2OsSe6
_chemical_formula_sum              "K2 Os1 Se6"
_cell_length_a       6.7859863942049
_cell_length_b       6.785986350659056
_cell_length_c       6.785985887781958
_cell_angle_alpha    60.000000399350775
_cell_angle_beta     60.00000133442642
_cell_angle_gamma    59.999998825668484

_space_group_name_H-M_alt    "P 1"
_space_group_IT_number       1

loop_
  _space_group_symop_operation_xyz
  'x, y, z'

loop_
  _atom_site_type_symbol
  _atom_site_label
  _atom_site_symmetry_multiplicity
  _atom_site_fract_x
  _atom_site_fract_y
  _atom_site_fract_z
  _atom_site_occupancy
  K   K1        1.0  0.25000002521026576  0.25000000211812845  0.24999998011076618  1.0000
  K   K2        1.0  0.7499999943670802  0.7499999846966087  0.7500000080029239  1.0000
  Os  Os1       1.0  6.570749771891858e-08  9.385037297405819e-08  0.9999997257025327  1.0000
  Se  Se1       1.0  0.25806628030691836  0.2580662506848463  0.7419337407859729  1.0000
  Se  Se2       1.0  0.7419337279962831  0.7419336729613714  0.25806632875780694  1.0000
  Se  Se3       1.0  0.7419337696677218  0.258066201446191  0.25806633632064513  1.0000
  Se  Se4       1.0  0.25806612055292955  0.7419338467322503  0.7419337933641817  1.0000
  Se  Se5       1.0  0.2580662140119378  0.7419337718232281  0.2580663027388501  1.0000
  Se  Se6       1.0  0.7419338101895195  0.2580661807000262  0.741933765048036  1.0000
