data_image0
_chemical_formula_structural       K2OsS6
_chemical_formula_sum              "K2 Os1 S6"
_cell_length_a       6.556781161502127
_cell_length_b       6.556781250262912
_cell_length_c       6.556780759262788
_cell_angle_alpha    60.000003221334616
_cell_angle_beta     60.00000196068243
_cell_angle_gamma    60.000001445155334

_space_group_name_H-M_alt    "P 1"
_space_group_IT_number       1

loop_
  _space_group_symop_operation_xyz
  'x, y, z'

loop_
  _atom_site_type_symbol
  _atom_site_label
  _atom_site_symmetry_multiplicity
  _atom_site_fract_x
  _atom_site_fract_y
  _atom_site_fract_z
  _atom_site_occupancy
  K   K1        1.0  0.24999997369384647  0.25000005043621515  0.24999996791555315  1.0000
  K   K2        1.0  0.7500000310010024  0.7499999589143697  0.7499999892130867  1.0000
  Os  Os1       1.0  0.9999998029576974  0.9999998356243115  3.225468926469661e-07  1.0000
  S   S1        1.0  0.2503097979639527  0.2503097012259821  0.7496902334936923  1.0000
  S   S2        1.0  0.7496902783826421  0.7496903678975809  0.25030965334716976  1.0000
  S   S3        1.0  0.7496903556202009  0.2503096389631274  0.25030971372464095  1.0000
  S   S4        1.0  0.25030967040291396  0.7496903909344182  0.749690185863057  1.0000
  S   S5        1.0  0.25030972524191786  0.7496903753845319  0.250309668346224  1.0000
  S   S6        1.0  0.7496903464440774  0.25030969187112534  0.7496902278594455  1.0000
