data_image0
_chemical_formula_structural       K2PbO6
_chemical_formula_sum              "K2 Pb1 O6"
_cell_length_a       6.217965695466643
_cell_length_b       6.217965839268019
_cell_length_c       6.217965415501013
_cell_angle_alpha    59.99999785209011
_cell_angle_beta     59.99999659961456
_cell_angle_gamma    59.9999972588092

_space_group_name_H-M_alt    "P 1"
_space_group_IT_number       1

loop_
  _space_group_symop_operation_xyz
  'x, y, z'

loop_
  _atom_site_type_symbol
  _atom_site_label
  _atom_site_symmetry_multiplicity
  _atom_site_fract_x
  _atom_site_fract_y
  _atom_site_fract_z
  _atom_site_occupancy
  K   K1        1.0  0.24999983611414084  0.24999995386417528  0.2500001376717602  1.0000
  K   K2        1.0  0.7500001009052356  0.7499999502284526  0.7499999646635979  1.0000
  Pb  Pb1       1.0  3.63635113343529e-07  4.077252985203241e-07  0.9999992331661515  1.0000
  O   O1        1.0  0.24657373633464336  0.24657385999722847  0.7534263508908593  1.0000
  O   O2        1.0  0.7534262033429936  0.7534263592453749  0.24657388202412886  1.0000
  O   O3        1.0  0.7534260221193921  0.24657386535005862  0.2465740681264805  1.0000
  O   O4        1.0  0.24657413011719628  0.7534256270779015  0.7534260262885664  1.0000
  O   O5        1.0  0.24657381344465734  0.75342601133922  0.24657428306792348  1.0000
  O   O6        1.0  0.7534258438343682  0.24657405229808416  0.7534261334676875  1.0000
