data_image0
_chemical_formula_structural       K2PbS6
_chemical_formula_sum              "K2 Pb1 S6"
_cell_length_a       6.741195502628558
_cell_length_b       6.741195068599122
_cell_length_c       6.741194761200201
_cell_angle_alpha    60.00000058494148
_cell_angle_beta     60.00000107342031
_cell_angle_gamma    60.00000162531037

_space_group_name_H-M_alt    "P 1"
_space_group_IT_number       1

loop_
  _space_group_symop_operation_xyz
  'x, y, z'

loop_
  _atom_site_type_symbol
  _atom_site_label
  _atom_site_symmetry_multiplicity
  _atom_site_fract_x
  _atom_site_fract_y
  _atom_site_fract_z
  _atom_site_occupancy
  K   K1        1.0  0.2500000074368324  0.2500000224424796  0.24999995316245896  1.0000
  K   K2        1.0  0.7499999457672706  0.750000009189621  0.7500000277002276  1.0000
  Pb  Pb1       1.0  0.9999999998960967  5.4504202708954375e-09  0.9999999335398291  1.0000
  S   S1        1.0  0.27180663727407334  0.2718066960831398  0.7281934327836719  1.0000
  S   S2        1.0  0.7281931906477982  0.7281932283573598  0.2718067681550939  1.0000
  S   S3        1.0  0.7281932994953608  0.2718067749620044  0.27180657663814467  1.0000
  S   S4        1.0  0.27180682276648543  0.7281932839222016  0.728193285301782  1.0000
  S   S5        1.0  0.27180681067079593  0.728193273376011  0.2718066487086596  1.0000
  S   S6        1.0  0.7281933015571025  0.271806712835925  0.7281933332054551  1.0000
