data_image0
_chemical_formula_structural       K2PdS6
_chemical_formula_sum              "K2 Pd1 S6"
_cell_length_a       6.527374826406152
_cell_length_b       6.52737454308328
_cell_length_c       6.527374634133101
_cell_angle_alpha    60.00000046509247
_cell_angle_beta     60.00000162975042
_cell_angle_gamma    60.00000202906089

_space_group_name_H-M_alt    "P 1"
_space_group_IT_number       1

loop_
  _space_group_symop_operation_xyz
  'x, y, z'

loop_
  _atom_site_type_symbol
  _atom_site_label
  _atom_site_symmetry_multiplicity
  _atom_site_fract_x
  _atom_site_fract_y
  _atom_site_fract_z
  _atom_site_occupancy
  K   K1        1.0  0.2499999865394417  0.2499999995680532  0.2500000073203637  1.0000
  K   K2        1.0  0.7499999945877442  0.7499999893225564  0.749999992315079  1.0000
  Pd  Pd1       1.0  3.4123043623436813e-09  3.752641569483647e-08  0.9999999259103075  1.0000
  S   S1        1.0  0.2571466611602387  0.25714655507310236  0.7428534188364464  1.0000
  S   S2        1.0  0.7428533280792592  0.7428534413227912  0.2571466495906734  1.0000
  S   S3        1.0  0.742853419337434  0.25714658611237756  0.2571464907404049  1.0000
  S   S4        1.0  0.25714654572451223  0.7428534722021015  0.7428535174519417  1.0000
  S   S5        1.0  0.2571466069124698  0.7428534063847979  0.257146500068172  1.0000
  S   S6        1.0  0.7428534108642496  0.2571465468557174  0.7428535051955889  1.0000
