data_image0
_chemical_formula_structural       K2PdSe6
_chemical_formula_sum              "K2 Pd1 Se6"
_cell_length_a       6.794168841072361
_cell_length_b       6.794168812833339
_cell_length_c       6.7941687640799495
_cell_angle_alpha    59.99999993119535
_cell_angle_beta     59.99999911367906
_cell_angle_gamma    59.99999891323209

_space_group_name_H-M_alt    "P 1"
_space_group_IT_number       1

loop_
  _space_group_symop_operation_xyz
  'x, y, z'

loop_
  _atom_site_type_symbol
  _atom_site_label
  _atom_site_symmetry_multiplicity
  _atom_site_fract_x
  _atom_site_fract_y
  _atom_site_fract_z
  _atom_site_occupancy
  K   K1        1.0  0.2499999981099774  0.24999999704423614  0.24999999180205396  1.0000
  K   K2        1.0  0.7500000035316392  0.7499999839221434  0.7500000067912992  1.0000
  Pd  Pd1       1.0  4.101299341963276e-08  0.9999999585392515  0.9999999619557669  1.0000
  Se  Se1       1.0  0.2626063306713725  0.26260621192522343  0.7373937161594326  1.0000
  Se  Se2       1.0  0.7373936681720316  0.7373937672385148  0.2626062979810011  1.0000
  Se  Se3       1.0  0.737393701813764  0.26260627201386066  0.2626063388978539  1.0000
  Se  Se4       1.0  0.2626062866938887  0.7373937738476031  0.7373937088793094  1.0000
  Se  Se5       1.0  0.26260630615202973  0.7373937335747401  0.2626062828817359  1.0000
  Se  Se6       1.0  0.7373936706649884  0.2626063014708764  0.7373937069716999  1.0000
