data_image0
_chemical_formula_structural       K2PdO6
_chemical_formula_sum              "K2 Pd1 O6"
_cell_length_a       6.050201064375752
_cell_length_b       6.050201114706015
_cell_length_c       6.050201236314856
_cell_angle_alpha    59.999998235684586
_cell_angle_beta     60.000000354019036
_cell_angle_gamma    59.999998346362545

_space_group_name_H-M_alt    "P 1"
_space_group_IT_number       1

loop_
  _space_group_symop_operation_xyz
  'x, y, z'

loop_
  _atom_site_type_symbol
  _atom_site_label
  _atom_site_symmetry_multiplicity
  _atom_site_fract_x
  _atom_site_fract_y
  _atom_site_fract_z
  _atom_site_occupancy
  K   K1        1.0  0.2499999602519194  0.24999999818798027  0.2500000032712257  1.0000
  K   K2        1.0  0.7499999385905921  0.7499999641993745  0.7499999299650404  1.0000
  Pd  Pd1       1.0  3.377730810774975e-06  2.5890852743850214e-06  1.1024064789830629e-06  1.0000
  O   O1        1.0  0.21339888177183194  0.21339890768162076  0.7866011871853981  1.0000
  O   O2        1.0  0.7865979657092436  0.7865978644019601  0.2134021908396366  1.0000
  O   O3        1.0  0.7866005880198184  0.21339959665240274  0.21339945046094388  1.0000
  O   O4        1.0  0.2134015186980163  0.7865985458852633  0.7865985830341542  1.0000
  O   O5        1.0  0.21339936190898653  0.7866007339837789  0.21339929936422697  1.0000
  O   O6        1.0  0.7865983735195923  0.21340181951332376  0.7865982713352285  1.0000
