data_image0
_chemical_formula_structural       K2PO6
_chemical_formula_sum              "K2 P1 O6"
_cell_length_a       6.1098686916367715
_cell_length_b       6.10986980067414
_cell_length_c       6.109869928050615
_cell_angle_alpha    59.99999646386856
_cell_angle_beta     59.9999879340457
_cell_angle_gamma    59.999990514485944

_space_group_name_H-M_alt    "P 1"
_space_group_IT_number       1

loop_
  _space_group_symop_operation_xyz
  'x, y, z'

loop_
  _atom_site_type_symbol
  _atom_site_label
  _atom_site_symmetry_multiplicity
  _atom_site_fract_x
  _atom_site_fract_y
  _atom_site_fract_z
  _atom_site_occupancy
  K   K1        1.0  0.2500000677448968  0.24999989782097387  0.2500000370380706  1.0000
  K   K2        1.0  0.7500000414995122  0.7500000482656716  0.7499998689144762  1.0000
  P   P1        1.0  0.9999998927345656  0.9999999759455848  3.4226156280784724e-07  1.0000
  O   O1        1.0  0.19794388918055475  0.1979443546332061  0.8020558693912734  1.0000
  O   O2        1.0  0.8020562784477211  0.8020551725055753  0.19794416774239681  1.0000
  O   O3        1.0  0.8020556641506104  0.19794471956082607  0.19794428081763085  1.0000
  O   O4        1.0  0.19794393000395497  0.802055677546287  0.8020560941674612  1.0000
  O   O5        1.0  0.19794443920741722  0.8020553139383181  0.19794440958983378  1.0000
  O   O6        1.0  0.8020560239451516  0.19794453993966987  0.802055627384318  1.0000
