data_image0
_chemical_formula_structural       K2PSe6
_chemical_formula_sum              "K2 P1 Se6"
_cell_length_a       6.741298400692098
_cell_length_b       6.7412989956656055
_cell_length_c       6.741298841472871
_cell_angle_alpha    60.000001586958035
_cell_angle_beta     60.00000204068841
_cell_angle_gamma    60.000004368821905

_space_group_name_H-M_alt    "P 1"
_space_group_IT_number       1

loop_
  _space_group_symop_operation_xyz
  'x, y, z'

loop_
  _atom_site_type_symbol
  _atom_site_label
  _atom_site_symmetry_multiplicity
  _atom_site_fract_x
  _atom_site_fract_y
  _atom_site_fract_z
  _atom_site_occupancy
  K   K1        1.0  0.2500000075186639  0.2500000270719557  0.2499999743057237  1.0000
  K   K2        1.0  0.7500000165713661  0.7499999758427032  0.7500000052971509  1.0000
  P   P1        1.0  0.9999999070891077  2.1801342540951094e-08  1.4367177509296642e-09  1.0000
  Se  Se1       1.0  0.24466554949352418  0.24466542011689899  0.7553344738489741  1.0000
  Se  Se2       1.0  0.7553344472261431  0.7553345210272848  0.2446654346196122  1.0000
  Se  Se3       1.0  0.7553346330862958  0.2446654629327705  0.24466552166248565  1.0000
  Se  Se4       1.0  0.24466545476009485  0.7553345799510198  0.7553345128819892  1.0000
  Se  Se5       1.0  0.24466535731686548  0.7553346686444434  0.24466543983502967  1.0000
  Se  Se6       1.0  0.755334632637386  0.2446652979346406  0.7553346580735654  1.0000
