data_image0
_chemical_formula_structural       K2PS6
_chemical_formula_sum              "K2 P1 S6"
_cell_length_a       6.7537802686028785
_cell_length_b       6.7537824238307405
_cell_length_c       6.753780004024651
_cell_angle_alpha    59.999998597054855
_cell_angle_beta     59.99999760844876
_cell_angle_gamma    59.99999945238945

_space_group_name_H-M_alt    "P 1"
_space_group_IT_number       1

loop_
  _space_group_symop_operation_xyz
  'x, y, z'

loop_
  _atom_site_type_symbol
  _atom_site_label
  _atom_site_symmetry_multiplicity
  _atom_site_fract_x
  _atom_site_fract_y
  _atom_site_fract_z
  _atom_site_occupancy
  K   K1        1.0  0.2500000644967411  0.2499999607050508  0.2500000320843553  1.0000
  K   K2        1.0  0.7499999375492307  0.7500000344425372  0.7499998889457065  1.0000
  P   P1        1.0  0.9999999542526709  0.999999978238988  0.9999997879658897  1.0000
  S   S1        1.0  0.23038419888001546  0.23038408963646906  0.7696158952374677  1.0000
  S   S2        1.0  0.7696159092569393  0.7696157513703296  0.230384249705572  1.0000
  S   S3        1.0  0.7696158858498996  0.23038415734844164  0.2303841360636208  1.0000
  S   S4        1.0  0.23038404390224257  0.76961598287276  0.769616065436132  1.0000
  S   S5        1.0  0.23038400562241257  0.7696159167521033  0.23038405532019793  1.0000
  S   S6        1.0  0.7696160495282826  0.23038407295519464  0.7696160269591854  1.0000
