data_image0
_chemical_formula_structural       K2PtSe6
_chemical_formula_sum              "K2 Pt1 Se6"
_cell_length_a       6.764504536994473
_cell_length_b       6.7645019388028205
_cell_length_c       6.764502387931428
_cell_angle_alpha    60.00000115279345
_cell_angle_beta     59.99998885464864
_cell_angle_gamma    59.99997871637451

_space_group_name_H-M_alt    "P 1"
_space_group_IT_number       1

loop_
  _space_group_symop_operation_xyz
  'x, y, z'

loop_
  _atom_site_type_symbol
  _atom_site_label
  _atom_site_symmetry_multiplicity
  _atom_site_fract_x
  _atom_site_fract_y
  _atom_site_fract_z
  _atom_site_occupancy
  K   K1        1.0  0.2499999353312329  0.25000002554162254  0.2500000760462067  1.0000
  K   K2        1.0  0.749999900568042  0.7500001001619337  0.7499999029879391  1.0000
  Pt  Pt1       1.0  7.258985286727997e-08  1.0573593925935275e-06  0.9999984105597918  1.0000
  Se  Se1       1.0  0.2586088296097046  0.2586093172057532  0.7413908319888429  1.0000
  Se  Se2       1.0  0.741388829729679  0.7413896515585426  0.2586109956267627  1.0000
  Se  Se3       1.0  0.7413908346820408  0.2586097585596866  0.25860890169646195  1.0000
  Se  Se4       1.0  0.2586105145216805  0.7413900213290724  0.7413899894904825  1.0000
  Se  Se5       1.0  0.2586101887520894  0.7413902187820376  0.2586098426718361  1.0000
  Se  Se6       1.0  0.7413909426915691  0.25860985079454  0.7413910452211152  1.0000
