data_image0
_chemical_formula_structural       K2PtO6
_chemical_formula_sum              "K2 Pt1 O6"
_cell_length_a       6.150386317394367
_cell_length_b       6.150386437542299
_cell_length_c       6.150386492835385
_cell_angle_alpha    60.00000190112007
_cell_angle_beta     60.00000203633763
_cell_angle_gamma    60.00000145258719

_space_group_name_H-M_alt    "P 1"
_space_group_IT_number       1

loop_
  _space_group_symop_operation_xyz
  'x, y, z'

loop_
  _atom_site_type_symbol
  _atom_site_label
  _atom_site_symmetry_multiplicity
  _atom_site_fract_x
  _atom_site_fract_y
  _atom_site_fract_z
  _atom_site_occupancy
  K   K1        1.0  0.2500000225399587  0.24999996245757652  0.24999996746439154  1.0000
  K   K2        1.0  0.7499999899222866  0.7499999909218878  0.7500000927066501  1.0000
  Pt  Pt1       1.0  0.9999999920542191  0.99999999004335  0.9999999780588475  1.0000
  O   O1        1.0  0.2176543828115447  0.21765442328179788  0.78234560501048  1.0000
  O   O2        1.0  0.7823455448793338  0.7823456436034706  0.21765438713817853  1.0000
  O   O3        1.0  0.7823456468277189  0.21765440246639445  0.21765432207544674  1.0000
  O   O4        1.0  0.2176543308155603  0.7823456046789763  0.782345644074593  1.0000
  O   O5        1.0  0.2176544357151579  0.7823455770506268  0.21765438740807197  1.0000
  O   O6        1.0  0.7823456032199926  0.21765443208607382  0.7823455471003684  1.0000
