data_image0
_chemical_formula_structural       K2PtS6
_chemical_formula_sum              "K2 Pt1 S6"
_cell_length_a       6.485155288766693
_cell_length_b       6.485154632135786
_cell_length_c       6.485154888785135
_cell_angle_alpha    59.99999952662507
_cell_angle_beta     60.000000196540135
_cell_angle_gamma    60.00000022369772

_space_group_name_H-M_alt    "P 1"
_space_group_IT_number       1

loop_
  _space_group_symop_operation_xyz
  'x, y, z'

loop_
  _atom_site_type_symbol
  _atom_site_label
  _atom_site_symmetry_multiplicity
  _atom_site_fract_x
  _atom_site_fract_y
  _atom_site_fract_z
  _atom_site_occupancy
  K   K1        1.0  0.24999999328498518  0.2500000137420281  0.24999999082080482  1.0000
  K   K2        1.0  0.7500000821382065  0.7499999373565998  0.7499999886753612  1.0000
  Pt  Pt1       1.0  0.9999999996203845  1.1331216701187913e-07  0.9999998911062956  1.0000
  S   S1        1.0  0.25328784673712845  0.253287736821374  0.746712240402268  1.0000
  S   S2        1.0  0.746712282101924  0.7467122142772558  0.25328775710347934  1.0000
  S   S3        1.0  0.7467122371805667  0.25328770108826004  0.25328774205782495  1.0000
  S   S4        1.0  0.2532875901535  0.7467123746537474  0.7467123485046813  1.0000
  S   S5        1.0  0.2532876730854036  0.7467122815571416  0.25328772381701664  1.0000
  S   S6        1.0  0.7467122858844341  0.25328764499051326  0.7467123030515663  1.0000
