data_image0
_chemical_formula_structural       K2ReO6
_chemical_formula_sum              "K2 Re1 O6"
_cell_length_a       6.4403684738185
_cell_length_b       6.44036396748853
_cell_length_c       6.440370985954268
_cell_angle_alpha    59.999987423717634
_cell_angle_beta     60.000002699605346
_cell_angle_gamma    60.00000193645813

_space_group_name_H-M_alt    "P 1"
_space_group_IT_number       1

loop_
  _space_group_symop_operation_xyz
  'x, y, z'

loop_
  _atom_site_type_symbol
  _atom_site_label
  _atom_site_symmetry_multiplicity
  _atom_site_fract_x
  _atom_site_fract_y
  _atom_site_fract_z
  _atom_site_occupancy
  K   K1        1.0  0.2499999519028961  0.25000000644038173  0.2499999963738428  1.0000
  K   K2        1.0  0.7499999895585581  0.7500001771599027  0.7500001817670762  1.0000
  Re  Re1       1.0  0.9999994632851668  1.0991653697406027e-06  0.999999200171198  1.0000
  O   O1        1.0  0.20761653718749246  0.20761621071640163  0.7923838401531597  1.0000
  O   O2        1.0  0.7923836658960338  0.7923838549803751  0.20761631892047683  1.0000
  O   O3        1.0  0.7923837838624677  0.20761573072925563  0.20761667022053187  1.0000
  O   O4        1.0  0.20761649142919006  0.792383117898429  0.7923843640609667  1.0000
  O   O5        1.0  0.20761635452622326  0.7923832097598008  0.2076158944850218  1.0000
  O   O6        1.0  0.792383047002051  0.2076167057046849  0.7923840666080413  1.0000
