data_image0
_chemical_formula_structural       K2ReTe6
_chemical_formula_sum              "K2 Re1 Te6"
_cell_length_a       7.3481177775490645
_cell_length_b       7.3481182584772515
_cell_length_c       7.3481145726966615
_cell_angle_alpha    60.0000095747621
_cell_angle_beta     60.0000065025637
_cell_angle_gamma    60.00000573659101

_space_group_name_H-M_alt    "P 1"
_space_group_IT_number       1

loop_
  _space_group_symop_operation_xyz
  'x, y, z'

loop_
  _atom_site_type_symbol
  _atom_site_label
  _atom_site_symmetry_multiplicity
  _atom_site_fract_x
  _atom_site_fract_y
  _atom_site_fract_z
  _atom_site_occupancy
  K   K1        1.0  0.250000581782768  0.2500001210084136  0.250000095820343  1.0000
  K   K2        1.0  0.7499998452362608  0.7499998546678086  0.7499994449123617  1.0000
  Re  Re1       1.0  0.99999990056435  4.350207222946762e-07  5.131127048588794e-08  1.0000
  Te  Te1       1.0  0.25994947788807365  0.25994919354405854  0.7400505637941621  1.0000
  Te  Te2       1.0  0.7400503765692726  0.7400503171099996  0.2599497053080957  1.0000
  Te  Te3       1.0  0.7400503462435242  0.2599495805137502  0.25994932942922316  1.0000
  Te  Te4       1.0  0.2599503948232928  0.7400503251591325  0.7400500715896293  1.0000
  Te  Te5       1.0  0.2599494292871948  0.7400505506530342  0.25994967220954945  1.0000
  Te  Te6       1.0  0.7400498490100514  0.2599500850546416  0.7400504653397223  1.0000
