data_image0
_chemical_formula_structural       K2ReS6
_chemical_formula_sum              "K2 Re1 S6"
_cell_length_a       6.583985369103518
_cell_length_b       6.583985215566644
_cell_length_c       6.583985512160473
_cell_angle_alpha    60.000001510529586
_cell_angle_beta     60.00000260631594
_cell_angle_gamma    60.00000027248028

_space_group_name_H-M_alt    "P 1"
_space_group_IT_number       1

loop_
  _space_group_symop_operation_xyz
  'x, y, z'

loop_
  _atom_site_type_symbol
  _atom_site_label
  _atom_site_symmetry_multiplicity
  _atom_site_fract_x
  _atom_site_fract_y
  _atom_site_fract_z
  _atom_site_occupancy
  K   K1        1.0  0.2500000394325423  0.24999999502061737  0.2499999922828459  1.0000
  K   K2        1.0  0.7499999479660824  0.7499999962229779  0.7499999728977147  1.0000
  Re  Re1       1.0  1.0896722563360893e-08  0.9999998883887299  0.9999997982303498  1.0000
  S   S1        1.0  0.247309930983077  0.24730977620483466  0.752690177645926  1.0000
  S   S2        1.0  0.7526901440357603  0.752690157372943  0.24730991836577806  1.0000
  S   S3        1.0  0.7526901327931715  0.24730982726530543  0.24730993314890926  1.0000
  S   S4        1.0  0.24730980610081502  0.7526901937412953  0.7526901112689637  1.0000
  S   S5        1.0  0.247309761282989  0.7526902405656837  0.2473099049395406  1.0000
  S   S6        1.0  0.7526901733221858  0.24730988275124408  0.7526901329950093  1.0000
