data_image0
_chemical_formula_structural       K2RhS6
_chemical_formula_sum              "K2 Rh1 S6"
_cell_length_a       6.441538895075834
_cell_length_b       6.441539387323257
_cell_length_c       6.441539440271224
_cell_angle_alpha    59.99999335807004
_cell_angle_beta     59.99998725583165
_cell_angle_gamma    59.99999435049103

_space_group_name_H-M_alt    "P 1"
_space_group_IT_number       1

loop_
  _space_group_symop_operation_xyz
  'x, y, z'

loop_
  _atom_site_type_symbol
  _atom_site_label
  _atom_site_symmetry_multiplicity
  _atom_site_fract_x
  _atom_site_fract_y
  _atom_site_fract_z
  _atom_site_occupancy
  K   K1        1.0  0.2499999855182126  0.25000005480524373  0.24999994899319944  1.0000
  K   K2        1.0  0.7500000246574084  0.7500000085072118  0.7499999359027694  1.0000
  Rh  Rh1       1.0  2.0269000338381523e-07  0.9999988649099346  7.192451716789436e-07  1.0000
  S   S1        1.0  0.2541505611232199  0.25415096477595245  0.7458491140795128  1.0000
  S   S2        1.0  0.7458488561320914  0.7458496404136753  0.25415076218471655  1.0000
  S   S3        1.0  0.7458495744414675  0.25415040231399516  0.25415046046400086  1.0000
  S   S4        1.0  0.2541507304078618  0.7458495621296416  0.7458492846140596  1.0000
  S   S5        1.0  0.25415070927063416  0.7458495582449828  0.25415040133020483  1.0000
  S   S6        1.0  0.7458493031602439  0.2541509822996357  0.7458493462820106  1.0000
