data_image0
_chemical_formula_structural       K2RhO6
_chemical_formula_sum              "K2 Rh1 O6"
_cell_length_a       6.290097510666319
_cell_length_b       6.290097141067677
_cell_length_c       6.290097724367476
_cell_angle_alpha    59.99999365599262
_cell_angle_beta     59.999996172039225
_cell_angle_gamma    59.999994931130395

_space_group_name_H-M_alt    "P 1"
_space_group_IT_number       1

loop_
  _space_group_symop_operation_xyz
  'x, y, z'

loop_
  _atom_site_type_symbol
  _atom_site_label
  _atom_site_symmetry_multiplicity
  _atom_site_fract_x
  _atom_site_fract_y
  _atom_site_fract_z
  _atom_site_occupancy
  K   K1        1.0  0.2500000488538535  0.24999993405329185  0.2500000286958139  1.0000
  K   K2        1.0  0.7500000117503944  0.7500000689126094  0.7499999930900471  1.0000
  Rh  Rh1       1.0  0.9999999142926571  1.304557124419944e-07  1.1752825067200647e-07  1.0000
  O   O1        1.0  0.21521954214976963  0.2152196596799448  0.7847803950225491  1.0000
  O   O2        1.0  0.7847806309534047  0.784780380280862  0.21521949796317832  1.0000
  O   O3        1.0  0.7847804065793712  0.21521957008639486  0.21521948722002043  1.0000
  O   O4        1.0  0.21521949259080544  0.7847804270382106  0.7847804496846831  1.0000
  O   O5        1.0  0.21521955304744828  0.7847803528065758  0.21521960124218337  1.0000
  O   O6        1.0  0.7847804396184668  0.21521949049710606  0.784780534343959  1.0000
