data_image0
_chemical_formula_structural       K2RuSe6
_chemical_formula_sum              "K2 Ru1 Se6"
_cell_length_a       6.757001993853648
_cell_length_b       6.757001391394577
_cell_length_c       6.757001177538774
_cell_angle_alpha    60.0000065941942
_cell_angle_beta     60.000003241127054
_cell_angle_gamma    60.00000330029847

_space_group_name_H-M_alt    "P 1"
_space_group_IT_number       1

loop_
  _space_group_symop_operation_xyz
  'x, y, z'

loop_
  _atom_site_type_symbol
  _atom_site_label
  _atom_site_symmetry_multiplicity
  _atom_site_fract_x
  _atom_site_fract_y
  _atom_site_fract_z
  _atom_site_occupancy
  K   K1        1.0  0.24999998569954085  0.25000002640273244  0.2500000253840547  1.0000
  K   K2        1.0  0.7499999544242555  0.7500000103310367  0.7500000024118868  1.0000
  Ru  Ru1       1.0  1.87566835196502e-07  0.9999998423075465  0.9999996017566672  1.0000
  Se  Se1       1.0  0.2587079298040528  0.2587081054364438  0.7412921711867613  1.0000
  Se  Se2       1.0  0.7412919606225565  0.7412919983619364  0.2587080743572805  1.0000
  Se  Se3       1.0  0.7412921214888933  0.2587078953229418  0.25870789618013684  1.0000
  Se  Se4       1.0  0.25870794689093884  0.741291987343504  0.7412920276056705  1.0000
  Se  Se5       1.0  0.25870795562955695  0.7412920951859245  0.25870810935677185  1.0000
  Se  Se6       1.0  0.7412919612241969  0.2587080267380214  0.7412920946716111  1.0000
