data_image0
_chemical_formula_structural       K2RuS6
_chemical_formula_sum              "K2 Ru1 S6"
_cell_length_a       6.4500840824819585
_cell_length_b       6.4500844485675835
_cell_length_c       6.450084759196871
_cell_angle_alpha    59.999996419203946
_cell_angle_beta     59.999999775812924
_cell_angle_gamma    59.99999859863435

_space_group_name_H-M_alt    "P 1"
_space_group_IT_number       1

loop_
  _space_group_symop_operation_xyz
  'x, y, z'

loop_
  _atom_site_type_symbol
  _atom_site_label
  _atom_site_symmetry_multiplicity
  _atom_site_fract_x
  _atom_site_fract_y
  _atom_site_fract_z
  _atom_site_occupancy
  K   K1        1.0  0.25000000228490904  0.2500000080241426  0.24999999263475578  1.0000
  K   K2        1.0  0.7499999721178379  0.7499999993879702  0.7499999936616354  1.0000
  Ru  Ru1       1.0  5.871240784406061e-07  0.999999565173683  2.547072482504779e-06  1.0000
  S   S1        1.0  0.25617372062360655  0.2561737577260408  0.7438260571877037  1.0000
  S   S2        1.0  0.7438261987696873  0.743826318043047  0.25617351933944604  1.0000
  S   S3        1.0  0.7438264641445828  0.2561734614690573  0.2561733085497685  1.0000
  S   S4        1.0  0.2561739621421767  0.7438259744029415  0.7438258042536243  1.0000
  S   S5        1.0  0.25617329344134476  0.7438266920323467  0.25617313685076243  1.0000
  S   S6        1.0  0.7438258012293318  0.25617423060356287  0.7438256797768831  1.0000
