data_image0
_chemical_formula_structural       K2RuO6
_chemical_formula_sum              "K2 Ru1 O6"
_cell_length_a       6.262353347010145
_cell_length_b       6.262353588008159
_cell_length_c       6.26235313322039
_cell_angle_alpha    60.00000387737288
_cell_angle_beta     60.00000219010613
_cell_angle_gamma    60.000004007126094

_space_group_name_H-M_alt    "P 1"
_space_group_IT_number       1

loop_
  _space_group_symop_operation_xyz
  'x, y, z'

loop_
  _atom_site_type_symbol
  _atom_site_label
  _atom_site_symmetry_multiplicity
  _atom_site_fract_x
  _atom_site_fract_y
  _atom_site_fract_z
  _atom_site_occupancy
  K   K1        1.0  0.24999999001912204  0.24999995711216882  0.2500000381541817  1.0000
  K   K2        1.0  0.7499999594606954  0.7499998146204496  0.7500000523082783  1.0000
  Ru  Ru1       1.0  0.9999999411078078  0.9999999941328221  1.1222187633176565e-07  1.0000
  O   O1        1.0  0.2072370089168104  0.20723731643871737  0.7927627641311067  1.0000
  O   O2        1.0  0.7927629945338142  0.792762719316918  0.20723704437746934  1.0000
  O   O3        1.0  0.792762727284597  0.20723738238185874  0.2072373414058118  1.0000
  O   O4        1.0  0.2072373268071096  0.7927626729310431  0.7927628312145495  1.0000
  O   O5        1.0  0.20723743381228396  0.7927625931254472  0.2072373366979121  1.0000
  O   O6        1.0  0.7927627332032763  0.20723743871874137  0.7927626490757784  1.0000
