data_image0
_chemical_formula_structural       K2SeO6
_chemical_formula_sum              "K2 Se1 O6"
_cell_length_a       6.228597945371211
_cell_length_b       6.228598418645229
_cell_length_c       6.228597876618568
_cell_angle_alpha    59.99999874708741
_cell_angle_beta     59.999996918494034
_cell_angle_gamma    59.999997400754935

_space_group_name_H-M_alt    "P 1"
_space_group_IT_number       1

loop_
  _space_group_symop_operation_xyz
  'x, y, z'

loop_
  _atom_site_type_symbol
  _atom_site_label
  _atom_site_symmetry_multiplicity
  _atom_site_fract_x
  _atom_site_fract_y
  _atom_site_fract_z
  _atom_site_occupancy
  K   K1        1.0  0.24999996005948277  0.25000006700694094  0.2500000270070361  1.0000
  K   K2        1.0  0.7499998907426924  0.7500000358495205  0.7500001920400957  1.0000
  Se  Se1       1.0  0.9999931039691917  6.941127676760728e-07  8.225708059500981e-06  1.0000
  O   O1        1.0  0.20639410792503549  0.20639212038526883  0.7936055387929524  1.0000
  O   O2        1.0  0.7936079234943167  0.7936058509749141  0.20639169836684776  1.0000
  O   O3        1.0  0.7936072499856961  0.20639446789056048  0.20639226809596237  1.0000
  O   O4        1.0  0.20639385757495635  0.7936076209541346  0.793605973157214  1.0000
  O   O5        1.0  0.20639550613334598  0.7936061346044067  0.2063913949138245  1.0000
  O   O6        1.0  0.7936086165430452  0.20639299885377518  0.7936047485936256  1.0000
