data_image0
_chemical_formula_structural       K2SeS6
_chemical_formula_sum              "K2 Se1 S6"
_cell_length_a       6.826344342040679
_cell_length_b       6.826343563526629
_cell_length_c       6.826343793429872
_cell_angle_alpha    60.00000121411019
_cell_angle_beta     59.999994544280035
_cell_angle_gamma    60.00000184694048

_space_group_name_H-M_alt    "P 1"
_space_group_IT_number       1

loop_
  _space_group_symop_operation_xyz
  'x, y, z'

loop_
  _atom_site_type_symbol
  _atom_site_label
  _atom_site_symmetry_multiplicity
  _atom_site_fract_x
  _atom_site_fract_y
  _atom_site_fract_z
  _atom_site_occupancy
  K   K1        1.0  0.24999998207489846  0.250000015724795  0.25000004192136327  1.0000
  K   K2        1.0  0.7499999771179997  0.7499999646437185  0.7499999831177687  1.0000
  Se  Se1       1.0  0.9999999163290686  0.9999999820585576  2.060869733868001e-07  1.0000
  S   S1        1.0  0.23411688903068367  0.23411686581715863  0.7658830400554498  1.0000
  S   S2        1.0  0.7658830979274612  0.7658831073747674  0.23411680475943866  1.0000
  S   S3        1.0  0.7658831308197047  0.23411697185787944  0.23411700299625454  1.0000
  S   S4        1.0  0.23411711410794595  0.7658828972736708  0.7658829011009636  1.0000
  S   S5        1.0  0.23411699813363473  0.7658830660840221  0.23411713450828164  1.0000
  S   S6        1.0  0.7658829106853959  0.234117131376006  0.7658828540492505  1.0000
