data_image0
_chemical_formula_structural       K2SiS6
_chemical_formula_sum              "K2 Si1 S6"
_cell_length_a       6.648126024207182
_cell_length_b       6.648125979508442
_cell_length_c       6.648126853935542
_cell_angle_alpha    59.99999264808683
_cell_angle_beta     59.999996504388854
_cell_angle_gamma    59.99999474971614

_space_group_name_H-M_alt    "P 1"
_space_group_IT_number       1

loop_
  _space_group_symop_operation_xyz
  'x, y, z'

loop_
  _atom_site_type_symbol
  _atom_site_label
  _atom_site_symmetry_multiplicity
  _atom_site_fract_x
  _atom_site_fract_y
  _atom_site_fract_z
  _atom_site_occupancy
  K   K1        1.0  0.24999998322033304  0.24999999216139998  0.25000001731631766  1.0000
  K   K2        1.0  0.7499999890643932  0.7500000354359088  0.7500000072839496  1.0000
  Si  Si1       1.0  1.895127048240721e-07  2.0264647205928615e-08  0.9999999236908031  1.0000
  S   S1        1.0  0.24471556690655263  0.2447157214669809  0.7552842846577498  1.0000
  S   S2        1.0  0.7552842637425482  0.755284355870839  0.24471565502614404  1.0000
  S   S3        1.0  0.7552843507365176  0.2447156169735842  0.24471559030563622  1.0000
  S   S4        1.0  0.2447156040048296  0.7552843590409832  0.7552843560439606  1.0000
  S   S5        1.0  0.24471566543269196  0.755284243147801  0.24471570061217668  1.0000
  S   S6        1.0  0.7552843665562377  0.24471571997106878  0.7552844978520826  1.0000
