data_image0
_chemical_formula_structural       K2SiTe6
_chemical_formula_sum              "K2 Si1 Te6"
_cell_length_a       7.3603124061263445
_cell_length_b       7.360431798094884
_cell_length_c       7.360114933525864
_cell_angle_alpha    60.00058647402335
_cell_angle_beta     60.00072196067534
_cell_angle_gamma    60.000986519400115

_space_group_name_H-M_alt    "P 1"
_space_group_IT_number       1

loop_
  _space_group_symop_operation_xyz
  'x, y, z'

loop_
  _atom_site_type_symbol
  _atom_site_label
  _atom_site_symmetry_multiplicity
  _atom_site_fract_x
  _atom_site_fract_y
  _atom_site_fract_z
  _atom_site_occupancy
  K   K1        1.0  0.24999027918248445  0.24999100453844045  0.2500162226898578  1.0000
  K   K2        1.0  0.7500076887849919  0.749998537106108  0.7500016125390064  1.0000
  Si  Si1       1.0  1.6352119365453694e-05  0.9999399907480714  0.00011940892363250034  1.0000
  Te  Te1       1.0  0.26437266007255084  0.26440411551202014  0.7356186573762359  1.0000
  Te  Te2       1.0  0.7356267927239657  0.7356105800492062  0.2643763720537744  1.0000
  Te  Te3       1.0  0.7356433831799042  0.2643984586480929  0.2643250747836664  1.0000
  Te  Te4       1.0  0.2644485004940422  0.735536735931828  0.7356369402287619  1.0000
  Te  Te5       1.0  0.26434317608630087  0.7356390202525764  0.26432306163778463  1.0000
  Te  Te6       1.0  0.7355526440380163  0.2644816522443978  0.7355851700976678  1.0000
