data_image0
_chemical_formula_structural       K2SiO6
_chemical_formula_sum              "K2 Si1 O6"
_cell_length_a       6.058344411413024
_cell_length_b       6.058347516762611
_cell_length_c       6.058344756701623
_cell_angle_alpha    60.000019822707294
_cell_angle_beta     59.999998723794036
_cell_angle_gamma    60.00001512021944

_space_group_name_H-M_alt    "P 1"
_space_group_IT_number       1

loop_
  _space_group_symop_operation_xyz
  'x, y, z'

loop_
  _atom_site_type_symbol
  _atom_site_label
  _atom_site_symmetry_multiplicity
  _atom_site_fract_x
  _atom_site_fract_y
  _atom_site_fract_z
  _atom_site_occupancy
  K   K1        1.0  0.24999996276463762  0.24999998008575533  0.25000010335069917  1.0000
  K   K2        1.0  0.750000087670652  0.7499998796097905  0.7499999782395409  1.0000
  Si  Si1       1.0  0.9999997786402786  0.9999998807266645  0.9999998831093618  1.0000
  O   O1        1.0  0.20345835405272172  0.20345832361808977  0.796542188246268  1.0000
  O   O2        1.0  0.7965409779451906  0.7965417301493661  0.20345871508548938  1.0000
  O   O3        1.0  0.7965419903439677  0.20345847780509677  0.20345817868265484  1.0000
  O   O4        1.0  0.20345839255874587  0.7965413050703251  0.7965417222642264  1.0000
  O   O5        1.0  0.20345892116684094  0.7965417839230534  0.20345705705138037  1.0000
  O   O6        1.0  0.7965417610782758  0.203458593297383  0.796541720299308  1.0000
