data_image0
_chemical_formula_structural       K2SnTe6
_chemical_formula_sum              "K2 Sn1 Te6"
_cell_length_a       7.6229795957508415
_cell_length_b       7.622979600891053
_cell_length_c       7.6229786374141355
_cell_angle_alpha    60.00000567679942
_cell_angle_beta     60.000004347208915
_cell_angle_gamma    60.00001296463598

_space_group_name_H-M_alt    "P 1"
_space_group_IT_number       1

loop_
  _space_group_symop_operation_xyz
  'x, y, z'

loop_
  _atom_site_type_symbol
  _atom_site_label
  _atom_site_symmetry_multiplicity
  _atom_site_fract_x
  _atom_site_fract_y
  _atom_site_fract_z
  _atom_site_occupancy
  K   K1        1.0  0.25000009788571853  0.2499999813765026  0.24999996240903755  1.0000
  K   K2        1.0  0.7499999043158787  0.7500000260685316  0.7500000251863616  1.0000
  Sn  Sn1       1.0  0.9999998424435529  3.4542937494376045e-07  0.9999997591393448  1.0000
  Te  Te1       1.0  0.27739259518221987  0.27739276347796704  0.7226073074864812  1.0000
  Te  Te2       1.0  0.7226072285057591  0.7226073114462775  0.2773926713467871  1.0000
  Te  Te3       1.0  0.7226074288476634  0.27739257268586875  0.27739279194910343  1.0000
  Te  Te4       1.0  0.2773924755979223  0.7226074508256362  0.7226071013732797  1.0000
  Te  Te5       1.0  0.2773927986024243  0.7226072154493253  0.2773930445823249  1.0000
  Te  Te6       1.0  0.722607639139545  0.27739232606774145  0.7226073386355867  1.0000
