data_image0
_chemical_formula_structural       K2SnS6
_chemical_formula_sum              "K2 Sn1 S6"
_cell_length_a       6.84987000510597
_cell_length_b       6.849869201034253
_cell_length_c       6.849870209398586
_cell_angle_alpha    59.99999668053206
_cell_angle_beta     59.999997539807055
_cell_angle_gamma    60.00000221057997

_space_group_name_H-M_alt    "P 1"
_space_group_IT_number       1

loop_
  _space_group_symop_operation_xyz
  'x, y, z'

loop_
  _atom_site_type_symbol
  _atom_site_label
  _atom_site_symmetry_multiplicity
  _atom_site_fract_x
  _atom_site_fract_y
  _atom_site_fract_z
  _atom_site_occupancy
  K   K1        1.0  0.25000000752270096  0.2499999684686865  0.2499999983239862  1.0000
  K   K2        1.0  0.7500000106978427  0.7500000269888978  0.7500000131097547  1.0000
  Sn  Sn1       1.0  0.9999999995909727  2.145579685059128e-08  7.706951599736438e-08  1.0000
  S   S1        1.0  0.25862418580867497  0.2586242750633759  0.7413757610421319  1.0000
  S   S2        1.0  0.7413758315938198  0.7413757633057964  0.2586241592705195  1.0000
  S   S3        1.0  0.7413758506641435  0.2586241801565376  0.25862419429628564  1.0000
  S   S4        1.0  0.2586242801436639  0.7413757455697199  0.7413757256351645  1.0000
  S   S5        1.0  0.25862420559275784  0.741375677182622  0.25862423263469386  1.0000
  S   S6        1.0  0.7413756470000493  0.25862437012645373  0.7413757962703666  1.0000
