data_image0
_chemical_formula_structural       K2SnO6
_chemical_formula_sum              "K2 Sn1 O6"
_cell_length_a       6.082179476583692
_cell_length_b       6.0821795451323375
_cell_length_c       6.082179674217818
_cell_angle_alpha    59.99999869494086
_cell_angle_beta     59.99999878643683
_cell_angle_gamma    59.999998931051124

_space_group_name_H-M_alt    "P 1"
_space_group_IT_number       1

loop_
  _space_group_symop_operation_xyz
  'x, y, z'

loop_
  _atom_site_type_symbol
  _atom_site_label
  _atom_site_symmetry_multiplicity
  _atom_site_fract_x
  _atom_site_fract_y
  _atom_site_fract_z
  _atom_site_occupancy
  K   K1        1.0  0.24999994943807116  0.24999998278179547  0.2500000773561097  1.0000
  K   K2        1.0  0.750000002513686  0.749999992645933  0.749999943741366  1.0000
  Sn  Sn1       1.0  1.910014318783522e-07  0.999999939590162  1.8625875793026907e-07  1.0000
  O   O1        1.0  0.23957429837518093  0.2395743334554204  0.7604256458771463  1.0000
  O   O2        1.0  0.7604255981944038  0.7604256258630191  0.23957435506504834  1.0000
  O   O3        1.0  0.7604256988033539  0.23957429246074585  0.23957432466967565  1.0000
  O   O4        1.0  0.23957436751893596  0.7604256588030479  0.7604256217298478  1.0000
  O   O5        1.0  0.23957432872032397  0.7604256862544054  0.23957432907227263  1.0000
  O   O6        1.0  0.7604255839354012  0.23957445832086297  0.7604255761308787  1.0000
