data_image0
_chemical_formula_structural       K2SO6
_chemical_formula_sum              "K2 S1 O6"
_cell_length_a       6.000316778756625
_cell_length_b       6.0003171583515105
_cell_length_c       6.0003167777859305
_cell_angle_alpha    60.000002839383576
_cell_angle_beta     60.00000584277274
_cell_angle_gamma    60.00000133097506

_space_group_name_H-M_alt    "P 1"
_space_group_IT_number       1

loop_
  _space_group_symop_operation_xyz
  'x, y, z'

loop_
  _atom_site_type_symbol
  _atom_site_label
  _atom_site_symmetry_multiplicity
  _atom_site_fract_x
  _atom_site_fract_y
  _atom_site_fract_z
  _atom_site_occupancy
  K   K1        1.0  0.24999995524822666  0.25000000119748217  0.25000004105767365  1.0000
  K   K2        1.0  0.7500000033109024  0.7499999546052384  0.7500001355471949  1.0000
  S   S1        1.0  0.9999999277431834  2.5718282321285673e-07  0.9999999458683045  1.0000
  O   O1        1.0  0.1921777972756483  0.19217775945903787  0.807822231556514  1.0000
  O   O2        1.0  0.8078224217176836  0.8078222637010842  0.19217763782679795  1.0000
  O   O3        1.0  0.8078222298826705  0.19217782446609993  0.19217777178393336  1.0000
  O   O4        1.0  0.19217759526918418  0.8078222313521657  0.8078224281831091  1.0000
  O   O5        1.0  0.19217758675067717  0.8078223561029675  0.19217780215415173  1.0000
  O   O6        1.0  0.8078222789703312  0.192177624193362  0.807822075307233  1.0000
