data_image0
_chemical_formula_structural       K2TaTe6
_chemical_formula_sum              "K2 Ta1 Te6"
_cell_length_a       7.463410410362461
_cell_length_b       7.463407359820301
_cell_length_c       7.463421956345725
_cell_angle_alpha    59.99991312688441
_cell_angle_beta     59.99996613727695
_cell_angle_gamma    60.00002239956009

_space_group_name_H-M_alt    "P 1"
_space_group_IT_number       1

loop_
  _space_group_symop_operation_xyz
  'x, y, z'

loop_
  _atom_site_type_symbol
  _atom_site_label
  _atom_site_symmetry_multiplicity
  _atom_site_fract_x
  _atom_site_fract_y
  _atom_site_fract_z
  _atom_site_occupancy
  K   K1        1.0  0.25000016784964835  0.25000032177048864  0.2500002540519102  1.0000
  K   K2        1.0  0.7500002009803102  0.7499999560962578  0.7499997244546719  1.0000
  Ta  Ta1       1.0  0.9999980922549645  0.9999990859616572  0.9999989468744023  1.0000
  Te  Te1       1.0  0.2648186011620601  0.2648170957695883  0.735182482612881  1.0000
  Te  Te2       1.0  0.7351824316410442  0.7351833855822392  0.2648158120678276  1.0000
  Te  Te3       1.0  0.7351804091427977  0.26481831115230287  0.264817851047302  1.0000
  Te  Te4       1.0  0.26481824292103406  0.7351825591136457  0.7351844408498506  1.0000
  Te  Te5       1.0  0.26481721571120004  0.7351823126576246  0.2648167117328906  1.0000
  Te  Te6       1.0  0.7351843413881798  0.2648172316825655  0.7351838728004125  1.0000
