data_image0
_chemical_formula_structural       K2TaS6
_chemical_formula_sum              "K2 Ta1 S6"
_cell_length_a       6.623801323414125
_cell_length_b       6.623800567821173
_cell_length_c       6.623799889170398
_cell_angle_alpha    59.99999327487376
_cell_angle_beta     59.999998181263834
_cell_angle_gamma    60.0000023870052

_space_group_name_H-M_alt    "P 1"
_space_group_IT_number       1

loop_
  _space_group_symop_operation_xyz
  'x, y, z'

loop_
  _atom_site_type_symbol
  _atom_site_label
  _atom_site_symmetry_multiplicity
  _atom_site_fract_x
  _atom_site_fract_y
  _atom_site_fract_z
  _atom_site_occupancy
  K   K1        1.0  0.24999991540050853  0.24999999316157182  0.2500000376320453  1.0000
  K   K2        1.0  0.7500000254916165  0.750000051595985  0.7499999870157766  1.0000
  Ta  Ta1       1.0  3.0507404735099667e-07  0.9999987500717309  3.758059093243732e-07  1.0000
  S   S1        1.0  0.25677973166696316  0.2567803651545743  0.7432198316229629  1.0000
  S   S2        1.0  0.7432203242378032  0.7432201085724794  0.25677980478627627  1.0000
  S   S3        1.0  0.7432196394448112  0.2567806393552733  0.2567801784998321  1.0000
  S   S4        1.0  0.25678009492368303  0.7432199360671056  0.7432195210289639  1.0000
  S   S5        1.0  0.2567802334340257  0.7432197885829328  0.25678048389145647  1.0000
  S   S6        1.0  0.7432196698585236  0.2567805520156195  0.7432196577179488  1.0000
