data_image0
_chemical_formula_structural       K2TaO6
_chemical_formula_sum              "K2 Ta1 O6"
_cell_length_a       6.311152081210594
_cell_length_b       6.311152116887438
_cell_length_c       6.31115166640656
_cell_angle_alpha    60.00000083059619
_cell_angle_beta     59.999999791514966
_cell_angle_gamma    60.000002075686076

_space_group_name_H-M_alt    "P 1"
_space_group_IT_number       1

loop_
  _space_group_symop_operation_xyz
  'x, y, z'

loop_
  _atom_site_type_symbol
  _atom_site_label
  _atom_site_symmetry_multiplicity
  _atom_site_fract_x
  _atom_site_fract_y
  _atom_site_fract_z
  _atom_site_occupancy
  K   K1        1.0  0.24999996877501054  0.24999998048116123  0.2499999461683922  1.0000
  K   K2        1.0  0.7499999031445458  0.7500000442955053  0.750000122998245  1.0000
  Ta  Ta1       1.0  5.8842687959058616e-08  4.8515106798663285e-08  0.9999999574125791  1.0000
  O   O1        1.0  0.2195182751769274  0.21951823749966307  0.7804817345699652  1.0000
  O   O2        1.0  0.7804818886319137  0.7804817678709671  0.21951812546818733  1.0000
  O   O3        1.0  0.7804817923528955  0.21951825390737104  0.21951826216914055  1.0000
  O   O4        1.0  0.2195182256794096  0.7804816563736479  0.7804818593223097  1.0000
  O   O5        1.0  0.21951827576787186  0.7804817056902511  0.2195183362105256  1.0000
  O   O6        1.0  0.7804817140242082  0.21951827833372742  0.7804818116489599  1.0000
