data_image0
_chemical_formula_structural       K2TeSe6
_chemical_formula_sum              "K2 Te1 Se6"
_cell_length_a       7.022872632684978
_cell_length_b       7.022871900396724
_cell_length_c       7.022873087737643
_cell_angle_alpha    59.99999091339183
_cell_angle_beta     60.00000086827713
_cell_angle_gamma    59.99999238316787

_space_group_name_H-M_alt    "P 1"
_space_group_IT_number       1

loop_
  _space_group_symop_operation_xyz
  'x, y, z'

loop_
  _atom_site_type_symbol
  _atom_site_label
  _atom_site_symmetry_multiplicity
  _atom_site_fract_x
  _atom_site_fract_y
  _atom_site_fract_z
  _atom_site_occupancy
  K   K1        1.0  0.24999999849823673  0.2500000090350472  0.24999997198873689  1.0000
  K   K2        1.0  0.7499999950957619  0.7500000480323892  0.7499999726262372  1.0000
  Te  Te1       1.0  0.9999999948024203  0.999999956401557  9.417002642120402e-08  1.0000
  Se  Se1       1.0  0.3009533598697937  0.30095387650234  0.6990464180612317  1.0000
  Se  Se2       1.0  0.6990467776501138  0.6990461631257122  0.30095357864789474  1.0000
  Se  Se3       1.0  0.6990463597027041  0.3009539147896771  0.3009532326436168  1.0000
  Se  Se4       1.0  0.3009536964735737  0.699045964396126  0.6990467511100982  1.0000
  Se  Se5       1.0  0.3009536066577363  0.6990461137455268  0.3009535185939162  1.0000
  Se  Se6       1.0  0.6990462138963359  0.30095396424916543  0.699046459359829  1.0000
