data_image0
_chemical_formula_structural       K2TeO6
_chemical_formula_sum              "K2 Te1 O6"
_cell_length_a       6.262920369634154
_cell_length_b       6.2629201034544035
_cell_length_c       6.262919699790364
_cell_angle_alpha    59.99999946342049
_cell_angle_beta     59.9999990613295
_cell_angle_gamma    59.9999995238723

_space_group_name_H-M_alt    "P 1"
_space_group_IT_number       1

loop_
  _space_group_symop_operation_xyz
  'x, y, z'

loop_
  _atom_site_type_symbol
  _atom_site_label
  _atom_site_symmetry_multiplicity
  _atom_site_fract_x
  _atom_site_fract_y
  _atom_site_fract_z
  _atom_site_occupancy
  K   K1        1.0  0.2499999850298278  0.24999993595170117  0.2500000467828332  1.0000
  K   K2        1.0  0.7499999698358639  0.7500000014544804  0.7500000665129049  1.0000
  Te  Te1       1.0  1.216146377499899e-08  0.999999974577859  4.9741221935664545e-08  1.0000
  O   O1        1.0  0.21746268279718528  0.2174626536092033  0.7825373520210801  1.0000
  O   O2        1.0  0.7825372920488765  0.7825374285076245  0.2174626533819563  1.0000
  O   O3        1.0  0.7825374176717637  0.21746265763996753  0.21746254722607497  1.0000
  O   O4        1.0  0.21746260674996323  0.7825374029658191  0.7825374249842555  1.0000
  O   O5        1.0  0.21746263539060054  0.7825373713909207  0.21746250299061337  1.0000
  O   O6        1.0  0.7825374982030735  0.21746257188191198  0.7825373822883546  1.0000
