data_image0
_chemical_formula_structural       K2TeS6
_chemical_formula_sum              "K2 Te1 S6"
_cell_length_a       6.965312283685438
_cell_length_b       6.965312329016861
_cell_length_c       6.9653124641849065
_cell_angle_alpha    60.00000108611941
_cell_angle_beta     59.99999849095959
_cell_angle_gamma    60.00000004251666

_space_group_name_H-M_alt    "P 1"
_space_group_IT_number       1

loop_
  _space_group_symop_operation_xyz
  'x, y, z'

loop_
  _atom_site_type_symbol
  _atom_site_label
  _atom_site_symmetry_multiplicity
  _atom_site_fract_x
  _atom_site_fract_y
  _atom_site_fract_z
  _atom_site_occupancy
  K   K1        1.0  0.2499999771904741  0.25000001091533236  0.25000005218638666  1.0000
  K   K2        1.0  0.749999988522306  0.7500000309876445  0.749999966730402  1.0000
  Te  Te1       1.0  0.9999999413913317  1.7583487478731605e-09  1.5503988107008558e-08  1.0000
  S   S1        1.0  0.24318839435633505  0.2431883422605979  0.7568115670272036  1.0000
  S   S2        1.0  0.7568115837654502  0.7568116574420045  0.24318832321669184  1.0000
  S   S3        1.0  0.7568115305542201  0.2431884699132611  0.2431884874000655  1.0000
  S   S4        1.0  0.2431884144606199  0.7568116141900878  0.756811556657652  1.0000
  S   S5        1.0  0.24318848983189698  0.7568115026374037  0.24318848484456845  1.0000
  S   S6        1.0  0.7568116639837815  0.24318838277253008  0.7568115412382618  1.0000
