data_image0
_chemical_formula_structural       K2TiS6
_chemical_formula_sum              "K2 Ti1 S6"
_cell_length_a       6.6134319674179025
_cell_length_b       6.6134315646586
_cell_length_c       6.613431051677067
_cell_angle_alpha    60.00000361393356
_cell_angle_beta     60.00000192961817
_cell_angle_gamma    59.9999977904774

_space_group_name_H-M_alt    "P 1"
_space_group_IT_number       1

loop_
  _space_group_symop_operation_xyz
  'x, y, z'

loop_
  _atom_site_type_symbol
  _atom_site_label
  _atom_site_symmetry_multiplicity
  _atom_site_fract_x
  _atom_site_fract_y
  _atom_site_fract_z
  _atom_site_occupancy
  K   K1        1.0  0.25000000428189045  0.24999997929687384  0.2500000284927338  1.0000
  K   K2        1.0  0.7499999738860929  0.7499999971515894  0.7500000390377214  1.0000
  Ti  Ti1       1.0  0.9999999553455687  0.9999999611099941  1.4308120611397036e-07  1.0000
  S   S1        1.0  0.24960725197482572  0.2496071011588536  0.7503928987839572  1.0000
  S   S2        1.0  0.7503928307772484  0.7503928234362628  0.2496072966127158  1.0000
  S   S3        1.0  0.7503928254682396  0.2496072026962612  0.24960725405395442  1.0000
  S   S4        1.0  0.24960733959368328  0.7503926478226363  0.7503926302747917  1.0000
  S   S5        1.0  0.24960730914491985  0.7503928683447106  0.24960706184000725  1.0000
  S   S6        1.0  0.7503925484223484  0.2496073284804733  0.7503926821169772  1.0000
