data_image0
_chemical_formula_structural       K2TiTe6
_chemical_formula_sum              "K2 Ti1 Te6"
_cell_length_a       7.385041527834892
_cell_length_b       7.385041466564007
_cell_length_c       7.385039324822498
_cell_angle_alpha    59.99999417151689
_cell_angle_beta     60.00001144827276
_cell_angle_gamma    59.99999450477006

_space_group_name_H-M_alt    "P 1"
_space_group_IT_number       1

loop_
  _space_group_symop_operation_xyz
  'x, y, z'

loop_
  _atom_site_type_symbol
  _atom_site_label
  _atom_site_symmetry_multiplicity
  _atom_site_fract_x
  _atom_site_fract_y
  _atom_site_fract_z
  _atom_site_occupancy
  K   K1        1.0  0.25000003156795075  0.2500000450034349  0.2499999893993547  1.0000
  K   K2        1.0  0.7500000556797843  0.7500000222382324  0.7499999317067657  1.0000
  Ti  Ti1       1.0  2.734562993447155e-07  0.9999996533917804  0.9999992444339795  1.0000
  Te  Te1       1.0  0.2660596291248701  0.2660598062298741  0.7339403052930167  1.0000
  Te  Te2       1.0  0.7339404773492503  0.7339399359628004  0.26605984455342574  1.0000
  Te  Te3       1.0  0.7339398795978586  0.2660597939340912  0.26606011727008977  1.0000
  Te  Te4       1.0  0.2660594542734586  0.7339406149406287  0.7339405323859918  1.0000
  Te  Te5       1.0  0.2660594978630896  0.7339406166123423  0.2660594385759069  1.0000
  Te  Te6       1.0  0.7339407461830046  0.26605948213912356  0.7339406294039625  1.0000
