data_image0
_chemical_formula_structural       K2TiO6
_chemical_formula_sum              "K2 Ti1 O6"
_cell_length_a       6.209360701378708
_cell_length_b       6.2093616385081924
_cell_length_c       6.209361763865709
_cell_angle_alpha    59.99999986158153
_cell_angle_beta     60.00000101570572
_cell_angle_gamma    60.00000089945241

_space_group_name_H-M_alt    "P 1"
_space_group_IT_number       1

loop_
  _space_group_symop_operation_xyz
  'x, y, z'

loop_
  _atom_site_type_symbol
  _atom_site_label
  _atom_site_symmetry_multiplicity
  _atom_site_fract_x
  _atom_site_fract_y
  _atom_site_fract_z
  _atom_site_occupancy
  K   K1        1.0  0.25000007099548194  0.24999998970654314  0.249999995835191  1.0000
  K   K2        1.0  0.7499998886983238  0.750000071685304  0.7500001015877239  1.0000
  Ti  Ti1       1.0  0.9999999406245492  0.9999999605516685  0.9999999785511431  1.0000
  O   O1        1.0  0.2158319537018465  0.2158317510177685  0.7841682779456141  1.0000
  O   O2        1.0  0.7841681653772831  0.7841681111599901  0.2158317669204739  1.0000
  O   O3        1.0  0.784168272938858  0.21583185008661013  0.21583201593153903  1.0000
  O   O4        1.0  0.21583190551571885  0.7841680515394809  0.7841680052902059  1.0000
  O   O5        1.0  0.21583183720953394  0.7841681808109561  0.21583188420700236  1.0000
  O   O6        1.0  0.7841678984830553  0.21583202259490222  0.784168025522555  1.0000
