data_image0
_chemical_formula_structural       K2VO6
_chemical_formula_sum              "K2 V1 O6"
_cell_length_a       6.215130994622201
_cell_length_b       6.215131257926396
_cell_length_c       6.21513168773845
_cell_angle_alpha    60.00000154430729
_cell_angle_beta     59.99999908149155
_cell_angle_gamma    60.00000303102549

_space_group_name_H-M_alt    "P 1"
_space_group_IT_number       1

loop_
  _space_group_symop_operation_xyz
  'x, y, z'

loop_
  _atom_site_type_symbol
  _atom_site_label
  _atom_site_symmetry_multiplicity
  _atom_site_fract_x
  _atom_site_fract_y
  _atom_site_fract_z
  _atom_site_occupancy
  K   K1        1.0  0.25000003625824435  0.25000005205103804  0.24999987759478629  1.0000
  K   K2        1.0  0.7500000848702615  0.7499999157416769  0.7500000674298627  1.0000
  V   V1        1.0  2.2069231846625387e-08  1.182350958883415e-08  0.9999998430726862  1.0000
  O   O1        1.0  0.20819022737680373  0.20819002828093033  0.7918099875068711  1.0000
  O   O2        1.0  0.7918099197074164  0.7918098449236832  0.20819024283428245  1.0000
  O   O3        1.0  0.7918098356463055  0.2081901245695272  0.2081900618180931  1.0000
  O   O4        1.0  0.20819016605266133  0.7918098057820553  0.7918098618853532  1.0000
  O   O5        1.0  0.20819001865099854  0.7918098535395711  0.20819012338401993  1.0000
  O   O6        1.0  0.7918097785097957  0.208190183223633  0.7918098960430157  1.0000
