data_image0
_chemical_formula_structural       K2VS6
_chemical_formula_sum              "K2 V1 S6"
_cell_length_a       6.563141934292605
_cell_length_b       6.563141964733076
_cell_length_c       6.5631426245608475
_cell_angle_alpha    60.00000782401683
_cell_angle_beta     60.00000152843416
_cell_angle_gamma    59.99999930240271

_space_group_name_H-M_alt    "P 1"
_space_group_IT_number       1

loop_
  _space_group_symop_operation_xyz
  'x, y, z'

loop_
  _atom_site_type_symbol
  _atom_site_label
  _atom_site_symmetry_multiplicity
  _atom_site_fract_x
  _atom_site_fract_y
  _atom_site_fract_z
  _atom_site_occupancy
  K   K1        1.0  0.25000001310521297  0.24999995658113852  0.24999995696415014  1.0000
  K   K2        1.0  0.7500000118578285  0.7499999257262951  0.750000053182101  1.0000
  V   V1        1.0  0.9999998224190626  5.169083764284206e-07  0.9999997328220568  1.0000
  S   S1        1.0  0.242097773178916  0.24209734381275302  0.7579024414218264  1.0000
  S   S2        1.0  0.7579027955732929  0.7579024694491278  0.24209734049459417  1.0000
  S   S3        1.0  0.7579019789166903  0.2420976137699896  0.2420977902470998  1.0000
  S   S4        1.0  0.2420971397471009  0.7579028339643868  0.7579027560137954  1.0000
  S   S5        1.0  0.24209762676805874  0.7579022765493417  0.24209730081488395  1.0000
  S   S6        1.0  0.7579027064664076  0.24209712430547417  0.7579024927135308  1.0000
