data_image0
_chemical_formula_structural       K2VSe6
_chemical_formula_sum              "K2 V1 Se6"
_cell_length_a       6.82589381827006
_cell_length_b       6.825894030378577
_cell_length_c       6.82589361423375
_cell_angle_alpha    60.00000335586602
_cell_angle_beta     60.00000575445822
_cell_angle_gamma    59.99999755574548

_space_group_name_H-M_alt    "P 1"
_space_group_IT_number       1

loop_
  _space_group_symop_operation_xyz
  'x, y, z'

loop_
  _atom_site_type_symbol
  _atom_site_label
  _atom_site_symmetry_multiplicity
  _atom_site_fract_x
  _atom_site_fract_y
  _atom_site_fract_z
  _atom_site_occupancy
  K   K1        1.0  0.2500000043558044  0.24999998573360746  0.2500000315620104  1.0000
  K   K2        1.0  0.7500000150492961  0.7499999715549259  0.7499999971524497  1.0000
  V   V1        1.0  3.8338950990475906e-08  2.9605337934548254e-07  0.9999997859235304  1.0000
  Se  Se1       1.0  0.25079255030228953  0.2507925532633045  0.74920745916776  1.0000
  Se  Se2       1.0  0.7492077601687689  0.7492073986424213  0.25079249116555985  1.0000
  Se  Se3       1.0  0.7492072989816302  0.2507925654163471  0.2507926088430951  1.0000
  Se  Se4       1.0  0.25079257931907245  0.7492072214172177  0.7492076034862245  1.0000
  Se  Se5       1.0  0.2507924970523915  0.7492074776117674  0.25079242653235984  1.0000
  Se  Se6       1.0  0.7492072935522414  0.2507925317104055  0.7492075162293584  1.0000
