data_image0
_chemical_formula_structural       K2VTe6
_chemical_formula_sum              "K2 V1 Te6"
_cell_length_a       7.30437285724918
_cell_length_b       7.3043836640986655
_cell_length_c       7.304359971719991
_cell_angle_alpha    60.00004830862714
_cell_angle_beta     60.00005561483745
_cell_angle_gamma    60.00008952548359

_space_group_name_H-M_alt    "P 1"
_space_group_IT_number       1

loop_
  _space_group_symop_operation_xyz
  'x, y, z'

loop_
  _atom_site_type_symbol
  _atom_site_label
  _atom_site_symmetry_multiplicity
  _atom_site_fract_x
  _atom_site_fract_y
  _atom_site_fract_z
  _atom_site_occupancy
  K   K1        1.0  0.25000022416593226  0.24999995699666733  0.24999877341786061  1.0000
  K   K2        1.0  0.7499999647814177  0.7499998173305512  0.7500027959314007  1.0000
  V   V1        1.0  0.9999999189161956  0.9999998306540615  0.999995163794627  1.0000
  Te  Te1       1.0  0.26735832452126757  0.2673560851901032  0.732644271966171  1.0000
  Te  Te2       1.0  0.732642484215756  0.7326452870525594  0.26736110750972225  1.0000
  Te  Te3       1.0  0.7326441258650079  0.2673560027802468  0.26735496202677056  1.0000
  Te  Te4       1.0  0.26735994233948185  0.7326415381534875  0.7326424808851666  1.0000
  Te  Te5       1.0  0.26735632211871563  0.7326420607710719  0.26735659681652957  1.0000
  Te  Te6       1.0  0.7326402702869119  0.2673587715702252  0.7326428985874297  1.0000
