data_image0
_chemical_formula_structural       K2WO6
_chemical_formula_sum              "K2 W1 O6"
_cell_length_a       6.353694404216139
_cell_length_b       6.353694307671256
_cell_length_c       6.353693925796409
_cell_angle_alpha    60.0000003277286
_cell_angle_beta     60.00000152876475
_cell_angle_gamma    60.00000116287837

_space_group_name_H-M_alt    "P 1"
_space_group_IT_number       1

loop_
  _space_group_symop_operation_xyz
  'x, y, z'

loop_
  _atom_site_type_symbol
  _atom_site_label
  _atom_site_symmetry_multiplicity
  _atom_site_fract_x
  _atom_site_fract_y
  _atom_site_fract_z
  _atom_site_occupancy
  K   K1        1.0  0.2500000174840867  0.24999992113879424  0.25000010082408747  1.0000
  K   K2        1.0  0.7499999455517448  0.750000127734793  0.7499999770273628  1.0000
  W   W1        1.0  1.0397748388635955e-07  0.9999998843433651  0.9999999082585459  1.0000
  O   O1        1.0  0.20963706409480728  0.2096373214144784  0.7903629768796365  1.0000
  O   O2        1.0  0.7903628112663599  0.7903627505904335  0.2096372544328282  1.0000
  O   O3        1.0  0.7903629545312195  0.2096371473277886  0.20963713012308338  1.0000
  O   O4        1.0  0.2096371108473824  0.7903628398622617  0.79036279047053  1.0000
  O   O5        1.0  0.20963714131109873  0.7903628853068795  0.2096372244862244  1.0000
  O   O6        1.0  0.790362867196779  0.20963709802794822  0.7903627784086533  1.0000
