data_image0
_chemical_formula_structural       K2WS6
_chemical_formula_sum              "K2 W1 S6"
_cell_length_a       6.856348904688069
_cell_length_b       6.856348698985362
_cell_length_c       6.856348359677546
_cell_angle_alpha    60.0000018987235
_cell_angle_beta     59.99999843830897
_cell_angle_gamma    60.000001319949945

_space_group_name_H-M_alt    "P 1"
_space_group_IT_number       1

loop_
  _space_group_symop_operation_xyz
  'x, y, z'

loop_
  _atom_site_type_symbol
  _atom_site_label
  _atom_site_symmetry_multiplicity
  _atom_site_fract_x
  _atom_site_fract_y
  _atom_site_fract_z
  _atom_site_occupancy
  K   K1        1.0  0.25000005320650454  0.24999997665918028  0.24999999516835295  1.0000
  K   K2        1.0  0.7499999849949702  0.7500000496591774  0.7500000406880621  1.0000
  W   W1        1.0  3.866796985687119e-08  0.9999999446249107  0.9999998260407682  1.0000
  S   S1        1.0  0.2331648390275632  0.23316484495900988  0.766835235722493  1.0000
  S   S2        1.0  0.766835006161115  0.7668352349481394  0.23316492818602363  1.0000
  S   S3        1.0  0.7668352071609547  0.23316480567547912  0.2331649587967061  1.0000
  S   S4        1.0  0.23316495282945046  0.7668349866384824  0.7668350923293726  1.0000
  S   S5        1.0  0.2331648810303555  0.7668351534464647  0.23316493530732132  1.0000
  S   S6        1.0  0.7668350744763216  0.23316499969870122  0.7668350055579752  1.0000
