data_image0
_chemical_formula_structural       K2WTe6
_chemical_formula_sum              "K2 W1 Te6"
_cell_length_a       7.987821836200523
_cell_length_b       7.987821890681885
_cell_length_c       7.987821852406351
_cell_angle_alpha    60.00000019511419
_cell_angle_beta     59.99999989903255
_cell_angle_gamma    60.00000029523413

_space_group_name_H-M_alt    "P 1"
_space_group_IT_number       1

loop_
  _space_group_symop_operation_xyz
  'x, y, z'

loop_
  _atom_site_type_symbol
  _atom_site_label
  _atom_site_symmetry_multiplicity
  _atom_site_fract_x
  _atom_site_fract_y
  _atom_site_fract_z
  _atom_site_occupancy
  K   K1        1.0  0.2500000030983585  0.25000000339146283  0.24999999473180012  1.0000
  K   K2        1.0  0.7499999979058434  0.7500000009747978  0.7500000007493405  1.0000
  W   W1        1.0  1.1988009335847929e-08  3.0665302590987475e-09  1.1251316249370967e-08  1.0000
  Te  Te1       1.0  0.22736640286616114  0.22736640088466797  0.7726335965761524  1.0000
  Te  Te2       1.0  0.7726335887054733  0.7726335927487368  0.2273664114915114  1.0000
  Te  Te3       1.0  0.7726336021625001  0.22736639983199025  0.22736640955597284  1.0000
  Te  Te4       1.0  0.22736640615727183  0.7726335999344749  0.7726335808115633  1.0000
  Te  Te5       1.0  0.2273663982795914  0.7726335981051877  0.22736641891070902  1.0000
  Te  Te6       1.0  0.7726335858887841  0.2273664047278077  0.772633578243543  1.0000
