data_image0
_chemical_formula_structural       K2ZrSe6
_chemical_formula_sum              "K2 Zr1 Se6"
_cell_length_a       7.043061741897434
_cell_length_b       7.043062222046385
_cell_length_c       7.043061047163197
_cell_angle_alpha    60.0000053764149
_cell_angle_beta     60.00000253832999
_cell_angle_gamma    59.99999745002331

_space_group_name_H-M_alt    "P 1"
_space_group_IT_number       1

loop_
  _space_group_symop_operation_xyz
  'x, y, z'

loop_
  _atom_site_type_symbol
  _atom_site_label
  _atom_site_symmetry_multiplicity
  _atom_site_fract_x
  _atom_site_fract_y
  _atom_site_fract_z
  _atom_site_occupancy
  K   K1        1.0  0.25000000623410495  0.2500000084032092  0.2499999919556182  1.0000
  K   K2        1.0  0.7499999909475589  0.7499999904308706  0.7500000042939368  1.0000
  Zr  Zr1       1.0  4.955121256455656e-08  0.9999998661017734  0.99999983345744  1.0000
  Se  Se1       1.0  0.26972262920211726  0.2697224226733013  0.7302775053551465  1.0000
  Se  Se2       1.0  0.730277478089375  0.730277619634219  0.2697225021326791  1.0000
  Se  Se3       1.0  0.7302775115036717  0.2697223348004603  0.2697224906525138  1.0000
  Se  Se4       1.0  0.2697224161063269  0.7302777301132674  0.73027766920449  1.0000
  Se  Se5       1.0  0.26972242933239804  0.7302776513399755  0.26972236839817837  1.0000
  Se  Se6       1.0  0.7302775062108084  0.2697223701003025  0.7302776331691347  1.0000
