data_image0
_chemical_formula_structural       K2ZrTe6
_chemical_formula_sum              "K2 Zr1 Te6"
_cell_length_a       7.578010134587173
_cell_length_b       7.57800916487668
_cell_length_c       7.578008202691838
_cell_angle_alpha    60.00000259939393
_cell_angle_beta     60.00000508344205
_cell_angle_gamma    59.99998934296486

_space_group_name_H-M_alt    "P 1"
_space_group_IT_number       1

loop_
  _space_group_symop_operation_xyz
  'x, y, z'

loop_
  _atom_site_type_symbol
  _atom_site_label
  _atom_site_symmetry_multiplicity
  _atom_site_fract_x
  _atom_site_fract_y
  _atom_site_fract_z
  _atom_site_occupancy
  K   K1        1.0  0.24999997933493873  0.2500001008181436  0.2499999477533208  1.0000
  K   K2        1.0  0.7500000290208426  0.749999924267612  0.75000001983556  1.0000
  Zr  Zr1       1.0  0.999999321953994  4.250561930627757e-07  4.867478935679069e-07  1.0000
  Te  Te1       1.0  0.2707462858796944  0.2707462278534154  0.7292537669585373  1.0000
  Te  Te2       1.0  0.7292537446536106  0.7292538861223989  0.27074615697302234  1.0000
  Te  Te3       1.0  0.7292540056863486  0.2707459149716333  0.27074585031862203  1.0000
  Te  Te4       1.0  0.27074658756861564  0.7292535622280377  0.7292536184264012  1.0000
  Te  Te5       1.0  0.2707463025444626  0.729253910607917  0.27074611657111725  1.0000
  Te  Te6       1.0  0.7292537631303053  0.27074603851723245  0.7292540556405518  1.0000
