data_image0
_chemical_formula_structural       K2ZrS6
_chemical_formula_sum              "K2 Zr1 S6"
_cell_length_a       6.7372006645523586
_cell_length_b       6.737200735378799
_cell_length_c       6.737200655217785
_cell_angle_alpha    59.99999875360876
_cell_angle_beta     59.99999945314083
_cell_angle_gamma    59.99999500623038

_space_group_name_H-M_alt    "P 1"
_space_group_IT_number       1

loop_
  _space_group_symop_operation_xyz
  'x, y, z'

loop_
  _atom_site_type_symbol
  _atom_site_label
  _atom_site_symmetry_multiplicity
  _atom_site_fract_x
  _atom_site_fract_y
  _atom_site_fract_z
  _atom_site_occupancy
  K   K1        1.0  0.25000000638789427  0.24999997528636814  0.2500000216266805  1.0000
  K   K2        1.0  0.7500000279916523  0.7500000022102304  0.7499999792459089  1.0000
  Zr  Zr1       1.0  3.711806147314692e-08  0.9999999709138577  0.9999998297428884  1.0000
  S   S1        1.0  0.2639619323492667  0.2639619913760184  0.7360380165816858  1.0000
  S   S2        1.0  0.7360381707592318  0.7360380370213279  0.26396188885294863  1.0000
  S   S3        1.0  0.736038020532672  0.2639620023074504  0.2639618696559497  1.0000
  S   S4        1.0  0.2639618035517953  0.7360381278914082  0.7360382891468003  1.0000
  S   S5        1.0  0.26396192048416167  0.7360380683489159  0.2639618146454281  1.0000
  S   S6        1.0  0.7360381055189614  0.26396174917389337  0.7360384010203178  1.0000
