data_image0
_chemical_formula_structural       K2ZrO6
_chemical_formula_sum              "K2 Zr1 O6"
_cell_length_a       5.989491017066995
_cell_length_b       5.9894910528515535
_cell_length_c       5.989491047739984
_cell_angle_alpha    59.99999768474968
_cell_angle_beta     59.99999940749516
_cell_angle_gamma    60.0000021821971

_space_group_name_H-M_alt    "P 1"
_space_group_IT_number       1

loop_
  _space_group_symop_operation_xyz
  'x, y, z'

loop_
  _atom_site_type_symbol
  _atom_site_label
  _atom_site_symmetry_multiplicity
  _atom_site_fract_x
  _atom_site_fract_y
  _atom_site_fract_z
  _atom_site_occupancy
  K   K1        1.0  0.2500000307956151  0.24999998129675666  0.2500000198028063  1.0000
  K   K2        1.0  0.7499999770048368  0.7500000297728321  0.7499999923481848  1.0000
  Zr  Zr1       1.0  2.0849500898600726e-09  0.9999999243415479  1.3028384504370216e-07  1.0000
  O   O1        1.0  0.24460360252573485  0.24460359082789518  0.7553963985862401  1.0000
  O   O2        1.0  0.7553965310344752  0.7553964304658142  0.24460350383303728  1.0000
  O   O3        1.0  0.7553962631218687  0.2446036881120627  0.24460371341739578  1.0000
  O   O4        1.0  0.24460372873102743  0.7553962493438985  0.7553963501925519  1.0000
  O   O5        1.0  0.24460365030100706  0.7553963234418004  0.24460364633154272  1.0000
  O   O6        1.0  0.75539622634358  0.2446037919137581  0.755396244017528  1.0000
