data_image0
_chemical_formula_structural       Li2CoTe6
_chemical_formula_sum              "Li2 Co1 Te6"
_cell_length_a       6.968346749939195
_cell_length_b       6.968345371830055
_cell_length_c       6.968348737082082
_cell_angle_alpha    59.99999875771628
_cell_angle_beta     59.99998993749502
_cell_angle_gamma    60.000010465720095

_space_group_name_H-M_alt    "P 1"
_space_group_IT_number       1

loop_
  _space_group_symop_operation_xyz
  'x, y, z'

loop_
  _atom_site_type_symbol
  _atom_site_label
  _atom_site_symmetry_multiplicity
  _atom_site_fract_x
  _atom_site_fract_y
  _atom_site_fract_z
  _atom_site_occupancy
  Li  Li1       1.0  0.2500000615575318  0.2500001298384024  0.24999990676274544  1.0000
  Li  Li2       1.0  0.7500000246324433  0.7499998604825576  0.7499999988118093  1.0000
  Co  Co1       1.0  0.9999998274439824  2.144251779872884e-07  1.6849339216461627e-07  1.0000
  Te  Te1       1.0  0.24998282556384918  0.24998241548558905  0.7500172041960113  1.0000
  Te  Te2       1.0  0.7500177379299305  0.750017455319732  0.24998220820625933  1.0000
  Te  Te3       1.0  0.7500172910325077  0.24998280851475602  0.24998261990734955  1.0000
  Te  Te4       1.0  0.24998228876165862  0.7500173786555018  0.7500177159720453  1.0000
  Te  Te5       1.0  0.2499823604734204  0.750017207830348  0.2499827412398696  1.0000
  Te  Te6       1.0  0.7500176275534967  0.2499824555800878  0.750017434273849  1.0000
