data_image0
_chemical_formula_structural       Li2CrS6
_chemical_formula_sum              "Li2 Cr1 S6"
_cell_length_a       5.988070872327416
_cell_length_b       5.988070465649376
_cell_length_c       5.9880711270403175
_cell_angle_alpha    59.99999710508585
_cell_angle_beta     59.999999592150346
_cell_angle_gamma    59.999998116400334

_space_group_name_H-M_alt    "P 1"
_space_group_IT_number       1

loop_
  _space_group_symop_operation_xyz
  'x, y, z'

loop_
  _atom_site_type_symbol
  _atom_site_label
  _atom_site_symmetry_multiplicity
  _atom_site_fract_x
  _atom_site_fract_y
  _atom_site_fract_z
  _atom_site_occupancy
  Li  Li1       1.0  0.24999996196466176  0.250000008845065  0.2500000557385738  1.0000
  Li  Li2       1.0  0.7500000544979947  0.7499999488134872  0.7500000265853216  1.0000
  Cr  Cr1       1.0  3.600018280280271e-08  0.9999997300193287  3.2573859837318784e-07  1.0000
  S   S1        1.0  0.25701563693836843  0.2570157720263397  0.7429842276172901  1.0000
  S   S2        1.0  0.74298430609045  0.7429842613086113  0.25701560475728513  1.0000
  S   S3        1.0  0.7429842914344258  0.25701572183578086  0.2570157161665568  1.0000
  S   S4        1.0  0.25701591131810164  0.7429841744635282  0.7429841066335781  1.0000
  S   S5        1.0  0.25701566487455896  0.7429844420989622  0.2570157218713233  1.0000
  S   S6        1.0  0.7429841645126548  0.25701595530083526  0.7429842140798298  1.0000
