data_image0
_chemical_formula_structural       Li2CS6
_chemical_formula_sum              "Li2 C1 S6"
_cell_length_a       5.817685966566209
_cell_length_b       6.194491153577169
_cell_length_c       6.224590477033839
_cell_angle_alpha    35.1418898839792
_cell_angle_beta     44.48084762232433
_cell_angle_gamma    23.150241389954807

_space_group_name_H-M_alt    "P 1"
_space_group_IT_number       1

loop_
  _space_group_symop_operation_xyz
  'x, y, z'

loop_
  _atom_site_type_symbol
  _atom_site_label
  _atom_site_symmetry_multiplicity
  _atom_site_fract_x
  _atom_site_fract_y
  _atom_site_fract_z
  _atom_site_occupancy
  Li  Li1       1.0  0.7235901860183931  0.603219410072426  0.5958325244866116  1.0000
  Li  Li2       1.0  0.9752101534619899  0.7531456175033332  0.012912216111576447  1.0000
  C   C1        1.0  0.798286382314212  0.23718694228139803  0.7770438170056988  1.0000
  S   S1        1.0  0.019562580114938413  0.2596069329734946  0.8308651953856853  1.0000
  S   S2        1.0  0.5877378319417313  0.0748731721972733  0.2033863591223126  1.0000
  S   S3        1.0  0.02090671364750607  0.17906330543311366  0.9283740591478238  1.0000
  S   S4        1.0  0.2709382476663602  0.8485235099311118  0.6889057941247362  1.0000
  S   S5        1.0  0.6383863463189946  0.05780676152091746  0.22557736511306806  1.0000
  S   S6        1.0  0.217048614250271  0.03751385896891234  0.5993161601922742  1.0000
