data_image0
_chemical_formula_structural       Li2CoSe6
_chemical_formula_sum              "Li2 Co1 Se6"
_cell_length_a       6.395789386031466
_cell_length_b       6.395789137816059
_cell_length_c       6.395789155650607
_cell_angle_alpha    60.000001596127355
_cell_angle_beta     60.00000157253031
_cell_angle_gamma    60.00000167603319

_space_group_name_H-M_alt    "P 1"
_space_group_IT_number       1

loop_
  _space_group_symop_operation_xyz
  'x, y, z'

loop_
  _atom_site_type_symbol
  _atom_site_label
  _atom_site_symmetry_multiplicity
  _atom_site_fract_x
  _atom_site_fract_y
  _atom_site_fract_z
  _atom_site_occupancy
  Li  Li1       1.0  0.2500000117843631  0.2500000388887998  0.2499999695320336  1.0000
  Li  Li2       1.0  0.7500000138728777  0.7499999807068125  0.7499999763712971  1.0000
  Co  Co1       1.0  0.9999999666641171  0.9999999808507636  1.1536369607244421e-07  1.0000
  Se  Se1       1.0  0.25453272691350104  0.254532794874059  0.7454672468939728  1.0000
  Se  Se2       1.0  0.7454672362115806  0.7454671902529257  0.2545327897250259  1.0000
  Se  Se3       1.0  0.745467242871604  0.2545327917844668  0.254532772458563  1.0000
  Se  Se4       1.0  0.2545328446263417  0.7454671722783583  0.7454672015613825  1.0000
  Se  Se5       1.0  0.2545327749894974  0.7454672076319825  0.25453274078545196  1.0000
  Se  Se6       1.0  0.745467190651236  0.2545328349427129  0.7454671626589713  1.0000
