data_image0
_chemical_formula_structural       Li2CoS6
_chemical_formula_sum              "Li2 Co1 S6"
_cell_length_a       6.007998443794011
_cell_length_b       6.007998512436288
_cell_length_c       6.0079984978014425
_cell_angle_alpha    59.99999864781544
_cell_angle_beta     59.99999983060037
_cell_angle_gamma    59.99999823034927

_space_group_name_H-M_alt    "P 1"
_space_group_IT_number       1

loop_
  _space_group_symop_operation_xyz
  'x, y, z'

loop_
  _atom_site_type_symbol
  _atom_site_label
  _atom_site_symmetry_multiplicity
  _atom_site_fract_x
  _atom_site_fract_y
  _atom_site_fract_z
  _atom_site_occupancy
  Li  Li1       1.0  0.24999997888201975  0.2500001270470533  0.24999996472654923  1.0000
  Li  Li2       1.0  0.7500000360308238  0.7499999734363683  0.7499999051971533  1.0000
  Co  Co1       1.0  3.991437795126208e-08  0.999999989807379  1.8428078036546798e-08  1.0000
  S   S1        1.0  0.2523183988784021  0.2523184177974588  0.747681581217651  1.0000
  S   S2        1.0  0.7476816214139312  0.7476815685286191  0.2523184379685052  1.0000
  S   S3        1.0  0.7476815660288778  0.25231839043425097  0.25231843356290834  1.0000
  S   S4        1.0  0.2523183533133764  0.7476815816221604  0.7476816648709428  1.0000
  S   S5        1.0  0.2523183619308515  0.7476815307902603  0.25231843795319603  1.0000
  S   S6        1.0  0.7476816446947426  0.2523184331120548  0.7476815626603596  1.0000
