data_image0
_chemical_formula_structural       Li2CrTe6
_chemical_formula_sum              "Li2 Cr1 Te6"
_cell_length_a       7.153336352210662
_cell_length_b       7.153336755008319
_cell_length_c       7.153336715781973
_cell_angle_alpha    59.99999922813757
_cell_angle_beta     59.99999945428869
_cell_angle_gamma    60.000003459674204

_space_group_name_H-M_alt    "P 1"
_space_group_IT_number       1

loop_
  _space_group_symop_operation_xyz
  'x, y, z'

loop_
  _atom_site_type_symbol
  _atom_site_label
  _atom_site_symmetry_multiplicity
  _atom_site_fract_x
  _atom_site_fract_y
  _atom_site_fract_z
  _atom_site_occupancy
  Li  Li1       1.0  0.2499999163317593  0.250000037649158  0.25000001386319815  1.0000
  Li  Li2       1.0  0.7500000456383868  0.7499999348858742  0.750000031227059  1.0000
  Cr  Cr1       1.0  2.853551382806622e-08  0.9999999143934559  1.781160603796241e-07  1.0000
  Te  Te1       1.0  0.26430168941696597  0.2643019201977594  0.735698210125962  1.0000
  Te  Te2       1.0  0.7356983078196243  0.735698149928733  0.2643017699332915  1.0000
  Te  Te3       1.0  0.7356982268211082  0.2643019295428776  0.26430174609567075  1.0000
  Te  Te4       1.0  0.26430186180736315  0.735698060113469  0.7356981250544894  1.0000
  Te  Te5       1.0  0.2643017812866649  0.735698101472972  0.26430185169106246  1.0000
  Te  Te6       1.0  0.7356981377179734  0.2643019515322107  0.7356980656068495  1.0000
