data_image0
_chemical_formula_structural       Li2CrO6
_chemical_formula_sum              "Li2 Cr1 O6"
_cell_length_a       5.302309652197263
_cell_length_b       5.30230969734856
_cell_length_c       5.302309680991711
_cell_angle_alpha    59.999999837584134
_cell_angle_beta     59.999999889653644
_cell_angle_gamma    60.000000056339466

_space_group_name_H-M_alt    "P 1"
_space_group_IT_number       1

loop_
  _space_group_symop_operation_xyz
  'x, y, z'

loop_
  _atom_site_type_symbol
  _atom_site_label
  _atom_site_symmetry_multiplicity
  _atom_site_fract_x
  _atom_site_fract_y
  _atom_site_fract_z
  _atom_site_occupancy
  Li  Li1       1.0  0.2500000077207229  0.24999999053685115  0.25000000606686384  1.0000
  Li  Li2       1.0  0.7500000036720241  0.7500000039482122  0.7499999985750402  1.0000
  Cr  Cr1       1.0  0.9999999835896325  2.3098327738954853e-08  0.9999999985419904  1.0000
  O   O1        1.0  0.23862918350903584  0.23862919262772522  0.7613708057347015  1.0000
  O   O2        1.0  0.7613708286536554  0.7613707995475055  0.23862918836132327  1.0000
  O   O3        1.0  0.7613708038804854  0.23862918202004285  0.23862919040833058  1.0000
  O   O4        1.0  0.23862917779396825  0.7613708101551878  0.7613708170458425  1.0000
  O   O5        1.0  0.23862918403197497  0.7613708164789146  0.23862918367057503  1.0000
  O   O6        1.0  0.7613708272286703  0.23862918493564725  0.7613708138006894  1.0000
