data_image0
_chemical_formula_structural       Li2CoO6
_chemical_formula_sum              "Li2 Co1 O6"
_cell_length_a       4.935200016732933
_cell_length_b       4.935204758097549
_cell_length_c       4.935200109264704
_cell_angle_alpha    59.99999811726558
_cell_angle_beta     59.99999833500776
_cell_angle_gamma    59.99998970061437

_space_group_name_H-M_alt    "P 1"
_space_group_IT_number       1

loop_
  _space_group_symop_operation_xyz
  'x, y, z'

loop_
  _atom_site_type_symbol
  _atom_site_label
  _atom_site_symmetry_multiplicity
  _atom_site_fract_x
  _atom_site_fract_y
  _atom_site_fract_z
  _atom_site_occupancy
  Li  Li1       1.0  0.2500002373389161  0.25000028011729997  0.2499999555526069  1.0000
  Li  Li2       1.0  0.7500000457635246  0.7499993786610257  0.7499995325106403  1.0000
  Co  Co1       1.0  0.9999998841046955  0.9999997791331596  3.406132530473903e-07  1.0000
  O   O1        1.0  0.2532847152045792  0.2532851104485589  0.7467150666493714  1.0000
  O   O2        1.0  0.7467155960596404  0.7467151166269282  0.25328567732590507  1.0000
  O   O3        1.0  0.7467135240880596  0.25328578437284677  0.2532850751499998  1.0000
  O   O4        1.0  0.25328493716739386  0.7467155917074021  0.7467146718639144  1.0000
  O   O5        1.0  0.2532862914122133  0.7467138959808716  0.25328476761620156  1.0000
  O   O6        1.0  0.7467149887536092  0.2532851721644996  0.7467147360680829  1.0000
