data_image0
_chemical_formula_structural       Li2FeTe6
_chemical_formula_sum              "Li2 Fe1 Te6"
_cell_length_a       7.211682716475811
_cell_length_b       7.211683364203565
_cell_length_c       7.2116830823404054
_cell_angle_alpha    59.999998514262984
_cell_angle_beta     60.00000302357782
_cell_angle_gamma    60.00000387873237

_space_group_name_H-M_alt    "P 1"
_space_group_IT_number       1

loop_
  _space_group_symop_operation_xyz
  'x, y, z'

loop_
  _atom_site_type_symbol
  _atom_site_label
  _atom_site_symmetry_multiplicity
  _atom_site_fract_x
  _atom_site_fract_y
  _atom_site_fract_z
  _atom_site_occupancy
  Li  Li1       1.0  0.24999994322234442  0.2499999143570416  0.25000009270790413  1.0000
  Li  Li2       1.0  0.749999967507576  0.7499999876232688  0.7500001299131732  1.0000
  Fe  Fe1       1.0  0.9999999096222466  9.340532725404265e-08  4.008537366801979e-08  1.0000
  Te  Te1       1.0  0.23425036929190513  0.2342503118366959  0.7657496486494315  1.0000
  Te  Te2       1.0  0.765749321932971  0.7657496818506739  0.23425037995580084  1.0000
  Te  Te3       1.0  0.7657496250583935  0.23425039173657425  0.2342503947741133  1.0000
  Te  Te4       1.0  0.23425055943244205  0.7657497361148288  0.7657493977679135  1.0000
  Te  Te5       1.0  0.2342505929014792  0.7657496994634186  0.23425020752882497  1.0000
  Te  Te6       1.0  0.7657497170010751  0.2342501770427274  0.765749722858479  1.0000
