data_image0
_chemical_formula_structural       Li2FeO6
_chemical_formula_sum              "Li2 Fe1 O6"
_cell_length_a       5.032494868000662
_cell_length_b       5.032494231542882
_cell_length_c       5.032495013338672
_cell_angle_alpha    59.99999792360388
_cell_angle_beta     59.99999774808707
_cell_angle_gamma    60.00000017668793

_space_group_name_H-M_alt    "P 1"
_space_group_IT_number       1

loop_
  _space_group_symop_operation_xyz
  'x, y, z'

loop_
  _atom_site_type_symbol
  _atom_site_label
  _atom_site_symmetry_multiplicity
  _atom_site_fract_x
  _atom_site_fract_y
  _atom_site_fract_z
  _atom_site_occupancy
  Li  Li1       1.0  0.24999997953742278  0.249999952320901  0.2500000917205372  1.0000
  Li  Li2       1.0  0.7499999727949062  0.7500000297535326  0.750000008733836  1.0000
  Fe  Fe1       1.0  0.9999999785383721  2.4336727520898304e-09  7.526891901402497e-09  1.0000
  O   O1        1.0  0.2590317471475421  0.25903148659362835  0.7409683640651289  1.0000
  O   O2        1.0  0.7409683009051778  0.7409684492410061  0.2590316520363686  1.0000
  O   O3        1.0  0.7409683997755034  0.25903160181120594  0.2590315975505517  1.0000
  O   O4        1.0  0.25903158426212525  0.7409684021662888  0.7409683827066029  1.0000
  O   O5        1.0  0.259031565332989  0.7409683952417836  0.2590316200237899  1.0000
  O   O6        1.0  0.7409684995685012  0.25903157953162914  0.7409683165197003  1.0000
