data_image0
_chemical_formula_structural       Li2FeS6
_chemical_formula_sum              "Li2 Fe1 S6"
_cell_length_a       6.11243679720522
_cell_length_b       6.112436173087855
_cell_length_c       6.112436679563613
_cell_angle_alpha    59.999999885321245
_cell_angle_beta     59.99999823272289
_cell_angle_gamma    60.000001074131745

_space_group_name_H-M_alt    "P 1"
_space_group_IT_number       1

loop_
  _space_group_symop_operation_xyz
  'x, y, z'

loop_
  _atom_site_type_symbol
  _atom_site_label
  _atom_site_symmetry_multiplicity
  _atom_site_fract_x
  _atom_site_fract_y
  _atom_site_fract_z
  _atom_site_occupancy
  Li  Li1       1.0  0.24999996465568775  0.2500000344607201  0.24999998453753666  1.0000
  Li  Li2       1.0  0.7499999942826102  0.7499999611199238  0.7499999614978797  1.0000
  Fe  Fe1       1.0  0.9999999454649423  0.9999999539150469  4.2129961623733905e-08  1.0000
  S   S1        1.0  0.2503317888483799  0.25033177337661344  0.7496681915674356  1.0000
  S   S2        1.0  0.7496683398404255  0.7496683023517777  0.2503316475149486  1.0000
  S   S3        1.0  0.7496681926423242  0.2503317732925183  0.25033190062567184  1.0000
  S   S4        1.0  0.25033173273087406  0.7496682323066003  0.7496682731362152  1.0000
  S   S5        1.0  0.25033187971695764  0.7496680826641531  0.2503319115692739  1.0000
  S   S6        1.0  0.7496682040558635  0.2503318387798391  0.7496681072777291  1.0000
