data_image0
_chemical_formula_structural       Li2GeSe6
_chemical_formula_sum              "Li2 Ge1 Se6"
_cell_length_a       6.461849144729343
_cell_length_b       6.461849533420145
_cell_length_c       6.461849015763929
_cell_angle_alpha    60.00000229366758
_cell_angle_beta     60.00000196019406
_cell_angle_gamma    60.00000121015598

_space_group_name_H-M_alt    "P 1"
_space_group_IT_number       1

loop_
  _space_group_symop_operation_xyz
  'x, y, z'

loop_
  _atom_site_type_symbol
  _atom_site_label
  _atom_site_symmetry_multiplicity
  _atom_site_fract_x
  _atom_site_fract_y
  _atom_site_fract_z
  _atom_site_occupancy
  Li  Li1       1.0  0.24999998297479795  0.2500001156649409  0.24999995433836078  1.0000
  Li  Li2       1.0  0.7500000388574802  0.7499998788440645  0.7500000227205716  1.0000
  Ge  Ge1       1.0  0.9999999624554392  3.222090313857188e-08  0.9999999717109349  1.0000
  Se  Se1       1.0  0.2837256566320993  0.2837258011957272  0.7162742768601564  1.0000
  Se  Se2       1.0  0.7162743384485241  0.7162742842899438  0.2837256943945295  1.0000
  Se  Se3       1.0  0.716274278821546  0.28372570219449234  0.2837257276542372  1.0000
  Se  Se4       1.0  0.2837256939516859  0.7162742411401392  0.7162743227345751  1.0000
  Se  Se5       1.0  0.28372573103676607  0.7162742469075964  0.2837257284182045  1.0000
  Se  Se6       1.0  0.7162743058498945  0.28372570779911715  0.7162743027983892  1.0000
