data_image0
_chemical_formula_structural       Li2GeO6
_chemical_formula_sum              "Li2 Ge1 O6"
_cell_length_a       5.061672457702879
_cell_length_b       5.061672145065786
_cell_length_c       5.061671908702813
_cell_angle_alpha    60.00000258697895
_cell_angle_beta     60.00000221183886
_cell_angle_gamma    60.00000079189787

_space_group_name_H-M_alt    "P 1"
_space_group_IT_number       1

loop_
  _space_group_symop_operation_xyz
  'x, y, z'

loop_
  _atom_site_type_symbol
  _atom_site_label
  _atom_site_symmetry_multiplicity
  _atom_site_fract_x
  _atom_site_fract_y
  _atom_site_fract_z
  _atom_site_occupancy
  Li  Li1       1.0  0.250000000092743  0.25000009602158263  0.24999992279365296  1.0000
  Li  Li2       1.0  0.7499999972657236  0.7499999275376811  0.7500000844937046  1.0000
  Ge  Ge1       1.0  1.2098223615767773e-08  0.9999999637053287  1.802511881985502e-08  1.0000
  O   O1        1.0  0.26265981903569924  0.2626598553039118  0.7373401643995047  1.0000
  O   O2        1.0  0.7373401825176346  0.7373401077642324  0.2626598532552923  1.0000
  O   O3        1.0  0.737340144914056  0.26265988111575983  0.26265982967897306  1.0000
  O   O4        1.0  0.2626598449324564  0.7373401376042139  0.7373401719302157  1.0000
  O   O5        1.0  0.26265991176803755  0.7373401416256622  0.26265977923299916  1.0000
  O   O6        1.0  0.7373400974118902  0.2626598601567977  0.7373401796899708  1.0000
