data_image0
_chemical_formula_structural       Li2HfO6
_chemical_formula_sum              "Li2 Hf1 O6"
_cell_length_a       5.3016457121556035
_cell_length_b       5.301645696566735
_cell_length_c       5.301645855097797
_cell_angle_alpha    59.99999907943975
_cell_angle_beta     59.99999954924349
_cell_angle_gamma    60.00000061980297

_space_group_name_H-M_alt    "P 1"
_space_group_IT_number       1

loop_
  _space_group_symop_operation_xyz
  'x, y, z'

loop_
  _atom_site_type_symbol
  _atom_site_label
  _atom_site_symmetry_multiplicity
  _atom_site_fract_x
  _atom_site_fract_y
  _atom_site_fract_z
  _atom_site_occupancy
  Li  Li1       1.0  0.24999995743644451  0.2500000306931129  0.2499999941571771  1.0000
  Li  Li2       1.0  0.750000009723704  0.7499999673327482  0.7499999912272954  1.0000
  Hf  Hf1       1.0  2.6117266820084684e-08  0.9999998105699898  7.411154482342898e-08  1.0000
  O   O1        1.0  0.2741767849982674  0.27417672178156444  0.725823225956471  1.0000
  O   O2        1.0  0.7258233449837065  0.7258233039657637  0.27417669244945664  1.0000
  O   O3        1.0  0.7258232656769134  0.27417675355737775  0.2741767188483946  1.0000
  O   O4        1.0  0.2741766560961714  0.7258233022215346  0.7258233546634195  1.0000
  O   O5        1.0  0.2741766224056441  0.7258233580661125  0.27417668037187615  1.0000
  O   O6        1.0  0.7258233077925526  0.27417675084560783  0.7258232529609888  1.0000
