data_image0
_chemical_formula_structural       Li2IrO6
_chemical_formula_sum              "Li2 Ir1 O6"
_cell_length_a       5.68963736659202
_cell_length_b       5.6896357563582285
_cell_length_c       5.689636304011357
_cell_angle_alpha    60.00000039841948
_cell_angle_beta     59.999995823445
_cell_angle_gamma    60.00001309262135

_space_group_name_H-M_alt    "P 1"
_space_group_IT_number       1

loop_
  _space_group_symop_operation_xyz
  'x, y, z'

loop_
  _atom_site_type_symbol
  _atom_site_label
  _atom_site_symmetry_multiplicity
  _atom_site_fract_x
  _atom_site_fract_y
  _atom_site_fract_z
  _atom_site_occupancy
  Li  Li1       1.0  0.2499998423760857  0.24999939294037324  0.25000051858895983  1.0000
  Li  Li2       1.0  0.7499999574898143  0.7500000537263762  0.7500006562252379  1.0000
  Ir  Ir1       1.0  1.582819773464244e-07  0.999999823487687  0.9999995609318462  1.0000
  O   O1        1.0  0.23185471674189145  0.2318553046375738  0.7681451419518557  1.0000
  O   O2        1.0  0.7681445315165769  0.768145291511644  0.23185545622700734  1.0000
  O   O3        1.0  0.7681458056625428  0.23185484757423264  0.2318541261478386  1.0000
  O   O4        1.0  0.2318547309078877  0.7681456280301738  0.7681448107498328  1.0000
  O   O5        1.0  0.2318546419462781  0.768145027746408  0.23185477810379765  1.0000
  O   O6        1.0  0.7681454108625059  0.2318546707732426  0.7681451231575931  1.0000
