data_image0
_chemical_formula_structural       Li2IrSe6
_chemical_formula_sum              "Li2 Ir1 Se6"
_cell_length_a       6.586687308806691
_cell_length_b       6.586687305434242
_cell_length_c       6.586687244902354
_cell_angle_alpha    60.00000150141137
_cell_angle_beta     60.0000006743089
_cell_angle_gamma    60.00000185012738

_space_group_name_H-M_alt    "P 1"
_space_group_IT_number       1

loop_
  _space_group_symop_operation_xyz
  'x, y, z'

loop_
  _atom_site_type_symbol
  _atom_site_label
  _atom_site_symmetry_multiplicity
  _atom_site_fract_x
  _atom_site_fract_y
  _atom_site_fract_z
  _atom_site_occupancy
  Li  Li1       1.0  0.24999993209858432  0.24999995448833937  0.25000005774617673  1.0000
  Li  Li2       1.0  0.7500000272923716  0.7500000382509342  0.749999996156901  1.0000
  Ir  Ir1       1.0  0.9999999426617484  3.7188484417825956e-09  1.618220426731937e-08  1.0000
  Se  Se1       1.0  0.2656459166137523  0.2656458530137358  0.734354119073551  1.0000
  Se  Se2       1.0  0.734354133512117  0.734354162038634  0.26564587071445295  1.0000
  Se  Se3       1.0  0.7343540838768172  0.2656459093583414  0.26564594514995166  1.0000
  Se  Se4       1.0  0.26564583607734454  0.7343541596173402  0.7343540508797589  1.0000
  Se  Se5       1.0  0.26564593927541036  0.7343540869416204  0.26564590128454546  1.0000
  Se  Se6       1.0  0.7343541886606255  0.2656458314206697  0.7343540326602177  1.0000
