data_image0
_chemical_formula_structural       Li2MnSe6
_chemical_formula_sum              "Li2 Mn1 Se6"
_cell_length_a       6.663609994464322
_cell_length_b       6.663610239092767
_cell_length_c       6.663609940664787
_cell_angle_alpha    60.000001282048025
_cell_angle_beta     60.00000123872533
_cell_angle_gamma    60.00000433416676

_space_group_name_H-M_alt    "P 1"
_space_group_IT_number       1

loop_
  _space_group_symop_operation_xyz
  'x, y, z'

loop_
  _atom_site_type_symbol
  _atom_site_label
  _atom_site_symmetry_multiplicity
  _atom_site_fract_x
  _atom_site_fract_y
  _atom_site_fract_z
  _atom_site_occupancy
  Li  Li1       1.0  0.24999999361829062  0.25000005244809537  0.2499999663704593  1.0000
  Li  Li2       1.0  0.7499999883149115  0.7499999478168584  0.7500000541698431  1.0000
  Mn  Mn1       1.0  0.9999999696316678  0.9999999871342794  8.164454934640484e-08  1.0000
  Se  Se1       1.0  0.24848622958774608  0.24848615127559265  0.7515137824056978  1.0000
  Se  Se2       1.0  0.7515138387084428  0.7515138030403671  0.24848614589458123  1.0000
  Se  Se3       1.0  0.7515138142473271  0.24848629049313992  0.24848624540074016  1.0000
  Se  Se4       1.0  0.24848632562109196  0.7515136362534228  0.7515138094662426  1.0000
  Se  Se5       1.0  0.24848617753579738  0.7515137642187997  0.2484862173935348  1.0000
  Se  Se6       1.0  0.7515136590635766  0.24848637573110208  0.7515136799134077  1.0000
