data_image0
_chemical_formula_structural       Li2MoSe6
_chemical_formula_sum              "Li2 Mo1 Se6"
_cell_length_a       6.869295333319477
_cell_length_b       6.869295390793179
_cell_length_c       6.8692954864562425
_cell_angle_alpha    59.99999802192582
_cell_angle_beta     59.999997920957234
_cell_angle_gamma    60.000001317054064

_space_group_name_H-M_alt    "P 1"
_space_group_IT_number       1

loop_
  _space_group_symop_operation_xyz
  'x, y, z'

loop_
  _atom_site_type_symbol
  _atom_site_label
  _atom_site_symmetry_multiplicity
  _atom_site_fract_x
  _atom_site_fract_y
  _atom_site_fract_z
  _atom_site_occupancy
  Li  Li1       1.0  0.24999998857689915  0.25000002120491316  0.24999999214895044  1.0000
  Li  Li2       1.0  0.7499999882969373  0.750000026173283  0.7500000261013074  1.0000
  Mo  Mo1       1.0  0.9999999325082106  0.9999999251170852  3.479351951690633e-08  1.0000
  Se  Se1       1.0  0.24833798700744758  0.24833803518830608  0.7516619898752155  1.0000
  Se  Se2       1.0  0.751662107906417  0.7516620514142771  0.24833791480475248  1.0000
  Se  Se3       1.0  0.7516619203230861  0.24833813281878825  0.2483380232654939  1.0000
  Se  Se4       1.0  0.24833808405790062  0.7516618824667314  0.751662016202321  1.0000
  Se  Se5       1.0  0.24833808013359795  0.7516618743096807  0.24833801080443058  1.0000
  Se  Se6       1.0  0.7516619310062139  0.2483380803563389  0.7516619915405743  1.0000
