data_image0
_chemical_formula_structural       Li2MnO6
_chemical_formula_sum              "Li2 Mn1 O6"
_cell_length_a       5.177749110593724
_cell_length_b       5.177749260670579
_cell_length_c       5.1777488838205326
_cell_angle_alpha    59.999999405585854
_cell_angle_beta     59.99999802769661
_cell_angle_gamma    60.000002297898035

_space_group_name_H-M_alt    "P 1"
_space_group_IT_number       1

loop_
  _space_group_symop_operation_xyz
  'x, y, z'

loop_
  _atom_site_type_symbol
  _atom_site_label
  _atom_site_symmetry_multiplicity
  _atom_site_fract_x
  _atom_site_fract_y
  _atom_site_fract_z
  _atom_site_occupancy
  Li  Li1       1.0  0.250000030796705  0.2499999535250046  0.2500000204418879  1.0000
  Li  Li2       1.0  0.7500000318598816  0.749999955191017  0.7500000017932706  1.0000
  Mn  Mn1       1.0  0.9999997962937587  0.9999999621535937  8.021816371726358e-08  1.0000
  O   O1        1.0  0.25736770355972666  0.25736768194058246  0.742632377066238  1.0000
  O   O2        1.0  0.7426323825419818  0.7426325177196516  0.2573674995622937  1.0000
  O   O3        1.0  0.7426324392985774  0.2573676224499044  0.257367556534862  1.0000
  O   O4        1.0  0.25736757841541347  0.7426324210939235  0.742632331915992  1.0000
  O   O5        1.0  0.2573675820678949  0.7426323532769171  0.2573677101153057  1.0000
  O   O6        1.0  0.7426324577695748  0.25736754361210223  0.742632381589127  1.0000
