data_image0
_chemical_formula_structural       Li2NbTe6
_chemical_formula_sum              "Li2 Nb1 Te6"
_cell_length_a       7.366356065896228
_cell_length_b       7.366356036953241
_cell_length_c       7.366356011210716
_cell_angle_alpha    59.999999319876025
_cell_angle_beta     59.99999998443932
_cell_angle_gamma    59.99999821956341

_space_group_name_H-M_alt    "P 1"
_space_group_IT_number       1

loop_
  _space_group_symop_operation_xyz
  'x, y, z'

loop_
  _atom_site_type_symbol
  _atom_site_label
  _atom_site_symmetry_multiplicity
  _atom_site_fract_x
  _atom_site_fract_y
  _atom_site_fract_z
  _atom_site_occupancy
  Li  Li1       1.0  0.25000001634292845  0.24999996558791068  0.2500000049193147  1.0000
  Li  Li2       1.0  0.7500000108836167  0.7500000064966349  0.74999997217646  1.0000
  Nb  Nb1       1.0  3.519747435646729e-08  4.4890733257743906e-08  0.9999998201309949  1.0000
  Te  Te1       1.0  0.26363005933397116  0.26363006801841066  0.7363699652768193  1.0000
  Te  Te2       1.0  0.7363698919066146  0.7363699157044736  0.26363012137159436  1.0000
  Te  Te3       1.0  0.7363699144349005  0.2636300741987513  0.2636300799092264  1.0000
  Te  Te4       1.0  0.2636300409214477  0.7363699677158235  0.7363699592951808  1.0000
  Te  Te5       1.0  0.263630060470526  0.736369931610833  0.2636300952807516  1.0000
  Te  Te6       1.0  0.7363699679595194  0.26363003216061315  0.7363699790389311  1.0000
