data_image0
_chemical_formula_structural       Li2NbSe6
_chemical_formula_sum              "Li2 Nb1 Se6"
_cell_length_a       6.794072679963445
_cell_length_b       6.794072781304673
_cell_length_c       6.794072978744709
_cell_angle_alpha    59.999998799677414
_cell_angle_beta     59.99999806345527
_cell_angle_gamma    60.0000031568311

_space_group_name_H-M_alt    "P 1"
_space_group_IT_number       1

loop_
  _space_group_symop_operation_xyz
  'x, y, z'

loop_
  _atom_site_type_symbol
  _atom_site_label
  _atom_site_symmetry_multiplicity
  _atom_site_fract_x
  _atom_site_fract_y
  _atom_site_fract_z
  _atom_site_occupancy
  Li  Li1       1.0  0.25000004911453394  0.250000023702147  0.24999998145648486  1.0000
  Li  Li2       1.0  0.749999999413247  0.7500000152237678  0.7500000006479637  1.0000
  Nb  Nb1       1.0  4.4895843225785255e-08  0.9999998143253336  5.7142571456788904e-08  1.0000
  Se  Se1       1.0  0.25930641222605555  0.25930642742014576  0.7406936010271515  1.0000
  Se  Se2       1.0  0.7406936163015765  0.7406936205191014  0.25930635566141097  1.0000
  Se  Se3       1.0  0.7406934593327846  0.25930651525009996  0.2593065339415733  1.0000
  Se  Se4       1.0  0.25930647930611644  0.7406935525184767  0.7406934960453402  1.0000
  Se  Se5       1.0  0.25930653492667377  0.7406934844449963  0.2593064874086967  1.0000
  Se  Se6       1.0  0.7406934038330102  0.25930654727024716  0.7406934840071925  1.0000
