data_image0
_chemical_formula_structural       Li2NiO6
_chemical_formula_sum              "Li2 Ni1 O6"
_cell_length_a       4.927271163433111
_cell_length_b       4.927269393691653
_cell_length_c       4.927270941549411
_cell_angle_alpha    59.99999176546759
_cell_angle_beta     59.9999865436849
_cell_angle_gamma    59.99999956215788

_space_group_name_H-M_alt    "P 1"
_space_group_IT_number       1

loop_
  _space_group_symop_operation_xyz
  'x, y, z'

loop_
  _atom_site_type_symbol
  _atom_site_label
  _atom_site_symmetry_multiplicity
  _atom_site_fract_x
  _atom_site_fract_y
  _atom_site_fract_z
  _atom_site_occupancy
  Li  Li1       1.0  0.2500000088186245  0.25000017937660873  0.249999818667213  1.0000
  Li  Li2       1.0  0.7499999523010833  0.7500000434861948  0.7500000001795422  1.0000
  Ni  Ni1       1.0  6.265681779122388e-08  1.1433973798334734e-07  0.9999998262618336  1.0000
  O   O1        1.0  0.2609193795888914  0.2609195045752028  0.7390806663337288  1.0000
  O   O2        1.0  0.739080615314499  0.7390804622660442  0.2609195457353787  1.0000
  O   O3        1.0  0.73908041927621  0.260919283564929  0.26091937427181733  1.0000
  O   O4        1.0  0.26091964285740915  0.7390805167379992  0.7390806905877847  1.0000
  O   O5        1.0  0.260919491171466  0.7390805550948055  0.26091923392200045  1.0000
  O   O6        1.0  0.73908045610681  0.2609192874640906  0.7390807901155036  1.0000
