data_image0
_chemical_formula_structural       Li2NiTe6
_chemical_formula_sum              "Li2 Ni1 Te6"
_cell_length_a       7.001705415912173
_cell_length_b       7.001705275461502
_cell_length_c       7.001705188915204
_cell_angle_alpha    59.999999216530895
_cell_angle_beta     59.999999017756316
_cell_angle_gamma    59.99999814576921

_space_group_name_H-M_alt    "P 1"
_space_group_IT_number       1

loop_
  _space_group_symop_operation_xyz
  'x, y, z'

loop_
  _atom_site_type_symbol
  _atom_site_label
  _atom_site_symmetry_multiplicity
  _atom_site_fract_x
  _atom_site_fract_y
  _atom_site_fract_z
  _atom_site_occupancy
  Li  Li1       1.0  0.2499999797684623  0.2500000355266243  0.2499999670140017  1.0000
  Li  Li2       1.0  0.7500000475533467  0.7499999648939074  0.7500000334471123  1.0000
  Ni  Ni1       1.0  1.1326947511887577e-08  4.023181584263405e-08  1.284687574674571e-07  1.0000
  Te  Te1       1.0  0.26058228215556567  0.2605823262676583  0.7394178252299656  1.0000
  Te  Te2       1.0  0.7394176687556606  0.7394176164289624  0.2605823636973958  1.0000
  Te  Te3       1.0  0.7394178374145018  0.2605822594243084  0.2605821425583679  1.0000
  Te  Te4       1.0  0.2605823077501779  0.7394176150531442  0.7394176919942513  1.0000
  Te  Te5       1.0  0.2605822269875981  0.7394178277128697  0.26058216531994  1.0000
  Te  Te6       1.0  0.739417636197371  0.2605823336349322  0.7394176682155853  1.0000
