data_image0
_chemical_formula_structural       Li2OsO6
_chemical_formula_sum              "Li2 Os1 O6"
_cell_length_a       5.382226448918877
_cell_length_b       5.382226054834051
_cell_length_c       5.382225500945991
_cell_angle_alpha    60.00000818855239
_cell_angle_beta     60.00000778952183
_cell_angle_gamma    60.000007373036304

_space_group_name_H-M_alt    "P 1"
_space_group_IT_number       1

loop_
  _space_group_symop_operation_xyz
  'x, y, z'

loop_
  _atom_site_type_symbol
  _atom_site_label
  _atom_site_symmetry_multiplicity
  _atom_site_fract_x
  _atom_site_fract_y
  _atom_site_fract_z
  _atom_site_occupancy
  Li  Li1       1.0  0.25000027940626085  0.24999995797848734  0.24999993855948227  1.0000
  Li  Li2       1.0  0.7500000367703495  0.750000012743114  0.7500001860161474  1.0000
  Os  Os1       1.0  0.9999999905744217  0.9999999317339198  0.9999998641968827  1.0000
  O   O1        1.0  0.24254818121576432  0.2425488213092308  0.7574514403275158  1.0000
  O   O2        1.0  0.7574516614938124  0.7574515271512674  0.24254838838820345  1.0000
  O   O3        1.0  0.7574513872151453  0.24254851841241004  0.24254861877342185  1.0000
  O   O4        1.0  0.2425483188474786  0.7574513453589857  0.7574517677199816  1.0000
  O   O5        1.0  0.24254858469666432  0.7574514054472793  0.24254838125886402  1.0000
  O   O6        1.0  0.757451510396398  0.242548533416805  0.7574516821325773  1.0000
