data_image0
_chemical_formula_structural       Li2OsS6
_chemical_formula_sum              "Li2 Os1 S6"
_cell_length_a       6.167106713311854
_cell_length_b       6.167107377182427
_cell_length_c       6.167106896623824
_cell_angle_alpha    60.00000066706067
_cell_angle_beta     60.000000159954
_cell_angle_gamma    60.000001430413

_space_group_name_H-M_alt    "P 1"
_space_group_IT_number       1

loop_
  _space_group_symop_operation_xyz
  'x, y, z'

loop_
  _atom_site_type_symbol
  _atom_site_label
  _atom_site_symmetry_multiplicity
  _atom_site_fract_x
  _atom_site_fract_y
  _atom_site_fract_z
  _atom_site_occupancy
  Li  Li1       1.0  0.2499999328277755  0.25000006547801523  0.24999999967094777  1.0000
  Li  Li2       1.0  0.7500000552457672  0.7499999541504857  0.7499999933949143  1.0000
  Os  Os1       1.0  0.9999997360465747  4.885389702196909e-07  2.2984495562937388e-07  1.0000
  S   S1        1.0  0.26334206238531677  0.26334204985653903  0.7366579007401115  1.0000
  S   S2        1.0  0.7366579201685918  0.7366578009678452  0.26334213084245234  1.0000
  S   S3        1.0  0.7366581181521052  0.26334191317863165  0.26334191349401953  1.0000
  S   S4        1.0  0.2633421498335801  0.7366578284195617  0.7366578143254755  1.0000
  S   S5        1.0  0.2633420449999131  0.7366578625610953  0.263342076338992  1.0000
  S   S6        1.0  0.736657989733261  0.2633420339396962  0.7366579257738057  1.0000
