data_image0
_chemical_formula_structural       Li2PO6
_chemical_formula_sum              "Li2 P1 O6"
_cell_length_a       5.022776242052112
_cell_length_b       5.022775773058631
_cell_length_c       5.022775850369954
_cell_angle_alpha    60.00000468715263
_cell_angle_beta     60.00000319194941
_cell_angle_gamma    60.0000034613753

_space_group_name_H-M_alt    "P 1"
_space_group_IT_number       1

loop_
  _space_group_symop_operation_xyz
  'x, y, z'

loop_
  _atom_site_type_symbol
  _atom_site_label
  _atom_site_symmetry_multiplicity
  _atom_site_fract_x
  _atom_site_fract_y
  _atom_site_fract_z
  _atom_site_occupancy
  Li  Li1       1.0  0.2499999703018381  0.25000000799683714  0.25000000884754126  1.0000
  Li  Li2       1.0  0.749999962318668  0.7499999800996315  0.7500000665819667  1.0000
  P   P1        1.0  1.550044026183195e-07  0.9999999487939757  0.9999999978740838  1.0000
  O   O1        1.0  0.23524304892358236  0.23524279921350547  0.7647570642844926  1.0000
  O   O2        1.0  0.7647569124912977  0.7647572059516378  0.2352429344583555  1.0000
  O   O3        1.0  0.7647570976129074  0.23524286041498235  0.23524278996333967  1.0000
  O   O4        1.0  0.23524284476112856  0.7647570984208932  0.7647572195643221  1.0000
  O   O5        1.0  0.2352429769954478  0.7647570367552035  0.23524286008333503  1.0000
  O   O6        1.0  0.7647571888169674  0.23524285868273676  0.7647571092427224  1.0000
