data_image0
_chemical_formula_structural       Li2PdS6
_chemical_formula_sum              "Li2 Pd1 S6"
_cell_length_a       6.316891246678203
_cell_length_b       6.3168908249528
_cell_length_c       6.316890793894655
_cell_angle_alpha    60.00000176200648
_cell_angle_beta     60.000001875995466
_cell_angle_gamma    59.99999987871916

_space_group_name_H-M_alt    "P 1"
_space_group_IT_number       1

loop_
  _space_group_symop_operation_xyz
  'x, y, z'

loop_
  _atom_site_type_symbol
  _atom_site_label
  _atom_site_symmetry_multiplicity
  _atom_site_fract_x
  _atom_site_fract_y
  _atom_site_fract_z
  _atom_site_occupancy
  Li  Li1       1.0  0.2500000031662901  0.24999998398763804  0.24999998366374018  1.0000
  Li  Li2       1.0  0.7500000764489442  0.75000001982236  0.7499999722376693  1.0000
  Pd  Pd1       1.0  1.538082072816283e-08  0.9999999922446341  0.9999999566108403  1.0000
  S   S1        1.0  0.26142615383930495  0.2614262040376147  0.7385738004639147  1.0000
  S   S2        1.0  0.7385738524549095  0.7385737784451285  0.26142614735462716  1.0000
  S   S3        1.0  0.7385739041989803  0.26142614383837554  0.26142612207721033  1.0000
  S   S4        1.0  0.26142605497383925  0.738573881298877  0.7385738976292957  1.0000
  S   S5        1.0  0.2614260249173038  0.7385739182873269  0.2614262121243916  1.0000
  S   S6        1.0  0.7385739162167396  0.261426062256578  0.7385739085526963  1.0000
