data_image0
_chemical_formula_structural       Li2PtSe6
_chemical_formula_sum              "Li2 Pt1 Se6"
_cell_length_a       6.585725798164422
_cell_length_b       6.585725624099674
_cell_length_c       6.585725709178791
_cell_angle_alpha    60.00000015400848
_cell_angle_beta     59.999999993090775
_cell_angle_gamma    60.00000154717033

_space_group_name_H-M_alt    "P 1"
_space_group_IT_number       1

loop_
  _space_group_symop_operation_xyz
  'x, y, z'

loop_
  _atom_site_type_symbol
  _atom_site_label
  _atom_site_symmetry_multiplicity
  _atom_site_fract_x
  _atom_site_fract_y
  _atom_site_fract_z
  _atom_site_occupancy
  Li  Li1       1.0  0.2499999629628849  0.24999994979765902  0.2500000750508559  1.0000
  Li  Li2       1.0  0.7500000185262037  0.7500000390819873  0.7499999789384626  1.0000
  Pt  Pt1       1.0  0.9999998882816421  3.5334224167113495e-08  0.9999999865652589  1.0000
  Se  Se1       1.0  0.26279320242557985  0.2627932485694025  0.7372067839909942  1.0000
  Se  Se2       1.0  0.7372068660557821  0.7372068370144457  0.26279314322606934  1.0000
  Se  Se3       1.0  0.7372067522842402  0.26279320851110166  0.2627932807836577  1.0000
  Se  Se4       1.0  0.2627932921670556  0.7372066966822183  0.7372067122012494  1.0000
  Se  Se5       1.0  0.2627932399323467  0.7372067336552972  0.2627932948020093  1.0000
  Se  Se6       1.0  0.7372067868427121  0.2627932403467808  0.7372067455015432  1.0000
