data_image0
_chemical_formula_structural       Li2PS6
_chemical_formula_sum              "Li2 P1 S6"
_cell_length_a       6.375372943022285
_cell_length_b       6.375373137239476
_cell_length_c       6.37537299350946
_cell_angle_alpha    59.999998512750665
_cell_angle_beta     60.0000014201379
_cell_angle_gamma    59.999999797882936

_space_group_name_H-M_alt    "P 1"
_space_group_IT_number       1

loop_
  _space_group_symop_operation_xyz
  'x, y, z'

loop_
  _atom_site_type_symbol
  _atom_site_label
  _atom_site_symmetry_multiplicity
  _atom_site_fract_x
  _atom_site_fract_y
  _atom_site_fract_z
  _atom_site_occupancy
  Li  Li1       1.0  0.24999992073710295  0.25000005047624013  0.2500000232726797  1.0000
  Li  Li2       1.0  0.7500000694230001  0.7499998709545438  0.7499999937078631  1.0000
  P   P1        1.0  3.28211342901774e-08  0.9999999884736656  0.9999999360223877  1.0000
  S   S1        1.0  0.23977962638806558  0.23977976309188195  0.7602203742953183  1.0000
  S   S2        1.0  0.7602204446540448  0.7602201276019999  0.2397797932886693  1.0000
  S   S3        1.0  0.760220287930302  0.23977992960643457  0.2397794650097817  1.0000
  S   S4        1.0  0.2397796216176136  0.7602202934301447  0.7602204069661661  1.0000
  S   S5        1.0  0.2397795809220888  0.7602202369125077  0.2397797686705157  1.0000
  S   S6        1.0  0.7602203152005199  0.23977980362374973  0.760220218522142  1.0000
