data_image0
_chemical_formula_structural       Li2PtO6
_chemical_formula_sum              "Li2 Pt1 O6"
_cell_length_a       5.777659871804899
_cell_length_b       5.777660086715876
_cell_length_c       5.777660201871518
_cell_angle_alpha    60.0000000070429
_cell_angle_beta     59.99999464706218
_cell_angle_gamma    59.99999551016353

_space_group_name_H-M_alt    "P 1"
_space_group_IT_number       1

loop_
  _space_group_symop_operation_xyz
  'x, y, z'

loop_
  _atom_site_type_symbol
  _atom_site_label
  _atom_site_symmetry_multiplicity
  _atom_site_fract_x
  _atom_site_fract_y
  _atom_site_fract_z
  _atom_site_occupancy
  Li  Li1       1.0  0.250000309244212  0.2500000425936079  0.25000003671628956  1.0000
  Li  Li2       1.0  0.7500000326893159  0.7499995872333978  0.7499999988889299  1.0000
  Pt  Pt1       1.0  8.295246580064264e-08  0.9999998770519509  1.515389271977874e-07  1.0000
  O   O1        1.0  0.23092696157600193  0.23092664621497394  0.7690730091650706  1.0000
  O   O2        1.0  0.7690729511654918  0.7690733418572216  0.23092684729383206  1.0000
  O   O3        1.0  0.7690729663075001  0.23092708553285396  0.23092675116060649  1.0000
  O   O4        1.0  0.2309268811185304  0.7690734282482385  0.7690728612551478  1.0000
  O   O5        1.0  0.23092684177375358  0.7690729910620928  0.23092696053637843  1.0000
  O   O6        1.0  0.769073092972692  0.23092696097361518  0.769073399679169  1.0000
