data_image0
_chemical_formula_structural       Li2RuSe6
_chemical_formula_sum              "Li2 Ru1 Se6"
_cell_length_a       6.5457800937171715
_cell_length_b       6.545779891237489
_cell_length_c       6.545780057685737
_cell_angle_alpha    59.99999931432556
_cell_angle_beta     59.99999908841797
_cell_angle_gamma    59.99999930657222

_space_group_name_H-M_alt    "P 1"
_space_group_IT_number       1

loop_
  _space_group_symop_operation_xyz
  'x, y, z'

loop_
  _atom_site_type_symbol
  _atom_site_label
  _atom_site_symmetry_multiplicity
  _atom_site_fract_x
  _atom_site_fract_y
  _atom_site_fract_z
  _atom_site_occupancy
  Li  Li1       1.0  0.2499999726281337  0.2499999715147131  0.2500000186942653  1.0000
  Li  Li2       1.0  0.7499999648346684  0.7500000118384804  0.7500000481239674  1.0000
  Ru  Ru1       1.0  3.588608353528848e-08  2.9936720539677045e-08  0.9999999991703356  1.0000
  Se  Se1       1.0  0.26454548851032106  0.26454544664469076  0.7354545293726331  1.0000
  Se  Se2       1.0  0.7354545106051681  0.7354545105138726  0.2645454677747093  1.0000
  Se  Se3       1.0  0.7354545632797673  0.26454547125090483  0.2645454636614277  1.0000
  Se  Se4       1.0  0.264545454705106  0.7354545139733338  0.7354545329339117  1.0000
  Se  Se5       1.0  0.2645454882957359  0.7354545504891028  0.26454544153673715  1.0000
  Se  Se6       1.0  0.7354545209392348  0.2645454927375312  0.7354544983506182  1.0000
