data_image0
_chemical_formula_structural       Li2RuO6
_chemical_formula_sum              "Li2 Ru1 O6"
_cell_length_a       5.604988300028134
_cell_length_b       5.604988652695216
_cell_length_c       5.604987609465437
_cell_angle_alpha    60.00000325559032
_cell_angle_beta     60.00000870308451
_cell_angle_gamma    59.999997553342865

_space_group_name_H-M_alt    "P 1"
_space_group_IT_number       1

loop_
  _space_group_symop_operation_xyz
  'x, y, z'

loop_
  _atom_site_type_symbol
  _atom_site_label
  _atom_site_symmetry_multiplicity
  _atom_site_fract_x
  _atom_site_fract_y
  _atom_site_fract_z
  _atom_site_occupancy
  Li  Li1       1.0  0.249999924496055  0.24999991074050978  0.24999999559235433  1.0000
  Li  Li2       1.0  0.7499998526760228  0.7500004773398649  0.7500000188711434  1.0000
  Ru  Ru1       1.0  0.9999999023848791  0.9999998973004142  0.9999999931098363  1.0000
  O   O1        1.0  0.23139227685608924  0.23139220118045664  0.7686078533019026  1.0000
  O   O2        1.0  0.7686080204544355  0.768607738954829  0.23139198590317356  1.0000
  O   O3        1.0  0.7686077530358595  0.23139243256873648  0.23139210961765327  1.0000
  O   O4        1.0  0.23139230292517854  0.7686076321171496  0.7686076809393393  1.0000
  O   O5        1.0  0.2313922956355916  0.7686076591804054  0.23139219087641474  1.0000
  O   O6        1.0  0.768607691159501  0.23139214329374233  0.7686078135408049  1.0000
