data_image0
_chemical_formula_structural       Li2ReS6
_chemical_formula_sum              "Li2 Re1 S6"
_cell_length_a       6.26607885262015
_cell_length_b       6.26607871152544
_cell_length_c       6.266078561515112
_cell_angle_alpha    60.00000306424632
_cell_angle_beta     60.00000209759567
_cell_angle_gamma    59.99999967746562

_space_group_name_H-M_alt    "P 1"
_space_group_IT_number       1

loop_
  _space_group_symop_operation_xyz
  'x, y, z'

loop_
  _atom_site_type_symbol
  _atom_site_label
  _atom_site_symmetry_multiplicity
  _atom_site_fract_x
  _atom_site_fract_y
  _atom_site_fract_z
  _atom_site_occupancy
  Li  Li1       1.0  0.25000001092904084  0.24999992071709254  0.2500000441965393  1.0000
  Li  Li2       1.0  0.7500000151001512  0.7499999810623847  0.7500000319775536  1.0000
  Re  Re1       1.0  0.9999999471917194  3.127301618582959e-08  4.3840547364867025e-09  1.0000
  S   S1        1.0  0.260283046151576  0.2602831056493748  0.7397168815538914  1.0000
  S   S2        1.0  0.739716970270826  0.7397169134039061  0.26028298598493516  1.0000
  S   S3        1.0  0.7397169759422538  0.2602831056629479  0.2602830183522442  1.0000
  S   S4        1.0  0.2602830434407628  0.7397168547534337  0.7397170605525855  1.0000
  S   S5        1.0  0.26028304854628687  0.739716986102557  0.2602830607989405  1.0000
  S   S6        1.0  0.7397169729573208  0.26028305640548943  0.7397169744038683  1.0000
