data_image0
_chemical_formula_structural       Li2ReTe6
_chemical_formula_sum              "Li2 Re1 Te6"
_cell_length_a       7.275259886142365
_cell_length_b       7.275260110739251
_cell_length_c       7.275260223624101
_cell_angle_alpha    59.99999842774574
_cell_angle_beta     60.00000058621328
_cell_angle_gamma    60.00000117390024

_space_group_name_H-M_alt    "P 1"
_space_group_IT_number       1

loop_
  _space_group_symop_operation_xyz
  'x, y, z'

loop_
  _atom_site_type_symbol
  _atom_site_label
  _atom_site_symmetry_multiplicity
  _atom_site_fract_x
  _atom_site_fract_y
  _atom_site_fract_z
  _atom_site_occupancy
  Li  Li1       1.0  0.2500000087529226  0.24999996399188767  0.25000000301382347  1.0000
  Li  Li2       1.0  0.7500000360842505  0.7500000148666316  0.7499999660501058  1.0000
  Re  Re1       1.0  0.9999999950624857  0.99999998148218  1.5055431660748766e-07  1.0000
  Te  Te1       1.0  0.25926098240464246  0.2592610545836131  0.7407389555976054  1.0000
  Te  Te2       1.0  0.7407389428810688  0.7407390067633634  0.25926102375069593  1.0000
  Te  Te3       1.0  0.7407389446581456  0.2592610533132125  0.25926100769820276  1.0000
  Te  Te4       1.0  0.25926110412356473  0.7407388851427984  0.7407388916253503  1.0000
  Te  Te5       1.0  0.259261017466544  0.7407389856868917  0.25926104027075986  1.0000
  Te  Te6       1.0  0.7407389595545603  0.2592610537753916  0.740738965387831  1.0000
