data_image0
_chemical_formula_structural       Li2ReO6
_chemical_formula_sum              "Li2 Re1 O6"
_cell_length_a       5.489232728875237
_cell_length_b       5.4892346584785745
_cell_length_c       5.4892336222200155
_cell_angle_alpha    59.999999704682644
_cell_angle_beta     59.9999969093987
_cell_angle_gamma    60.0000005958022

_space_group_name_H-M_alt    "P 1"
_space_group_IT_number       1

loop_
  _space_group_symop_operation_xyz
  'x, y, z'

loop_
  _atom_site_type_symbol
  _atom_site_label
  _atom_site_symmetry_multiplicity
  _atom_site_fract_x
  _atom_site_fract_y
  _atom_site_fract_z
  _atom_site_occupancy
  Li  Li1       1.0  0.2500001046625945  0.2500000096776234  0.2499998435158105  1.0000
  Li  Li2       1.0  0.7500001374408287  0.7499997635229201  0.7500000011553608  1.0000
  Re  Re1       1.0  2.9763216654264903e-07  0.9999995046789663  0.9999995723593108  1.0000
  O   O1        1.0  0.24346051150513917  0.24346092960299484  0.7565392238614703  1.0000
  O   O2        1.0  0.7565390154814482  0.7565393166068833  0.24346079833760162  1.0000
  O   O3        1.0  0.7565396449584361  0.24346077932200236  0.24346062898519558  1.0000
  O   O4        1.0  0.24346046758728282  0.7565394267266611  0.7565393300159421  1.0000
  O   O5        1.0  0.24346055839370306  0.7565394469002898  0.24346065302229117  1.0000
  O   O6        1.0  0.756538957050478  0.24346107374419984  0.7565396166542343  1.0000
