data_image0
_chemical_formula_structural       Li2RhS6
_chemical_formula_sum              "Li2 Rh1 S6"
_cell_length_a       6.173585998471728
_cell_length_b       6.1735858980198755
_cell_length_c       6.173585870536605
_cell_angle_alpha    60.00000204588913
_cell_angle_beta     60.00000120266292
_cell_angle_gamma    59.99999972374877

_space_group_name_H-M_alt    "P 1"
_space_group_IT_number       1

loop_
  _space_group_symop_operation_xyz
  'x, y, z'

loop_
  _atom_site_type_symbol
  _atom_site_label
  _atom_site_symmetry_multiplicity
  _atom_site_fract_x
  _atom_site_fract_y
  _atom_site_fract_z
  _atom_site_occupancy
  Li  Li1       1.0  0.2499999942213138  0.2499999818275384  0.24999996061318142  1.0000
  Li  Li2       1.0  0.7499999642420285  0.7500000288041851  0.750000092360339  1.0000
  Rh  Rh1       1.0  8.329875835047374e-08  0.9999999801615305  0.999999939113381  1.0000
  S   S1        1.0  0.2604838957377195  0.2604837825527321  0.7395161428463128  1.0000
  S   S2        1.0  0.7395161309867475  0.7395161467412702  0.2604838162376479  1.0000
  S   S3        1.0  0.7395161920897364  0.26048385847264927  0.2604837955278265  1.0000
  S   S4        1.0  0.2604837625193703  0.7395161581106129  0.7395161689276184  1.0000
  S   S5        1.0  0.26048382581387985  0.739516230074098  0.26048385293970405  1.0000
  S   S6        1.0  0.7395161342734677  0.26048382618610233  0.7395162169026798  1.0000
