data_image0
_chemical_formula_structural       Li2SnS6
_chemical_formula_sum              "Li2 Sn1 S6"
_cell_length_a       6.496701693686776
_cell_length_b       6.496701979770832
_cell_length_c       6.496701570062848
_cell_angle_alpha    60.00000561698815
_cell_angle_beta     60.00000207041442
_cell_angle_gamma    60.00000005511248

_space_group_name_H-M_alt    "P 1"
_space_group_IT_number       1

loop_
  _space_group_symop_operation_xyz
  'x, y, z'

loop_
  _atom_site_type_symbol
  _atom_site_label
  _atom_site_symmetry_multiplicity
  _atom_site_fract_x
  _atom_site_fract_y
  _atom_site_fract_z
  _atom_site_occupancy
  Li  Li1       1.0  0.2500000288316897  0.2500000050213091  0.24999998707490317  1.0000
  Li  Li2       1.0  0.7499999720968655  0.7500000489971593  0.7499999953002245  1.0000
  Sn  Sn1       1.0  1.1938835218656733e-07  1.5081433673749306e-08  6.206148954981976e-08  1.0000
  S   S1        1.0  0.2709699004796525  0.27096971906154876  0.7290302004012397  1.0000
  S   S2        1.0  0.7290298792703845  0.7290300653762903  0.27097004736360625  1.0000
  S   S3        1.0  0.7290301791866917  0.2709699551951346  0.2709699419032725  1.0000
  S   S4        1.0  0.27097012134639203  0.7290299838273835  0.7290299466283237  1.0000
  S   S5        1.0  0.2709699298128739  0.7290301225716576  0.2709699023998768  1.0000
  S   S6        1.0  0.7290298880809843  0.2709700539834673  0.729029937829098  1.0000
