data_image0
_chemical_formula_structural       Li2SeO6
_chemical_formula_sum              "Li2 Se1 O6"
_cell_length_a       4.967060442399737
_cell_length_b       4.967055400362457
_cell_length_c       4.967051620489002
_cell_angle_alpha    60.00001402904441
_cell_angle_beta     60.00003707512641
_cell_angle_gamma    60.0000036531135

_space_group_name_H-M_alt    "P 1"
_space_group_IT_number       1

loop_
  _space_group_symop_operation_xyz
  'x, y, z'

loop_
  _atom_site_type_symbol
  _atom_site_label
  _atom_site_symmetry_multiplicity
  _atom_site_fract_x
  _atom_site_fract_y
  _atom_site_fract_z
  _atom_site_occupancy
  Li  Li1       1.0  0.2499995222957567  0.2500005134405648  0.2500002844718473  1.0000
  Li  Li2       1.0  0.7499997387018098  0.7500005564930473  0.7500003024109286  1.0000
  Se  Se1       1.0  0.9999986499118164  9.049250966651415e-07  1.3601121709173063e-07  1.0000
  O   O1        1.0  0.2808396994007132  0.2808390477312903  0.719161011672078  1.0000
  O   O2        1.0  0.7191607204272574  0.7191596057809041  0.28083993221520376  1.0000
  O   O3        1.0  0.7191602644295058  0.28084083922741016  0.2808394018600098  1.0000
  O   O4        1.0  0.28083998294104556  0.7191595033141169  0.7191604354460489  1.0000
  O   O5        1.0  0.280841097898088  0.7191588866249558  0.28084069290882646  1.0000
  O   O6        1.0  0.7191598382819603  0.28084072852447317  0.7191582818776336  1.0000
