data_image0
_chemical_formula_structural       Li2SO6
_chemical_formula_sum              "Li2 S1 O6"
_cell_length_a       4.899131310188647
_cell_length_b       4.899132296508724
_cell_length_c       4.899131318897488
_cell_angle_alpha    60.000004138024316
_cell_angle_beta     59.999995675277894
_cell_angle_gamma    60.00000082450744

_space_group_name_H-M_alt    "P 1"
_space_group_IT_number       1

loop_
  _space_group_symop_operation_xyz
  'x, y, z'

loop_
  _atom_site_type_symbol
  _atom_site_label
  _atom_site_symmetry_multiplicity
  _atom_site_fract_x
  _atom_site_fract_y
  _atom_site_fract_z
  _atom_site_occupancy
  Li  Li1       1.0  0.24999998781453944  0.25000014183173436  0.250000030758447  1.0000
  Li  Li2       1.0  0.750000037109677  0.7500001055052035  0.7500000215253869  1.0000
  S   S1        1.0  5.8396714238617015e-08  1.924939808585989e-07  0.9999998847605379  1.0000
  O   O1        1.0  0.23174686674938286  0.23174682474260164  0.7682531998468974  1.0000
  O   O2        1.0  0.768253323165516  0.7682531751020675  0.23174662629338605  1.0000
  O   O3        1.0  0.7682530834375118  0.23174673447287697  0.23174692209945813  1.0000
  O   O4        1.0  0.23174660644871334  0.7682531603750947  0.7682532882006564  1.0000
  O   O5        1.0  0.23174681431455987  0.768253129207542  0.23174676454502824  1.0000
  O   O6        1.0  0.7682531876653134  0.2317467556407312  0.7682530824255699  1.0000
