data_image0
_chemical_formula_structural       Li2SiS6
_chemical_formula_sum              "Li2 Si1 S6"
_cell_length_a       6.177097520685403
_cell_length_b       6.1770971251090945
_cell_length_c       6.1770973737194526
_cell_angle_alpha    60.00000033456961
_cell_angle_beta     59.99999760522706
_cell_angle_gamma    59.99999869935727

_space_group_name_H-M_alt    "P 1"
_space_group_IT_number       1

loop_
  _space_group_symop_operation_xyz
  'x, y, z'

loop_
  _atom_site_type_symbol
  _atom_site_label
  _atom_site_symmetry_multiplicity
  _atom_site_fract_x
  _atom_site_fract_y
  _atom_site_fract_z
  _atom_site_occupancy
  Li  Li1       1.0  0.2500003080677182  0.24999988275862836  0.24999989089895244  1.0000
  Li  Li2       1.0  0.7499998729390771  0.7499999139602584  0.750000316413655  1.0000
  Si  Si1       1.0  0.9999999567753776  2.0818551660946466e-07  1.2473662351390275e-07  1.0000
  S   S1        1.0  0.2543564980457348  0.25435631285562116  0.7456436120787029  1.0000
  S   S2        1.0  0.7456434009358341  0.7456436345499093  0.2543562917978044  1.0000
  S   S3        1.0  0.7456434674304794  0.2543564638271692  0.2543564330335087  1.0000
  S   S4        1.0  0.2543567975825872  0.745643338839861  0.7456432792523222  1.0000
  S   S5        1.0  0.25435668595227723  0.7456436032182238  0.25435635949595725  1.0000
  S   S6        1.0  0.7456430754507027  0.2543565662518572  0.7456437061168757  1.0000
