data_image0
_chemical_formula_structural       Li2SnO6
_chemical_formula_sum              "Li2 Sn1 O6"
_cell_length_a       5.239651945064251
_cell_length_b       5.239651419262428
_cell_length_c       5.239650955122735
_cell_angle_alpha    60.000003957846594
_cell_angle_beta     60.00000200342177
_cell_angle_gamma    60.00000026572346

_space_group_name_H-M_alt    "P 1"
_space_group_IT_number       1

loop_
  _space_group_symop_operation_xyz
  'x, y, z'

loop_
  _atom_site_type_symbol
  _atom_site_label
  _atom_site_symmetry_multiplicity
  _atom_site_fract_x
  _atom_site_fract_y
  _atom_site_fract_z
  _atom_site_occupancy
  Li  Li1       1.0  0.249999926666668  0.25000005305290524  0.2500000388774584  1.0000
  Li  Li2       1.0  0.7499999841527821  0.7499999698248729  0.7500000099796474  1.0000
  Sn  Sn1       1.0  2.1971284502757767e-07  0.9999998036538078  4.2536867849844223e-07  1.0000
  O   O1        1.0  0.276823057111141  0.27682329560895963  0.7231767911173331  1.0000
  O   O2        1.0  0.7231769247179117  0.7231767786928212  0.27682309537119226  1.0000
  O   O3        1.0  0.7231767759789056  0.2768231752704309  0.27682324113571494  1.0000
  O   O4        1.0  0.2768233205839852  0.7231766606109592  0.723176697653461  1.0000
  O   O5        1.0  0.2768232371060254  0.7231768890070602  0.2768231543179709  1.0000
  O   O6        1.0  0.7231766820357345  0.27682331385473186  0.7231765942653742  1.0000
