data_image0
_chemical_formula_structural       Li2SeS6
_chemical_formula_sum              "Li2 Se1 S6"
_cell_length_a       6.401792110268056
_cell_length_b       6.401791920497837
_cell_length_c       6.401792422529551
_cell_angle_alpha    59.99999966466431
_cell_angle_beta     59.999999392894345
_cell_angle_gamma    60.000002325324665

_space_group_name_H-M_alt    "P 1"
_space_group_IT_number       1

loop_
  _space_group_symop_operation_xyz
  'x, y, z'

loop_
  _atom_site_type_symbol
  _atom_site_label
  _atom_site_symmetry_multiplicity
  _atom_site_fract_x
  _atom_site_fract_y
  _atom_site_fract_z
  _atom_site_occupancy
  Li  Li1       1.0  0.25000004979312435  0.24999999857107216  0.24999993648975383  1.0000
  Li  Li2       1.0  0.7499999716494015  0.7500000148444949  0.7500000043612334  1.0000
  Se  Se1       1.0  4.4802165771944386e-08  0.9999999521717987  9.992295600253497e-08  1.0000
  S   S1        1.0  0.24119714434914316  0.24119709220243882  0.7588029388291428  1.0000
  S   S2        1.0  0.758802922842727  0.7588028867768252  0.24119713382682534  1.0000
  S   S3        1.0  0.7588027581276099  0.2411972404905861  0.2411971061465967  1.0000
  S   S4        1.0  0.2411971505374381  0.7588027595330789  0.7588028618616416  1.0000
  S   S5        1.0  0.24119719610906426  0.7588028343383912  0.24119707013795968  1.0000
  S   S6        1.0  0.7588028044172387  0.24119720394784133  0.7588028531151815  1.0000
