data_image0
_chemical_formula_structural       Li2SiTe6
_chemical_formula_sum              "Li2 Si1 Te6"
_cell_length_a       7.246732547532096
_cell_length_b       7.246732615943939
_cell_length_c       7.246732705137821
_cell_angle_alpha    59.99999933084366
_cell_angle_beta     59.999998914898626
_cell_angle_gamma    59.99999991692294

_space_group_name_H-M_alt    "P 1"
_space_group_IT_number       1

loop_
  _space_group_symop_operation_xyz
  'x, y, z'

loop_
  _atom_site_type_symbol
  _atom_site_label
  _atom_site_symmetry_multiplicity
  _atom_site_fract_x
  _atom_site_fract_y
  _atom_site_fract_z
  _atom_site_occupancy
  Li  Li1       1.0  0.24999993480044042  0.2500000532181838  0.25000002928906756  1.0000
  Li  Li2       1.0  0.7500000347414856  0.7499999179752651  0.7499999900418465  1.0000
  Si  Si1       1.0  1.80908487354845e-08  0.999999998309935  3.457750709978344e-08  1.0000
  Te  Te1       1.0  0.2604108308264012  0.2604109691346898  0.7395890870357185  1.0000
  Te  Te2       1.0  0.7395891305385859  0.739589040930253  0.2604109210877147  1.0000
  Te  Te3       1.0  0.7395891192054338  0.2604109405944716  0.2604108788044692  1.0000
  Te  Te4       1.0  0.2604109306503468  0.739589052569822  0.7395891031834172  1.0000
  Te  Te5       1.0  0.2604108849233636  0.7395890516408813  0.2604109035395194  1.0000
  Te  Te6       1.0  0.7395891228272004  0.2604109770147761  0.7395890527767167  1.0000
