data_image0
_chemical_formula_structural       Li2SnTe6
_chemical_formula_sum              "Li2 Sn1 Te6"
_cell_length_a       7.51645553875225
_cell_length_b       7.516455599345648
_cell_length_c       7.516455691414487
_cell_angle_alpha    59.99999955263711
_cell_angle_beta     59.99999949751196
_cell_angle_gamma    60.000000072537546

_space_group_name_H-M_alt    "P 1"
_space_group_IT_number       1

loop_
  _space_group_symop_operation_xyz
  'x, y, z'

loop_
  _atom_site_type_symbol
  _atom_site_label
  _atom_site_symmetry_multiplicity
  _atom_site_fract_x
  _atom_site_fract_y
  _atom_site_fract_z
  _atom_site_occupancy
  Li  Li1       1.0  0.24999997462707954  0.2500000375259142  0.25000000138702566  1.0000
  Li  Li2       1.0  0.750000016584939  0.7499999773360413  0.7499999961609634  1.0000
  Sn  Sn1       1.0  2.7956392782698464e-10  0.9999999853352372  3.9122542236515705e-08  1.0000
  Te  Te1       1.0  0.2736911874800035  0.27369120580071343  0.7263087941216683  1.0000
  Te  Te2       1.0  0.7263088190943161  0.7263088090612421  0.2736911691368844  1.0000
  Te  Te3       1.0  0.7263087891852488  0.2736912187251351  0.27369118975130896  1.0000
  Te  Te4       1.0  0.2736912143325991  0.7263087684367128  0.7263087888855334  1.0000
  Te  Te5       1.0  0.2736912146480814  0.7263087836075368  0.2736912324370836  1.0000
  Te  Te6       1.0  0.7263087917558507  0.2736912133308198  0.7263087917546192  1.0000
