data_image0
_chemical_formula_structural       Li2SnSe6
_chemical_formula_sum              "Li2 Sn1 Se6"
_cell_length_a       6.67483204998532
_cell_length_b       6.6748328689558365
_cell_length_c       6.674833125045112
_cell_angle_alpha    59.999992856296224
_cell_angle_beta     60.00000111695207
_cell_angle_gamma    59.999996659948394

_space_group_name_H-M_alt    "P 1"
_space_group_IT_number       1

loop_
  _space_group_symop_operation_xyz
  'x, y, z'

loop_
  _atom_site_type_symbol
  _atom_site_label
  _atom_site_symmetry_multiplicity
  _atom_site_fract_x
  _atom_site_fract_y
  _atom_site_fract_z
  _atom_site_occupancy
  Li  Li1       1.0  0.2500000869516316  0.25000025122241204  0.24999966231989687  1.0000
  Li  Li2       1.0  0.7500001228626763  0.7499997041216302  0.7500001425404408  1.0000
  Sn  Sn1       1.0  2.0060633155515043e-08  0.9999999761466856  6.631742886138079e-08  1.0000
  Se  Se1       1.0  0.2864919611242082  0.2864920764454798  0.7135080401224824  1.0000
  Se  Se2       1.0  0.7135082707923999  0.713508020183524  0.2864918688166539  1.0000
  Se  Se3       1.0  0.7135082727884619  0.2864916257087423  0.2864917785177694  1.0000
  Se  Se4       1.0  0.2864920373531906  0.7135078158717152  0.7135084832542368  1.0000
  Se  Se5       1.0  0.2864915599025247  0.7135084125088174  0.2864916808295518  1.0000
  Se  Se6       1.0  0.7135076705331341  0.28649212999360424  0.713508284184892  1.0000
