data_image0
_chemical_formula_structural       Li2TiTe6
_chemical_formula_sum              "Li2 Ti1 Te6"
_cell_length_a       7.265224504733009
_cell_length_b       7.265224641238278
_cell_length_c       7.26522459698432
_cell_angle_alpha    60.00000251223989
_cell_angle_beta     60.000000085480785
_cell_angle_gamma    60.0000033597598

_space_group_name_H-M_alt    "P 1"
_space_group_IT_number       1

loop_
  _space_group_symop_operation_xyz
  'x, y, z'

loop_
  _atom_site_type_symbol
  _atom_site_label
  _atom_site_symmetry_multiplicity
  _atom_site_fract_x
  _atom_site_fract_y
  _atom_site_fract_z
  _atom_site_occupancy
  Li  Li1       1.0  0.25000003938588383  0.2499999775110599  0.25000003011411775  1.0000
  Li  Li2       1.0  0.7499999529916139  0.7500000370504926  0.7500000587278197  1.0000
  Ti  Ti1       1.0  2.3503140150780674e-07  1.0114586376052182e-08  0.9999999806585026  1.0000
  Te  Te1       1.0  0.2639529006149385  0.2639528916974024  0.736047083724876  1.0000
  Te  Te2       1.0  0.7360470132287705  0.7360469627166427  0.2639530005799118  1.0000
  Te  Te3       1.0  0.7360470012770621  0.2639530775462535  0.26395289691229756  1.0000
  Te  Te4       1.0  0.2639530365498778  0.7360469151003771  0.7360471319876816  1.0000
  Te  Te5       1.0  0.26395296442116717  0.736047009838675  0.2639528744260446  1.0000
  Te  Te6       1.0  0.736046853526867  0.26395312272628985  0.7360469425693731  1.0000
