data_image0
_chemical_formula_structural       Li2TaS6
_chemical_formula_sum              "Li2 Ta1 S6"
_cell_length_a       6.2409084590004
_cell_length_b       6.24090800545474
_cell_length_c       6.240908210385168
_cell_angle_alpha    59.99999790792826
_cell_angle_beta     59.9999968294011
_cell_angle_gamma    59.99999776331634

_space_group_name_H-M_alt    "P 1"
_space_group_IT_number       1

loop_
  _space_group_symop_operation_xyz
  'x, y, z'

loop_
  _atom_site_type_symbol
  _atom_site_label
  _atom_site_symmetry_multiplicity
  _atom_site_fract_x
  _atom_site_fract_y
  _atom_site_fract_z
  _atom_site_occupancy
  Li  Li1       1.0  0.250000022102508  0.2500000243285557  0.25000003286970157  1.0000
  Li  Li2       1.0  0.7500000247434998  0.7500000533611996  0.7499999705725943  1.0000
  Ta  Ta1       1.0  1.511914394977897e-08  1.5699573406679495e-08  0.9999999974092878  1.0000
  S   S1        1.0  0.2679809657538079  0.26798093096020503  0.7320189571328164  1.0000
  S   S2        1.0  0.7320190513413716  0.7320190250578564  0.2679809169223886  1.0000
  S   S3        1.0  0.7320190819789893  0.26798099334602987  0.26798098060413433  1.0000
  S   S4        1.0  0.2679809615033003  0.7320190666817051  0.7320189596438099  1.0000
  S   S5        1.0  0.26798090044683676  0.7320190130789979  0.26798115864039257  1.0000
  S   S6        1.0  0.7320189945728317  0.2679808762158778  0.7320190565731225  1.0000
