data_image0
_chemical_formula_structural       Li2TiO6
_chemical_formula_sum              "Li2 Ti1 O6"
_cell_length_a       5.016018709786653
_cell_length_b       5.016013427033882
_cell_length_c       5.016014704134347
_cell_angle_alpha    60.00001240492782
_cell_angle_beta     60.00005825473451
_cell_angle_gamma    60.00006442570501

_space_group_name_H-M_alt    "P 1"
_space_group_IT_number       1

loop_
  _space_group_symop_operation_xyz
  'x, y, z'

loop_
  _atom_site_type_symbol
  _atom_site_label
  _atom_site_symmetry_multiplicity
  _atom_site_fract_x
  _atom_site_fract_y
  _atom_site_fract_z
  _atom_site_occupancy
  Li  Li1       1.0  0.24999934506077975  0.24999960444614122  0.2500005426006947  1.0000
  Li  Li2       1.0  0.7499987612768898  0.750001379533613  0.7500009864395365  1.0000
  Ti  Ti1       1.0  0.9999974008113818  1.057241047754321e-06  2.0149888182176363e-06  1.0000
  O   O1        1.0  0.26677023158660756  0.26676761234780066  0.7332319070698171  1.0000
  O   O2        1.0  0.7332314162740166  0.7332313865573613  0.2667686344172427  1.0000
  O   O3        1.0  0.7332326548815657  0.26676877392742654  0.26676703498408294  1.0000
  O   O4        1.0  0.2667716957933524  0.7332312187387854  0.7332280956268741  1.0000
  O   O5        1.0  0.26676826116920394  0.7332306592975436  0.2667692870171581  1.0000
  O   O6        1.0  0.7332304711354609  0.2667687644557219  0.733230847116716  1.0000
