data_image0
_chemical_formula_structural       Li2TeSe6
_chemical_formula_sum              "Li2 Te1 Se6"
_cell_length_a       6.734857914029138
_cell_length_b       6.734858445395855
_cell_length_c       6.734858035881115
_cell_angle_alpha    60.000000076359704
_cell_angle_beta     59.999998383893576
_cell_angle_gamma    59.999996008059824

_space_group_name_H-M_alt    "P 1"
_space_group_IT_number       1

loop_
  _space_group_symop_operation_xyz
  'x, y, z'

loop_
  _atom_site_type_symbol
  _atom_site_label
  _atom_site_symmetry_multiplicity
  _atom_site_fract_x
  _atom_site_fract_y
  _atom_site_fract_z
  _atom_site_occupancy
  Li  Li1       1.0  0.2500000785330811  0.24999993028835427  0.24999997843788394  1.0000
  Li  Li2       1.0  0.7499999540325528  0.7500001109239206  0.7499998834016951  1.0000
  Te  Te1       1.0  1.269423235248793e-07  5.637399467399864e-08  0.9999998207379138  1.0000
  Se  Se1       1.0  0.29796951868218075  0.29796928463556016  0.7020305744858455  1.0000
  Se  Se2       1.0  0.7020300947488551  0.7020305583584756  0.29796980835831616  1.0000
  Se  Se3       1.0  0.7020303807306678  0.2979694487568869  0.2979696498200059  1.0000
  Se  Se4       1.0  0.29796971894469304  0.7020305197147368  0.7020303024389614  1.0000
  Se  Se5       1.0  0.2979696287777595  0.7020305197505703  0.2979695617385984  1.0000
  Se  Se6       1.0  0.7020305071430168  0.2979695560135015  0.7020304449604798  1.0000
