data_image0
_chemical_formula_structural       Li2TaSe6
_chemical_formula_sum              "Li2 Ta1 Se6"
_cell_length_a       6.643622153731307
_cell_length_b       6.64362264881463
_cell_length_c       6.643622255680245
_cell_angle_alpha    60.000003291951074
_cell_angle_beta     60.00000082842949
_cell_angle_gamma    59.99999607222927

_space_group_name_H-M_alt    "P 1"
_space_group_IT_number       1

loop_
  _space_group_symop_operation_xyz
  'x, y, z'

loop_
  _atom_site_type_symbol
  _atom_site_label
  _atom_site_symmetry_multiplicity
  _atom_site_fract_x
  _atom_site_fract_y
  _atom_site_fract_z
  _atom_site_occupancy
  Li  Li1       1.0  0.25000000035945763  0.25000000551331014  0.24999998738230292  1.0000
  Li  Li2       1.0  0.7499999944424325  0.7499999999485267  0.7500000715987741  1.0000
  Ta  Ta1       1.0  1.5105451821985e-07  0.9999999170429599  0.999999815430964  1.0000
  Se  Se1       1.0  0.26705588554061976  0.2670557729594077  0.7329442008732842  1.0000
  Se  Se2       1.0  0.7329441275545568  0.7329442454068534  0.2670557898268334  1.0000
  Se  Se3       1.0  0.7329440757688959  0.26705585744914745  0.2670558789733654  1.0000
  Se  Se4       1.0  0.2670558065320601  0.7329442143783192  0.7329441774869125  1.0000
  Se  Se5       1.0  0.26705582232933767  0.7329442889525607  0.26705575682140115  1.0000
  Se  Se6       1.0  0.7329441327080635  0.26705570544834223  0.7329443170359661  1.0000
