data_image0
_chemical_formula_structural       Li2VTe6
_chemical_formula_sum              "Li2 V1 Te6"
_cell_length_a       7.1307808912184205
_cell_length_b       7.130780941768633
_cell_length_c       7.13078110373714
_cell_angle_alpha    59.99999944946719
_cell_angle_beta     60.00000214271198
_cell_angle_gamma    60.00000027540891

_space_group_name_H-M_alt    "P 1"
_space_group_IT_number       1

loop_
  _space_group_symop_operation_xyz
  'x, y, z'

loop_
  _atom_site_type_symbol
  _atom_site_label
  _atom_site_symmetry_multiplicity
  _atom_site_fract_x
  _atom_site_fract_y
  _atom_site_fract_z
  _atom_site_occupancy
  Li  Li1       1.0  0.2500000336083252  0.24999999659920766  0.24999999232709422  1.0000
  Li  Li2       1.0  0.7499999881434251  0.7499999829274369  0.7499999764551992  1.0000
  V   V1        1.0  1.2513969258157035e-08  0.9999999381683207  8.215606265942239e-08  1.0000
  Te  Te1       1.0  0.2642787014466604  0.2642786526191782  0.735721322080955  1.0000
  Te  Te2       1.0  0.735721228132984  0.7357214333953565  0.26427874892837533  1.0000
  Te  Te3       1.0  0.735721423072864  0.26427860203308695  0.26427867552068285  1.0000
  Te  Te4       1.0  0.2642787928680567  0.7357212710056672  0.735721183499542  1.0000
  Te  Te5       1.0  0.2642784933351402  0.7357214060393047  0.26427871252900137  1.0000
  Te  Te6       1.0  0.7357213270625669  0.2642787160437101  0.7357213038829455  1.0000
