data_image0
_chemical_formula_structural       Li2VS6
_chemical_formula_sum              "Li2 V1 S6"
_cell_length_a       6.154053916039633
_cell_length_b       6.154053442527451
_cell_length_c       6.15405327226814
_cell_angle_alpha    59.99999795187444
_cell_angle_beta     60.0000013658359
_cell_angle_gamma    59.99999604842074

_space_group_name_H-M_alt    "P 1"
_space_group_IT_number       1

loop_
  _space_group_symop_operation_xyz
  'x, y, z'

loop_
  _atom_site_type_symbol
  _atom_site_label
  _atom_site_symmetry_multiplicity
  _atom_site_fract_x
  _atom_site_fract_y
  _atom_site_fract_z
  _atom_site_occupancy
  Li  Li1       1.0  0.24999996246774395  0.2500000402719781  0.24999994907837636  1.0000
  Li  Li2       1.0  0.7499999810504346  0.7500000312594735  0.7499999621858209  1.0000
  V   V1        1.0  0.9999998136323074  2.94541236831969e-07  0.9999999280388259  1.0000
  S   S1        1.0  0.2549725409112611  0.25497246445165994  0.7450274693291838  1.0000
  S   S2        1.0  0.7450275244771181  0.7450273821935777  0.2549724999428046  1.0000
  S   S3        1.0  0.7450275411080097  0.2549724762064276  0.25497251379661656  1.0000
  S   S4        1.0  0.25497254082583753  0.7450273883500979  0.745027551993165  1.0000
  S   S5        1.0  0.2549724495358516  0.7450275581549985  0.2549724552681106  1.0000
  S   S6        1.0  0.7450276723113217  0.2549723780466883  0.745027645739362  1.0000
