data_image0
_chemical_formula_structural       Li2WO6
_chemical_formula_sum              "Li2 W1 O6"
_cell_length_a       5.784117852643307
_cell_length_b       5.784116028043386
_cell_length_c       5.784117260244421
_cell_angle_alpha    60.00000189782952
_cell_angle_beta     59.9999944149254
_cell_angle_gamma    59.99999846097841

_space_group_name_H-M_alt    "P 1"
_space_group_IT_number       1

loop_
  _space_group_symop_operation_xyz
  'x, y, z'

loop_
  _atom_site_type_symbol
  _atom_site_label
  _atom_site_symmetry_multiplicity
  _atom_site_fract_x
  _atom_site_fract_y
  _atom_site_fract_z
  _atom_site_occupancy
  Li  Li1       1.0  0.2500004215777278  0.24999979775893097  0.24999973120102068  1.0000
  Li  Li2       1.0  0.7499999818333659  0.7499997384175678  0.7500002520281415  1.0000
  W   W1        1.0  5.13026860900457e-08  0.9999998221360276  0.9999998367983589  1.0000
  O   O1        1.0  0.22996411189305024  0.22996411805580805  0.7700359454448856  1.0000
  O   O2        1.0  0.7700356962757644  0.7700362036864306  0.22996403252399833  1.0000
  O   O3        1.0  0.770035876024722  0.2299639472385509  0.22996418278562858  1.0000
  O   O4        1.0  0.22996436829556977  0.7700361500563109  0.7700354161693399  1.0000
  O   O5        1.0  0.22996409773385115  0.7700361320333566  0.22996393510394217  1.0000
  O   O6        1.0  0.7700355176766274  0.2299642828757322  0.7700363174141006  1.0000
