data_image0
_chemical_formula_structural       Li2ZrTe6
_chemical_formula_sum              "Li2 Zr1 Te6"
_cell_length_a       7.488799172401584
_cell_length_b       7.4887992401325265
_cell_length_c       7.488799055665108
_cell_angle_alpha    60.00000056762064
_cell_angle_beta     60.000001024292196
_cell_angle_gamma    59.99999921154003

_space_group_name_H-M_alt    "P 1"
_space_group_IT_number       1

loop_
  _space_group_symop_operation_xyz
  'x, y, z'

loop_
  _atom_site_type_symbol
  _atom_site_label
  _atom_site_symmetry_multiplicity
  _atom_site_fract_x
  _atom_site_fract_y
  _atom_site_fract_z
  _atom_site_occupancy
  Li  Li1       1.0  0.2499999935087197  0.2500000206342635  0.25000000840047076  1.0000
  Li  Li2       1.0  0.7500000157574854  0.7499999932144961  0.7500000018700688  1.0000
  Zr  Zr1       1.0  5.0789281680910264e-08  4.906306047148747e-09  0.9999999467809821  1.0000
  Te  Te1       1.0  0.26916404375962705  0.2691640291571321  0.7308359619816123  1.0000
  Te  Te2       1.0  0.7308358907176142  0.7308359176387703  0.2691640884973031  1.0000
  Te  Te3       1.0  0.730835972982279  0.26916402459492406  0.2691640600220596  1.0000
  Te  Te4       1.0  0.2691640321098288  0.7308359925247069  0.7308359386821446  1.0000
  Te  Te5       1.0  0.26916402766167974  0.7308359848932665  0.2691640485606211  1.0000
  Te  Te6       1.0  0.7308359758885246  0.2691640322263645  0.7308359442378969  1.0000
