data_image0
_chemical_formula_structural       Li2ZrS6
_chemical_formula_sum              "Li2 Zr1 S6"
_cell_length_a       6.462312221346219
_cell_length_b       6.4623132720121355
_cell_length_c       6.46231281306201
_cell_angle_alpha    60.00000412301366
_cell_angle_beta     60.000001275327094
_cell_angle_gamma    60.00000372172098

_space_group_name_H-M_alt    "P 1"
_space_group_IT_number       1

loop_
  _space_group_symop_operation_xyz
  'x, y, z'

loop_
  _atom_site_type_symbol
  _atom_site_label
  _atom_site_symmetry_multiplicity
  _atom_site_fract_x
  _atom_site_fract_y
  _atom_site_fract_z
  _atom_site_occupancy
  Li  Li1       1.0  0.2500000192976409  0.24999992581134786  0.2500000518453046  1.0000
  Li  Li2       1.0  0.7499999460228547  0.7500000219162793  0.7500000242376181  1.0000
  Zr  Zr1       1.0  1.3752637654621477e-08  2.8428166626109435e-08  0.9999999866467667  1.0000
  S   S1        1.0  0.270774931071329  0.2707749398678096  0.7292250842315778  1.0000
  S   S2        1.0  0.7292248984474747  0.7292251954857206  0.27077503093144895  1.0000
  S   S3        1.0  0.7292250542974845  0.2707749154781554  0.270775007106068  1.0000
  S   S4        1.0  0.27077497069108897  0.7292250891058043  0.72922494108014  1.0000
  S   S5        1.0  0.2707750931137323  0.7292250266974338  0.2707748660656339  1.0000
  S   S6        1.0  0.7292250756351487  0.27077484143132285  0.7292250227604155  1.0000
