data_image0
_chemical_formula_structural       Mg2AuSe6
_chemical_formula_sum              "Mg2 Au1 Se6"
_cell_length_a       6.826680445764573
_cell_length_b       6.8266807411759185
_cell_length_c       6.826680923590822
_cell_angle_alpha    59.99999962131799
_cell_angle_beta     59.99999911511243
_cell_angle_gamma    59.99999864139934

_space_group_name_H-M_alt    "P 1"
_space_group_IT_number       1

loop_
  _space_group_symop_operation_xyz
  'x, y, z'

loop_
  _atom_site_type_symbol
  _atom_site_label
  _atom_site_symmetry_multiplicity
  _atom_site_fract_x
  _atom_site_fract_y
  _atom_site_fract_z
  _atom_site_occupancy
  Mg  Mg1       1.0  0.2499999637889777  0.25000002124641385  0.2500000343140777  1.0000
  Mg  Mg2       1.0  0.7500000400271447  0.7500000440046206  0.749999826077539  1.0000
  Au  Au1       1.0  1.1822563213247523e-08  3.049895481180132e-08  0.9999999744447191  1.0000
  Se  Se1       1.0  0.27034175821977224  0.2703417206779416  0.7296581658357258  1.0000
  Se  Se2       1.0  0.7296583113960192  0.7296581167279569  0.27034184882065904  1.0000
  Se  Se3       1.0  0.7296582897760309  0.2703416936163471  0.27034175120332093  1.0000
  Se  Se4       1.0  0.27034166438995333  0.7296583734287448  0.7296583045026964  1.0000
  Se  Se5       1.0  0.27034170254959305  0.7296582746077457  0.2703417628277411  1.0000
  Se  Se6       1.0  0.7296582513613923  0.2703417170869865  0.7296583423996809  1.0000
