data_image0
_chemical_formula_structural       Mg2AgS6
_chemical_formula_sum              "Mg2 Ag1 S6"
_cell_length_a       6.415580649526646
_cell_length_b       6.41558054064761
_cell_length_c       6.415580703189542
_cell_angle_alpha    60.000000406212614
_cell_angle_beta     59.999999403401674
_cell_angle_gamma    59.999999889693854

_space_group_name_H-M_alt    "P 1"
_space_group_IT_number       1

loop_
  _space_group_symop_operation_xyz
  'x, y, z'

loop_
  _atom_site_type_symbol
  _atom_site_label
  _atom_site_symmetry_multiplicity
  _atom_site_fract_x
  _atom_site_fract_y
  _atom_site_fract_z
  _atom_site_occupancy
  Mg  Mg1       1.0  0.2500001224211932  0.24999994893547142  0.24999998296538603  1.0000
  Mg  Mg2       1.0  0.7499999958948765  0.7499999728014962  0.7499999266233726  1.0000
  Ag  Ag1       1.0  1.8163754013386893e-08  0.9999998969131131  7.051826181210978e-08  1.0000
  S   S1        1.0  0.26510255901134033  0.2651025731259616  0.7348974025534278  1.0000
  S   S2        1.0  0.7348974513487024  0.7348974726970751  0.26510256443593594  1.0000
  S   S3        1.0  0.734897369420238  0.26510257752000227  0.26510259349700477  1.0000
  S   S4        1.0  0.2651025849264712  0.7348974797571337  0.7348974456505478  1.0000
  S   S5        1.0  0.26510253558950103  0.7348974649263594  0.26510259408475  1.0000
  S   S6        1.0  0.7348973531987933  0.265102632440121  0.7348974219471153  1.0000
