data_image0
_chemical_formula_structural       Mg2AgO6
_chemical_formula_sum              "Mg2 Ag1 O6"
_cell_length_a       5.297244468451575
_cell_length_b       5.297244521476036
_cell_length_c       5.297244016252505
_cell_angle_alpha    60.00000219254473
_cell_angle_beta     60.000002531220765
_cell_angle_gamma    60.00000010431827

_space_group_name_H-M_alt    "P 1"
_space_group_IT_number       1

loop_
  _space_group_symop_operation_xyz
  'x, y, z'

loop_
  _atom_site_type_symbol
  _atom_site_label
  _atom_site_symmetry_multiplicity
  _atom_site_fract_x
  _atom_site_fract_y
  _atom_site_fract_z
  _atom_site_occupancy
  Mg  Mg1       1.0  0.2500000115417266  0.2500001459078645  0.24999987961439618  1.0000
  Mg  Mg2       1.0  0.7500000665180154  0.749999831968752  0.7500000126118038  1.0000
  Ag  Ag1       1.0  5.775566285759611e-08  0.9999999052063019  9.402998178719835e-08  1.0000
  O   O1        1.0  0.2699852847597103  0.26998550258929216  0.7300146063598789  1.0000
  O   O2        1.0  0.7300146635878351  0.730014609385726  0.26998533275534425  1.0000
  O   O3        1.0  0.730014661614783  0.2699853671336595  0.2699853532114802  1.0000
  O   O4        1.0  0.2699854491875363  0.7300145321335487  0.730014667663485  1.0000
  O   O5        1.0  0.2699852804884228  0.7300146499339553  0.26998538871920014  1.0000
  O   O6        1.0  0.7300145209087076  0.2699854712892308  0.7300146381248878  1.0000
