data_image0
_chemical_formula_structural       Mg2BeO6
_chemical_formula_sum              "Mg2 Be1 O6"
_cell_length_a       5.014623905042204
_cell_length_b       5.014623861058013
_cell_length_c       5.014623773832609
_cell_angle_alpha    59.999999004083215
_cell_angle_beta     59.99999789612458
_cell_angle_gamma    59.999998342986274

_space_group_name_H-M_alt    "P 1"
_space_group_IT_number       1

loop_
  _space_group_symop_operation_xyz
  'x, y, z'

loop_
  _atom_site_type_symbol
  _atom_site_label
  _atom_site_symmetry_multiplicity
  _atom_site_fract_x
  _atom_site_fract_y
  _atom_site_fract_z
  _atom_site_occupancy
  Mg  Mg1       1.0  0.2500000275017242  0.24999997119036524  0.25000002260226595  1.0000
  Mg  Mg2       1.0  0.7499999877445951  0.7500000527848447  0.7500000655218879  1.0000
  Be  Be1       1.0  0.9999999313150849  1.9538772268368606e-08  2.0584737595639452e-08  1.0000
  O   O1        1.0  0.23518903716842185  0.23518900020158698  0.764811040281525  1.0000
  O   O2        1.0  0.7648109085788686  0.7648110457547419  0.2351890137707264  1.0000
  O   O3        1.0  0.7648110308328083  0.23518898575289843  0.23518901608909387  1.0000
  O   O4        1.0  0.2351889619216054  0.7648110504340447  0.7648109774667691  1.0000
  O   O5        1.0  0.23518902663725544  0.7648109660008897  0.23518891600307637  1.0000
  O   O6        1.0  0.7648110568071605  0.23518894318403707  0.7648109999887507  1.0000
