data_image0
_chemical_formula_structural       Mg2BeTe6
_chemical_formula_sum              "Mg2 Be1 Te6"
_cell_length_a       6.98333668055675
_cell_length_b       6.983337399240308
_cell_length_c       6.9833367273721745
_cell_angle_alpha    59.99999956610443
_cell_angle_beta     59.99999846786921
_cell_angle_gamma    60.00000016699016

_space_group_name_H-M_alt    "P 1"
_space_group_IT_number       1

loop_
  _space_group_symop_operation_xyz
  'x, y, z'

loop_
  _atom_site_type_symbol
  _atom_site_label
  _atom_site_symmetry_multiplicity
  _atom_site_fract_x
  _atom_site_fract_y
  _atom_site_fract_z
  _atom_site_occupancy
  Mg  Mg1       1.0  0.2499999102344768  0.2500000603699309  0.24999994042214274  1.0000
  Mg  Mg2       1.0  0.7499999435762796  0.7499999145306239  0.7500001144679126  1.0000
  Be  Be1       1.0  0.9999999660271153  4.7352878239109825e-08  0.9999999560785168  1.0000
  Te  Te1       1.0  0.23647217168980977  0.23647234115351107  0.7635277265577567  1.0000
  Te  Te2       1.0  0.7635277977318136  0.7635276986380256  0.2364721192270137  1.0000
  Te  Te3       1.0  0.763527832717052  0.2364723530710842  0.23647222296941206  1.0000
  Te  Te4       1.0  0.2364723440637611  0.7635275358927602  0.7635278465781288  1.0000
  Te  Te5       1.0  0.23647228467677892  0.7635277250106016  0.2364722803542471  1.0000
  Te  Te6       1.0  0.7635277489307646  0.23647233056521716  0.7635277846338395  1.0000
