data_image0
_chemical_formula_structural       Mg2BeS6
_chemical_formula_sum              "Mg2 Be1 S6"
_cell_length_a       5.205005630513084
_cell_length_b       5.20500626852933
_cell_length_c       5.205006017746268
_cell_angle_alpha    60.000004416928846
_cell_angle_beta     59.99999728018558
_cell_angle_gamma    60.000000759187444

_space_group_name_H-M_alt    "P 1"
_space_group_IT_number       1

loop_
  _space_group_symop_operation_xyz
  'x, y, z'

loop_
  _atom_site_type_symbol
  _atom_site_label
  _atom_site_symmetry_multiplicity
  _atom_site_fract_x
  _atom_site_fract_y
  _atom_site_fract_z
  _atom_site_occupancy
  Mg  Mg1       1.0  0.24999982243236332  0.2500000934612191  0.2500000874604133  1.0000
  Mg  Mg2       1.0  0.7500001693863149  0.7499997980159379  0.7499999469491474  1.0000
  Be  Be1       1.0  2.7628614865544996e-08  6.353135428550094e-08  0.9999999890021093  1.0000
  S   S1        1.0  0.255193632928284  0.2551935485515402  0.7448066336585812  1.0000
  S   S2        1.0  0.7448064281080421  0.7448064746943607  0.2551936576060761  1.0000
  S   S3        1.0  0.7448061767339093  0.2551936460532284  0.25519355377349623  1.0000
  S   S4        1.0  0.25519355904101965  0.7448064877842833  0.7448063414644874  1.0000
  S   S5        1.0  0.255193667637447  0.744806438693971  0.2551934253264372  1.0000
  S   S6        1.0  0.7448065992681067  0.2551934527831712  0.7448063101565939  1.0000
