data_image0
_chemical_formula_structural       Mg2CuSe6
_chemical_formula_sum              "Mg2 Cu1 Se6"
_cell_length_a       6.6237684716006315
_cell_length_b       6.623768456067124
_cell_length_c       6.623768703890786
_cell_angle_alpha    59.99999802281875
_cell_angle_beta     59.99999853574233
_cell_angle_gamma    59.99999789196633

_space_group_name_H-M_alt    "P 1"
_space_group_IT_number       1

loop_
  _space_group_symop_operation_xyz
  'x, y, z'

loop_
  _atom_site_type_symbol
  _atom_site_label
  _atom_site_symmetry_multiplicity
  _atom_site_fract_x
  _atom_site_fract_y
  _atom_site_fract_z
  _atom_site_occupancy
  Mg  Mg1       1.0  0.2500000481280168  0.2500000084663048  0.2499999679274767  1.0000
  Mg  Mg2       1.0  0.7499999773293914  0.7500000401910383  0.7499999633068379  1.0000
  Cu  Cu1       1.0  4.0923003351374273e-08  0.9999999870568929  0.999999972422621  1.0000
  Se  Se1       1.0  0.26090190473590763  0.2609018856707916  0.7390981096998847  1.0000
  Se  Se2       1.0  0.7390981055608208  0.7390981352513225  0.2609018837446774  1.0000
  Se  Se3       1.0  0.739098100743334  0.2609018551299729  0.26090189596584573  1.0000
  Se  Se4       1.0  0.2609018703223434  0.7390980899825156  0.7390981565087696  1.0000
  Se  Se5       1.0  0.26090188838489153  0.739098076800667  0.26090189275581693  1.0000
  Se  Se6       1.0  0.7390980701425233  0.2609019163862183  0.7390981645964496  1.0000
