data_image0
_chemical_formula_structural       Mg2CuTe6
_chemical_formula_sum              "Mg2 Cu1 Te6"
_cell_length_a       7.026924450234859
_cell_length_b       7.026924464477892
_cell_length_c       7.026924078099309
_cell_angle_alpha    60.00000154547846
_cell_angle_beta     60.00000265672246
_cell_angle_gamma    60.00000020109813

_space_group_name_H-M_alt    "P 1"
_space_group_IT_number       1

loop_
  _space_group_symop_operation_xyz
  'x, y, z'

loop_
  _atom_site_type_symbol
  _atom_site_label
  _atom_site_symmetry_multiplicity
  _atom_site_fract_x
  _atom_site_fract_y
  _atom_site_fract_z
  _atom_site_occupancy
  Mg  Mg1       1.0  0.24999991886567272  0.24999997025245463  0.2500000026914967  1.0000
  Mg  Mg2       1.0  0.7499999848892789  0.7500001181662181  0.7500000150733817  1.0000
  Cu  Cu1       1.0  0.999999971119231  0.9999999633984369  6.83186102803095e-08  1.0000
  Te  Te1       1.0  0.26516412678784723  0.26516401538608625  0.7348359276027229  1.0000
  Te  Te2       1.0  0.7348359660920308  0.734835978914279  0.2651639928504256  1.0000
  Te  Te3       1.0  0.7348360368378394  0.26516400087973196  0.26516409728970824  1.0000
  Te  Te4       1.0  0.26516398772323024  0.7348359568190708  0.7348359055086785  1.0000
  Te  Te5       1.0  0.26516403023960794  0.7348360086828948  0.26516408681244513  1.0000
  Te  Te6       1.0  0.7348359748672761  0.2651639925891978  0.7348359025032913  1.0000
