data_image0
_chemical_formula_structural       Mg2CS6
_chemical_formula_sum              "Mg2 C1 S6"
_cell_length_a       5.9670306795036465
_cell_length_b       5.967031218201263
_cell_length_c       5.967030329231129
_cell_angle_alpha    60.00000172841557
_cell_angle_beta     60.00000009487519
_cell_angle_gamma    60.00000183961235

_space_group_name_H-M_alt    "P 1"
_space_group_IT_number       1

loop_
  _space_group_symop_operation_xyz
  'x, y, z'

loop_
  _atom_site_type_symbol
  _atom_site_label
  _atom_site_symmetry_multiplicity
  _atom_site_fract_x
  _atom_site_fract_y
  _atom_site_fract_z
  _atom_site_occupancy
  Mg  Mg1       1.0  0.2499999448086621  0.2500000429536074  0.24999995894086977  1.0000
  Mg  Mg2       1.0  0.750000046355118  0.7499999749218506  0.7499999282695544  1.0000
  C   C1        1.0  8.302830924532352e-07  4.002413582486531e-07  0.9999977893042673  1.0000
  S   S1        1.0  0.2287450930583507  0.22874549862052798  0.7712550592298483  1.0000
  S   S2        1.0  0.7712543495233483  0.7712545685153784  0.22874591390327859  1.0000
  S   S3        1.0  0.7712546740510042  0.22874534729365625  0.22874550641560343  1.0000
  S   S4        1.0  0.2287450635094891  0.771254845045947  0.7712550940663462  1.0000
  S   S5        1.0  0.22874531267239204  0.7712543252309978  0.2287456992929862  1.0000
  S   S6        1.0  0.7712545969711814  0.22874513025408294  0.7712550176630244  1.0000
