data_image0
_chemical_formula_structural       Mg2CrS6
_chemical_formula_sum              "Mg2 Cr1 S6"
_cell_length_a       6.186593828888842
_cell_length_b       6.186593654931327
_cell_length_c       6.186593456153997
_cell_angle_alpha    60.00000038459225
_cell_angle_beta     60.000000068218135
_cell_angle_gamma    59.99999760382441

_space_group_name_H-M_alt    "P 1"
_space_group_IT_number       1

loop_
  _space_group_symop_operation_xyz
  'x, y, z'

loop_
  _atom_site_type_symbol
  _atom_site_label
  _atom_site_symmetry_multiplicity
  _atom_site_fract_x
  _atom_site_fract_y
  _atom_site_fract_z
  _atom_site_occupancy
  Mg  Mg1       1.0  0.2500001049719687  0.24999987644989752  0.2500000337769054  1.0000
  Mg  Mg2       1.0  0.7500000509463866  0.7500000628986659  0.7499999890622173  1.0000
  Cr  Cr1       1.0  9.785159993603034e-09  0.999999976243892  0.999999966575513  1.0000
  S   S1        1.0  0.25222090538038583  0.25222095546460704  0.7477790765521024  1.0000
  S   S2        1.0  0.7477790758059346  0.747779076928716  0.2522209095435349  1.0000
  S   S3        1.0  0.7477790251034032  0.25222099306688706  0.2522209567319171  1.0000
  S   S4        1.0  0.2522208439240545  0.7477791462289237  0.74777905138869  1.0000
  S   S5        1.0  0.25222090931194124  0.7477790236950477  0.2522209393260916  1.0000
  S   S6        1.0  0.7477790713859866  0.2522209037754662  0.7477790930095534  1.0000
