data_image0
_chemical_formula_structural       Mg2CoTe6
_chemical_formula_sum              "Mg2 Co1 Te6"
_cell_length_a       6.975516084523654
_cell_length_b       6.975516023649622
_cell_length_c       6.975516036461226
_cell_angle_alpha    59.99999922598447
_cell_angle_beta     59.99999973697947
_cell_angle_gamma    60.00000115463358

_space_group_name_H-M_alt    "P 1"
_space_group_IT_number       1

loop_
  _space_group_symop_operation_xyz
  'x, y, z'

loop_
  _atom_site_type_symbol
  _atom_site_label
  _atom_site_symmetry_multiplicity
  _atom_site_fract_x
  _atom_site_fract_y
  _atom_site_fract_z
  _atom_site_occupancy
  Mg  Mg1       1.0  0.25000002732734555  0.24999997867916876  0.24999999784237673  1.0000
  Mg  Mg2       1.0  0.7500000401790972  0.7499999869550307  0.749999977501152  1.0000
  Co  Co1       1.0  2.9779290553954275e-08  2.984820452927981e-08  5.9068565231543154e-08  1.0000
  Te  Te1       1.0  0.2513450037187925  0.25134494270811747  0.7486549992018815  1.0000
  Te  Te2       1.0  0.7486549745846486  0.7486548684177281  0.2513450177165274  1.0000
  Te  Te3       1.0  0.7486549780074536  0.25134505408871455  0.25134501760647665  1.0000
  Te  Te4       1.0  0.2513450241020935  0.7486550133805346  0.7486548807409613  1.0000
  Te  Te5       1.0  0.25134503037793915  0.7486550515945707  0.251345049176183  1.0000
  Te  Te6       1.0  0.7486548983763723  0.2513450720595318  0.7486549925135014  1.0000
