data_image0
_chemical_formula_structural       Mg2CrO6
_chemical_formula_sum              "Mg2 Cr1 O6"
_cell_length_a       5.089091975418367
_cell_length_b       5.089091935816394
_cell_length_c       5.089091981213328
_cell_angle_alpha    59.999999096419586
_cell_angle_beta     59.99999927781984
_cell_angle_gamma    59.99999822245405

_space_group_name_H-M_alt    "P 1"
_space_group_IT_number       1

loop_
  _space_group_symop_operation_xyz
  'x, y, z'

loop_
  _atom_site_type_symbol
  _atom_site_label
  _atom_site_symmetry_multiplicity
  _atom_site_fract_x
  _atom_site_fract_y
  _atom_site_fract_z
  _atom_site_occupancy
  Mg  Mg1       1.0  0.2500000466125598  0.24999999804840226  0.25000000458214305  1.0000
  Mg  Mg2       1.0  0.7499999887328017  0.7500000254311119  0.7499999734415748  1.0000
  Cr  Cr1       1.0  0.9999999851710583  2.4066079195810943e-08  7.171353718199082e-09  1.0000
  O   O1        1.0  0.2562072387848506  0.2562071983475891  0.7437927629718365  1.0000
  O   O2        1.0  0.7437927728169345  0.7437928010658464  0.25620719376200624  1.0000
  O   O3        1.0  0.7437927498505834  0.2562072608324613  0.2562072097429778  1.0000
  O   O4        1.0  0.25620722877048646  0.7437927626470535  0.7437927868179502  1.0000
  O   O5        1.0  0.25620722116554057  0.7437927479029979  0.25620723672531165  1.0000
  O   O6        1.0  0.7437927687099818  0.2562072009716717  0.7437927993707617  1.0000
