data_image0
_chemical_formula_structural       Mg2CdTe6
_chemical_formula_sum              "Mg2 Cd1 Te6"
_cell_length_a       7.360935378799688
_cell_length_b       7.36093535094125
_cell_length_c       7.360935388789978
_cell_angle_alpha    59.99999959541862
_cell_angle_beta     59.99999963613361
_cell_angle_gamma    59.99999974601469

_space_group_name_H-M_alt    "P 1"
_space_group_IT_number       1

loop_
  _space_group_symop_operation_xyz
  'x, y, z'

loop_
  _atom_site_type_symbol
  _atom_site_label
  _atom_site_symmetry_multiplicity
  _atom_site_fract_x
  _atom_site_fract_y
  _atom_site_fract_z
  _atom_site_occupancy
  Mg  Mg1       1.0  0.250000012111429  0.25000006601157604  0.24999995793720906  1.0000
  Mg  Mg2       1.0  0.7500000136795177  0.7499999601050235  0.7500000163305718  1.0000
  Cd  Cd1       1.0  0.999999996577155  1.4974596800491495e-08  0.9999999874315091  1.0000
  Te  Te1       1.0  0.2754033867071012  0.27540341056087264  0.7245965963028755  1.0000
  Te  Te2       1.0  0.7245966119730309  0.7245965839426891  0.2754033760808026  1.0000
  Te  Te3       1.0  0.7245965657652842  0.27540343288149927  0.2754034164221356  1.0000
  Te  Te4       1.0  0.27540341030345483  0.7245965682774388  0.7245966142049018  1.0000
  Te  Te5       1.0  0.2754034157926127  0.72459653731705  0.27540343540191675  1.0000
  Te  Te6       1.0  0.7245965850271474  0.27540342723731825  0.724596605227464  1.0000
