data_image0
_chemical_formula_structural       Mg2CuS6
_chemical_formula_sum              "Mg2 Cu1 S6"
_cell_length_a       6.196150778056717
_cell_length_b       6.196150842513459
_cell_length_c       6.196150706811889
_cell_angle_alpha    60.000000388631754
_cell_angle_beta     60.000000155196126
_cell_angle_gamma    60.00000016126956

_space_group_name_H-M_alt    "P 1"
_space_group_IT_number       1

loop_
  _space_group_symop_operation_xyz
  'x, y, z'

loop_
  _atom_site_type_symbol
  _atom_site_label
  _atom_site_symmetry_multiplicity
  _atom_site_fract_x
  _atom_site_fract_y
  _atom_site_fract_z
  _atom_site_occupancy
  Mg  Mg1       1.0  0.24999993211659907  0.24999996222439883  0.2500000592893848  1.0000
  Mg  Mg2       1.0  0.7499999858112621  0.7500000171302548  0.7499999017077159  1.0000
  Cu  Cu1       1.0  1.1304490350140884e-09  0.9999999407013372  8.103339097624521e-09  1.0000
  S   S1        1.0  0.25984296284988906  0.25984297343788293  0.7401570651609668  1.0000
  S   S2        1.0  0.7401570571967931  0.7401570909115196  0.2598430201565541  1.0000
  S   S3        1.0  0.7401570860941946  0.25984290963834406  0.25984294186944173  1.0000
  S   S4        1.0  0.259842911815651  0.7401571428513265  0.7401570377895662  1.0000
  S   S5        1.0  0.25984292530923353  0.74015705532333  0.25984294578984146  1.0000
  S   S6        1.0  0.7401571512487803  0.2598429121715904  0.7401570031504481  1.0000
