data_image0
_chemical_formula_structural       Mg2CO6
_chemical_formula_sum              "Mg2 C1 O6"
_cell_length_a       4.6605214696675015
_cell_length_b       4.660521658539161
_cell_length_c       4.660521056450954
_cell_angle_alpha    60.00000092727518
_cell_angle_beta     60.00000149684112
_cell_angle_gamma    60.00000075819618

_space_group_name_H-M_alt    "P 1"
_space_group_IT_number       1

loop_
  _space_group_symop_operation_xyz
  'x, y, z'

loop_
  _atom_site_type_symbol
  _atom_site_label
  _atom_site_symmetry_multiplicity
  _atom_site_fract_x
  _atom_site_fract_y
  _atom_site_fract_z
  _atom_site_occupancy
  Mg  Mg1       1.0  0.2499999797866008  0.24999999493994557  0.2500000275842959  1.0000
  Mg  Mg2       1.0  0.74999996761411  0.7500000189827162  0.7499999914651735  1.0000
  C   C1        1.0  0.9999999980977647  1.3139569130040198e-08  0.9999999707788216  1.0000
  O   O1        1.0  0.22684236939640304  0.2268424199161938  0.7731576193633243  1.0000
  O   O2        1.0  0.7731576255041971  0.7731576150297761  0.22684239331842235  1.0000
  O   O3        1.0  0.7731576348171624  0.22684238813301974  0.2268423829964113  1.0000
  O   O4        1.0  0.22684236243655165  0.7731576100221601  0.7731576082818833  1.0000
  O   O5        1.0  0.22684239387929628  0.7731575988743671  0.22684242239332875  1.0000
  O   O6        1.0  0.773157624071356  0.22684239665289976  0.7731575341022593  1.0000
