data_image0
_chemical_formula_structural       Mg2CoO6
_chemical_formula_sum              "Mg2 Co1 O6"
_cell_length_a       5.02251235208655
_cell_length_b       5.022512720964555
_cell_length_c       5.0225122638674025
_cell_angle_alpha    59.9999977168404
_cell_angle_beta     59.99999806962116
_cell_angle_gamma    59.999996726282085

_space_group_name_H-M_alt    "P 1"
_space_group_IT_number       1

loop_
  _space_group_symop_operation_xyz
  'x, y, z'

loop_
  _atom_site_type_symbol
  _atom_site_label
  _atom_site_symmetry_multiplicity
  _atom_site_fract_x
  _atom_site_fract_y
  _atom_site_fract_z
  _atom_site_occupancy
  Mg  Mg1       1.0  0.25000002357912743  0.2500000125625965  0.2500000185641998  1.0000
  Mg  Mg2       1.0  0.7499999823056627  0.7500000133026954  0.7500000006030236  1.0000
  Co  Co1       1.0  0.9999999724592584  0.9999999170906466  1.3287543411694731e-07  1.0000
  O   O1        1.0  0.24760901701204402  0.24760886952652178  0.7523910473280019  1.0000
  O   O2        1.0  0.7523911544043277  0.7523911563387659  0.24760886518100422  1.0000
  O   O3        1.0  0.7523910552423714  0.24760892592927436  0.24760886555090272  1.0000
  O   O4        1.0  0.24760893858932678  0.7523911291981435  0.752391107182129  1.0000
  O   O5        1.0  0.24760886608989807  0.7523910815449776  0.2476088697140118  1.0000
  O   O6        1.0  0.7523909907750413  0.2476089223737305  0.7523911592770852  1.0000
