data_image0
_chemical_formula_structural       Mg2FeS6
_chemical_formula_sum              "Mg2 Fe1 S6"
_cell_length_a       6.212201963001656
_cell_length_b       6.212202155854595
_cell_length_c       6.212201597051676
_cell_angle_alpha    60.00000215026059
_cell_angle_beta     60.00000267494722
_cell_angle_gamma    59.99999794914156

_space_group_name_H-M_alt    "P 1"
_space_group_IT_number       1

loop_
  _space_group_symop_operation_xyz
  'x, y, z'

loop_
  _atom_site_type_symbol
  _atom_site_label
  _atom_site_symmetry_multiplicity
  _atom_site_fract_x
  _atom_site_fract_y
  _atom_site_fract_z
  _atom_site_occupancy
  Mg  Mg1       1.0  0.2499999623481336  0.25000002829720935  0.24999991458228402  1.0000
  Mg  Mg2       1.0  0.7500000580538382  0.7499998897116502  0.750000006950826  1.0000
  Fe  Fe1       1.0  0.9999999579797042  5.9145446737009576e-08  0.9999999689011302  1.0000
  S   S1        1.0  0.24712711011792826  0.24712713098816164  0.7528728555905088  1.0000
  S   S2        1.0  0.7528728730507646  0.7528728875679537  0.2471271727228452  1.0000
  S   S3        1.0  0.7528728546074368  0.24712717962915914  0.2471270896868339  1.0000
  S   S4        1.0  0.24712705439758736  0.7528728941293742  0.7528729786921147  1.0000
  S   S5        1.0  0.24712712432117015  0.7528728963062303  0.24712704709801905  1.0000
  S   S6        1.0  0.752872975875472  0.2471270611329201  0.7528729645279907  1.0000
