data_image0
_chemical_formula_structural       Mg2FeO6
_chemical_formula_sum              "Mg2 Fe1 O6"
_cell_length_a       5.114958470862085
_cell_length_b       5.114958508440503
_cell_length_c       5.114958561814895
_cell_angle_alpha    60.00000024462029
_cell_angle_beta     59.99999934287539
_cell_angle_gamma    59.99999998143245

_space_group_name_H-M_alt    "P 1"
_space_group_IT_number       1

loop_
  _space_group_symop_operation_xyz
  'x, y, z'

loop_
  _atom_site_type_symbol
  _atom_site_label
  _atom_site_symmetry_multiplicity
  _atom_site_fract_x
  _atom_site_fract_y
  _atom_site_fract_z
  _atom_site_occupancy
  Mg  Mg1       1.0  0.2500000082988031  0.24999999644397822  0.2500000101656677  1.0000
  Mg  Mg2       1.0  0.7500000409727713  0.7499999749653092  0.7500000100916341  1.0000
  Fe  Fe1       1.0  3.1878843892817503e-08  0.9999999856333748  8.839341022021502e-09  1.0000
  O   O1        1.0  0.25569759123000874  0.25569759037146794  0.7443024118060888  1.0000
  O   O2        1.0  0.7443023382337682  0.7443024289265703  0.25569761899508603  1.0000
  O   O3        1.0  0.7443024212782838  0.25569762374421884  0.2556975959804329  1.0000
  O   O4        1.0  0.25569758505384993  0.7443024290759447  0.7443023796255009  1.0000
  O   O5        1.0  0.25569758695881967  0.7443023634264384  0.25569762031579824  1.0000
  O   O6        1.0  0.7443023976434762  0.25569760558841087  0.7443023376759095  1.0000
