data_image0
_chemical_formula_structural       Mg2GeO6
_chemical_formula_sum              "Mg2 Ge1 O6"
_cell_length_a       5.107347836803929
_cell_length_b       5.107347505408468
_cell_length_c       5.107347581861505
_cell_angle_alpha    59.99999978208631
_cell_angle_beta     60.00000112658027
_cell_angle_gamma    60.00000064447896

_space_group_name_H-M_alt    "P 1"
_space_group_IT_number       1

loop_
  _space_group_symop_operation_xyz
  'x, y, z'

loop_
  _atom_site_type_symbol
  _atom_site_label
  _atom_site_symmetry_multiplicity
  _atom_site_fract_x
  _atom_site_fract_y
  _atom_site_fract_z
  _atom_site_occupancy
  Mg  Mg1       1.0  0.2500000662510064  0.25000002210158945  0.2499999571320168  1.0000
  Mg  Mg2       1.0  0.7500000152824113  0.7499999655885227  0.7499999919518796  1.0000
  Ge  Ge1       1.0  7.605449754063422e-09  0.9999999568358964  3.148507112088273e-08  1.0000
  O   O1        1.0  0.2582643837347405  0.2582645694542606  0.7417355382218699  1.0000
  O   O2        1.0  0.7417355311100687  0.7417355045640563  0.2582644960753892  1.0000
  O   O3        1.0  0.7417354447829435  0.2582644668892188  0.2582645025095509  1.0000
  O   O4        1.0  0.25826450600842005  0.741735539984937  0.7417354788577897  1.0000
  O   O5        1.0  0.25826454451414094  0.7417355135267689  0.25826443421321565  1.0000
  O   O6        1.0  0.7417354720028758  0.2582644453872729  0.7417355558930263  1.0000
