data_image0
_chemical_formula_structural       Mg2GeSe6
_chemical_formula_sum              "Mg2 Ge1 Se6"
_cell_length_a       6.69482417283335
_cell_length_b       6.694824066015721
_cell_length_c       6.694824292585588
_cell_angle_alpha    60.00000033150646
_cell_angle_beta     60.00000165689886
_cell_angle_gamma    60.00000005454508

_space_group_name_H-M_alt    "P 1"
_space_group_IT_number       1

loop_
  _space_group_symop_operation_xyz
  'x, y, z'

loop_
  _atom_site_type_symbol
  _atom_site_label
  _atom_site_symmetry_multiplicity
  _atom_site_fract_x
  _atom_site_fract_y
  _atom_site_fract_z
  _atom_site_occupancy
  Mg  Mg1       1.0  0.25000003471988175  0.2499998867510983  0.25000006921357587  1.0000
  Mg  Mg2       1.0  0.7499999835752532  0.7500001047952283  0.7499999112297536  1.0000
  Ge  Ge1       1.0  0.9999999651908048  1.6464515764179863e-08  0.9999999628679127  1.0000
  Se  Se1       1.0  0.2581360841911439  0.2581360837944118  0.7418639093952348  1.0000
  Se  Se2       1.0  0.7418638669068387  0.7418639644630257  0.2581360673289677  1.0000
  Se  Se3       1.0  0.741863941371761  0.25813606107077974  0.2581360754752741  1.0000
  Se  Se4       1.0  0.2581360714352027  0.7418639469400632  0.7418639368221625  1.0000
  Se  Se5       1.0  0.25813607849938647  0.7418639394346411  0.2581360961812136  1.0000
  Se  Se6       1.0  0.741863969657847  0.2581359935711843  0.7418639822480232  1.0000
