data_image0
_chemical_formula_structural       Mg2GeTe6
_chemical_formula_sum              "Mg2 Ge1 Te6"
_cell_length_a       7.218825879717229
_cell_length_b       7.2188258271099075
_cell_length_c       7.2188259328558155
_cell_angle_alpha    60.0000007276577
_cell_angle_beta     60.000000691892936
_cell_angle_gamma    60.00000030705114

_space_group_name_H-M_alt    "P 1"
_space_group_IT_number       1

loop_
  _space_group_symop_operation_xyz
  'x, y, z'

loop_
  _atom_site_type_symbol
  _atom_site_label
  _atom_site_symmetry_multiplicity
  _atom_site_fract_x
  _atom_site_fract_y
  _atom_site_fract_z
  _atom_site_occupancy
  Mg  Mg1       1.0  0.2500000289380765  0.25000003875752547  0.24999992222036363  1.0000
  Mg  Mg2       1.0  0.7499999647147998  0.7500000602848294  0.7500000053134939  1.0000
  Ge  Ge1       1.0  0.9999999886256092  0.9999999813374171  1.0862686130669616e-08  1.0000
  Te  Te1       1.0  0.26917234540927276  0.2691722543229907  0.7308277318124499  1.0000
  Te  Te2       1.0  0.7308276772964855  0.7308277191710801  0.2691723049208474  1.0000
  Te  Te3       1.0  0.7308276980085332  0.26917229071874976  0.2691722985746441  1.0000
  Te  Te4       1.0  0.2691723022228855  0.7308276590229427  0.7308277238698077  1.0000
  Te  Te5       1.0  0.2691722836877207  0.7308277255677234  0.2691722823500918  1.0000
  Te  Te6       1.0  0.7308277119057577  0.2691722716787252  0.7308277186609525  1.0000
