data_image0
_chemical_formula_structural       Mg2MnTe6
_chemical_formula_sum              "Mg2 Mn1 Te6"
_cell_length_a       7.017706574708854
_cell_length_b       7.017706571454592
_cell_length_c       7.0177068464305385
_cell_angle_alpha    59.99999918806275
_cell_angle_beta     59.99999980156474
_cell_angle_gamma    60.0000005822982

_space_group_name_H-M_alt    "P 1"
_space_group_IT_number       1

loop_
  _space_group_symop_operation_xyz
  'x, y, z'

loop_
  _atom_site_type_symbol
  _atom_site_label
  _atom_site_symmetry_multiplicity
  _atom_site_fract_x
  _atom_site_fract_y
  _atom_site_fract_z
  _atom_site_occupancy
  Mg  Mg1       1.0  0.25000006604908753  0.24999983292515424  0.25000008151399294  1.0000
  Mg  Mg2       1.0  0.7500001022398597  0.7499999839468953  0.7499998732140689  1.0000
  Mn  Mn1       1.0  1.7018716850376352e-08  2.7923535960171138e-08  0.9999999761039069  1.0000
  Te  Te1       1.0  0.2550085136503472  0.2550086615413414  0.7449914230568679  1.0000
  Te  Te2       1.0  0.7449913388309222  0.7449914659800398  0.25500867674705585  1.0000
  Te  Te3       1.0  0.7449913781641209  0.25500855172964687  0.25500865044022775  1.0000
  Te  Te4       1.0  0.2550085939359682  0.7449914291931728  0.7449913574060165  1.0000
  Te  Te5       1.0  0.25500856566762975  0.7449914634119733  0.255008590082489  1.0000
  Te  Te6       1.0  0.7449914139437097  0.2550085838292438  0.7449913765740308  1.0000
