data_image0
_chemical_formula_structural       Mg2MnS6
_chemical_formula_sum              "Mg2 Mn1 S6"
_cell_length_a       6.311656729101704
_cell_length_b       6.311656820895421
_cell_length_c       6.311656802421115
_cell_angle_alpha    60.0000012457811
_cell_angle_beta     60.000002461739626
_cell_angle_gamma    60.00000086091535

_space_group_name_H-M_alt    "P 1"
_space_group_IT_number       1

loop_
  _space_group_symop_operation_xyz
  'x, y, z'

loop_
  _atom_site_type_symbol
  _atom_site_label
  _atom_site_symmetry_multiplicity
  _atom_site_fract_x
  _atom_site_fract_y
  _atom_site_fract_z
  _atom_site_occupancy
  Mg  Mg1       1.0  0.24999988885959964  0.25000011482146717  0.24999998333447582  1.0000
  Mg  Mg2       1.0  0.7500001655717706  0.7499998244240501  0.7500001411453091  1.0000
  Mn  Mn1       1.0  0.9999999835157035  3.298763421918208e-08  9.176401608592843e-09  1.0000
  S   S1        1.0  0.24817105090497676  0.24817117480593068  0.7518289196036431  1.0000
  S   S2        1.0  0.7518288615091322  0.7518288886283272  0.24817109971575682  1.0000
  S   S3        1.0  0.7518289162076215  0.24817121068614378  0.2481709403781009  1.0000
  S   S4        1.0  0.24817104451153282  0.7518288779739515  0.751828942360546  1.0000
  S   S5        1.0  0.2481711264690709  0.751828830259624  0.24817106019460236  1.0000
  S   S6        1.0  0.751828928203287  0.24817106435556432  0.7518288868492266  1.0000
