data_image0
_chemical_formula_structural       Mg2MnO6
_chemical_formula_sum              "Mg2 Mn1 O6"
_cell_length_a       5.151972993547502
_cell_length_b       5.151973187380336
_cell_length_c       5.151973051783773
_cell_angle_alpha    59.999998852200875
_cell_angle_beta     59.99999903831658
_cell_angle_gamma    60.00000012864903

_space_group_name_H-M_alt    "P 1"
_space_group_IT_number       1

loop_
  _space_group_symop_operation_xyz
  'x, y, z'

loop_
  _atom_site_type_symbol
  _atom_site_label
  _atom_site_symmetry_multiplicity
  _atom_site_fract_x
  _atom_site_fract_y
  _atom_site_fract_z
  _atom_site_occupancy
  Mg  Mg1       1.0  0.2500000116637182  0.250000003040288  0.2499999826982906  1.0000
  Mg  Mg2       1.0  0.7499999866113987  0.7499999996119252  0.7499999964492591  1.0000
  Mn  Mn1       1.0  6.251120529418665e-08  0.9999997385041965  1.1696133824929894e-07  1.0000
  O   O1        1.0  0.25149531164072375  0.25149534220150044  0.7485046736021355  1.0000
  O   O2        1.0  0.7485047382730996  0.7485047341449842  0.251495273934987  1.0000
  O   O3        1.0  0.7485046910413719  0.25149537721785215  0.2514952579051439  1.0000
  O   O4        1.0  0.25149527938671157  0.7485046753562851  0.7485048130781687  1.0000
  O   O5        1.0  0.2514952229415336  0.7485047997320045  0.25149524815010377  1.0000
  O   O6        1.0  0.7485047115794448  0.2514953336681116  0.7485046353884359  1.0000
