data_image0
_chemical_formula_structural       Mg2NiS6
_chemical_formula_sum              "Mg2 Ni1 S6"
_cell_length_a       6.1423095324268875
_cell_length_b       6.142309676441351
_cell_length_c       6.1423095228627576
_cell_angle_alpha    59.99999914583686
_cell_angle_beta     59.99999802790013
_cell_angle_gamma    60.00000026964163

_space_group_name_H-M_alt    "P 1"
_space_group_IT_number       1

loop_
  _space_group_symop_operation_xyz
  'x, y, z'

loop_
  _atom_site_type_symbol
  _atom_site_label
  _atom_site_symmetry_multiplicity
  _atom_site_fract_x
  _atom_site_fract_y
  _atom_site_fract_z
  _atom_site_occupancy
  Mg  Mg1       1.0  0.24999994908188594  0.24999996018516935  0.25000002348106937  1.0000
  Mg  Mg2       1.0  0.7499999065654804  0.7499999902226695  0.750000217133114  1.0000
  Ni  Ni1       1.0  3.4177162499079055e-09  1.7945534520888917e-08  1.0979423072767687e-07  1.0000
  S   S1        1.0  0.250981441626885  0.25098133004247053  0.7490185887632994  1.0000
  S   S2        1.0  0.749018647110094  0.7490186542624968  0.25098121716786853  1.0000
  S   S3        1.0  0.7490187491728859  0.2509814381756332  0.25098129091440124  1.0000
  S   S4        1.0  0.25098140513296413  0.7490185580930241  0.7490185706775077  1.0000
  S   S5        1.0  0.25098142076040325  0.7490186375530018  0.25098136648881  1.0000
  S   S6        1.0  0.7490184850353002  0.25098141055831236  0.7490186325100976  1.0000
