data_image0
_chemical_formula_structural       Mg2NiO6
_chemical_formula_sum              "Mg2 Ni1 O6"
_cell_length_a       5.000125722853779
_cell_length_b       5.00012576046974
_cell_length_c       5.000125623480151
_cell_angle_alpha    60.000000115416896
_cell_angle_beta     60.000001278461916
_cell_angle_gamma    60.00000040224696

_space_group_name_H-M_alt    "P 1"
_space_group_IT_number       1

loop_
  _space_group_symop_operation_xyz
  'x, y, z'

loop_
  _atom_site_type_symbol
  _atom_site_label
  _atom_site_symmetry_multiplicity
  _atom_site_fract_x
  _atom_site_fract_y
  _atom_site_fract_z
  _atom_site_occupancy
  Mg  Mg1       1.0  0.2500000186635987  0.25000006108944994  0.2499999394550647  1.0000
  Mg  Mg2       1.0  0.749999988859855  0.7499999897635262  0.750000042680716  1.0000
  Ni  Ni1       1.0  3.2659043569403235e-09  0.9999999902022872  2.1265452029746302e-08  1.0000
  O   O1        1.0  0.25602059553502016  0.2560206395602137  0.7439793554283884  1.0000
  O   O2        1.0  0.7439794890372626  0.7439793672030559  0.2560206122277812  1.0000
  O   O3        1.0  0.7439793503696783  0.25602058357279917  0.25602059820347683  1.0000
  O   O4        1.0  0.25602059419722845  0.7439793374604863  0.7439794443213275  1.0000
  O   O5        1.0  0.2560205861538085  0.743979387070117  0.2560206093551034  1.0000
  O   O6        1.0  0.7439793825310702  0.2560206417380059  0.7439794132221403  1.0000
