data_image0
_chemical_formula_structural       Mg2NbO6
_chemical_formula_sum              "Mg2 Nb1 O6"
_cell_length_a       5.288543099893728
_cell_length_b       5.288542792339868
_cell_length_c       5.2885432792418765
_cell_angle_alpha    59.99999972117138
_cell_angle_beta     59.99999958520788
_cell_angle_gamma    60.00000044971764

_space_group_name_H-M_alt    "P 1"
_space_group_IT_number       1

loop_
  _space_group_symop_operation_xyz
  'x, y, z'

loop_
  _atom_site_type_symbol
  _atom_site_label
  _atom_site_symmetry_multiplicity
  _atom_site_fract_x
  _atom_site_fract_y
  _atom_site_fract_z
  _atom_site_occupancy
  Mg  Mg1       1.0  0.24999998882149913  0.25000002057703075  0.25000000571740627  1.0000
  Mg  Mg2       1.0  0.7500000030979651  0.7500000107824877  0.7499999864921892  1.0000
  Nb  Nb1       1.0  9.446143307025761e-08  0.9999998934711014  0.9999999738887734  1.0000
  O   O1        1.0  0.262593682244217  0.2625938167952801  0.7374062820989011  1.0000
  O   O2        1.0  0.7374062720503884  0.7374062029850104  0.26259376685769525  1.0000
  O   O3        1.0  0.7374061992423379  0.2625938534416681  0.2625937914501314  1.0000
  O   O4        1.0  0.2625938002414418  0.7374062010763074  0.7374062043068772  1.0000
  O   O5        1.0  0.2625937485782076  0.7374062476646426  0.26259380437118984  1.0000
  O   O6        1.0  0.7374061486831055  0.26259378601071853  0.7374061905193229  1.0000
