data_image0
_chemical_formula_structural       Mg2NiSe6
_chemical_formula_sum              "Mg2 Ni1 Se6"
_cell_length_a       6.601563880560735
_cell_length_b       6.601563569017996
_cell_length_c       6.601563908991699
_cell_angle_alpha    59.99999866588074
_cell_angle_beta     59.99999938625807
_cell_angle_gamma    59.999998656693705

_space_group_name_H-M_alt    "P 1"
_space_group_IT_number       1

loop_
  _space_group_symop_operation_xyz
  'x, y, z'

loop_
  _atom_site_type_symbol
  _atom_site_label
  _atom_site_symmetry_multiplicity
  _atom_site_fract_x
  _atom_site_fract_y
  _atom_site_fract_z
  _atom_site_occupancy
  Mg  Mg1       1.0  0.24999996570247418  0.2499999136867813  0.2500000639763379  1.0000
  Mg  Mg2       1.0  0.7500000085182179  0.7499999525570858  0.7500001289367627  1.0000
  Ni  Ni1       1.0  0.9999999627377173  2.7828519220179008e-08  1.3044466579507531e-07  1.0000
  Se  Se1       1.0  0.2526291408273217  0.25262927941144103  0.7473707580283042  1.0000
  Se  Se2       1.0  0.7473707704911929  0.7473708280129183  0.25262910792320525  1.0000
  Se  Se3       1.0  0.7473708603471219  0.25262921787083575  0.25262916142280933  1.0000
  Se  Se4       1.0  0.25262926118864537  0.7473706891881913  0.7473707904902933  1.0000
  Se  Se5       1.0  0.2526291876818855  0.7473708327985868  0.2526291979794274  1.0000
  Se  Se6       1.0  0.7473708421713863  0.25262926534960056  0.747370667875322  1.0000
