data_image0
_chemical_formula_structural       Mg2NiTe6
_chemical_formula_sum              "Mg2 Ni1 Te6"
_cell_length_a       6.999567695839913
_cell_length_b       6.999567933301373
_cell_length_c       6.9995679071633505
_cell_angle_alpha    60.0000002153895
_cell_angle_beta     60.00000007542363
_cell_angle_gamma    60.00000043158704

_space_group_name_H-M_alt    "P 1"
_space_group_IT_number       1

loop_
  _space_group_symop_operation_xyz
  'x, y, z'

loop_
  _atom_site_type_symbol
  _atom_site_label
  _atom_site_symmetry_multiplicity
  _atom_site_fract_x
  _atom_site_fract_y
  _atom_site_fract_z
  _atom_site_occupancy
  Mg  Mg1       1.0  0.24999994570798714  0.2500000048800514  0.2500000806863462  1.0000
  Mg  Mg2       1.0  0.7500000034580023  0.750000000642206  0.7500000401689473  1.0000
  Ni  Ni1       1.0  1.0281153245583022e-08  8.748717617331684e-09  0.9999999776271281  1.0000
  Te  Te1       1.0  0.2593446770300726  0.25934473783796147  0.7406552895419505  1.0000
  Te  Te2       1.0  0.7406553427888619  0.7406552536863479  0.25934473155286425  1.0000
  Te  Te3       1.0  0.7406552798999917  0.2593446654617034  0.25934470599644444  1.0000
  Te  Te4       1.0  0.2593446576010397  0.7406553750554248  0.7406552774718466  1.0000
  Te  Te5       1.0  0.25934472374398604  0.7406553292647108  0.2593446071688102  1.0000
  Te  Te6       1.0  0.7406553579134438  0.25934462026575406  0.740655298282868  1.0000
