data_image0
_chemical_formula_structural       Mg2PdO6
_chemical_formula_sum              "Mg2 Pd1 O6"
_cell_length_a       4.7101439411036905
_cell_length_b       4.710145039204999
_cell_length_c       4.710144332859673
_cell_angle_alpha    59.99999802487229
_cell_angle_beta     59.99999854784576
_cell_angle_gamma    59.99999641003021

_space_group_name_H-M_alt    "P 1"
_space_group_IT_number       1

loop_
  _space_group_symop_operation_xyz
  'x, y, z'

loop_
  _atom_site_type_symbol
  _atom_site_label
  _atom_site_symmetry_multiplicity
  _atom_site_fract_x
  _atom_site_fract_y
  _atom_site_fract_z
  _atom_site_occupancy
  Mg  Mg1       1.0  0.2500000281860902  0.2500000379380677  0.2500000313538178  1.0000
  Mg  Mg2       1.0  0.7500001559752428  0.7500000540089681  0.7500000436709677  1.0000
  Pd  Pd1       1.0  0.9999990645309138  2.47021747396802e-07  0.9999995756697041  1.0000
  O   O1        1.0  0.26664101316641153  0.26664149292261846  0.7333586564358056  1.0000
  O   O2        1.0  0.7333591311203737  0.7333589760574352  0.26664100585584793  1.0000
  O   O3        1.0  0.7333587004871034  0.2666411076939563  0.2666411652481832  1.0000
  O   O4        1.0  0.26664116696104423  0.7333587944365075  0.7333589613491547  1.0000
  O   O5        1.0  0.26664152232156646  0.7333586514081486  0.2666413844117911  1.0000
  O   O6        1.0  0.733359137545204  0.26664074887830097  0.7333590894521849  1.0000
