data_image0
_chemical_formula_structural       Mg2ScS6
_chemical_formula_sum              "Mg2 Sc1 S6"
_cell_length_a       6.395781720074169
_cell_length_b       6.3957816792988735
_cell_length_c       6.395781582211054
_cell_angle_alpha    60.000000936422516
_cell_angle_beta     60.00000154054957
_cell_angle_gamma    60.00000156307252

_space_group_name_H-M_alt    "P 1"
_space_group_IT_number       1

loop_
  _space_group_symop_operation_xyz
  'x, y, z'

loop_
  _atom_site_type_symbol
  _atom_site_label
  _atom_site_symmetry_multiplicity
  _atom_site_fract_x
  _atom_site_fract_y
  _atom_site_fract_z
  _atom_site_occupancy
  Mg  Mg1       1.0  0.24999996802532476  0.2499999435742511  0.2500000901901865  1.0000
  Mg  Mg2       1.0  0.7499999810514824  0.7499998651914214  0.7499998927611754  1.0000
  Sc  Sc1       1.0  0.9999999514353961  5.3617927214946466e-08  0.9999999818380325  1.0000
  S   S1        1.0  0.2660340947788728  0.2660341446604985  0.7339658934161942  1.0000
  S   S2        1.0  0.7339659396589627  0.7339658900664423  0.26603415589536095  1.0000
  S   S3        1.0  0.7339658973610049  0.266034137755866  0.2660340835072923  1.0000
  S   S4        1.0  0.26603419291621927  0.7339659352695952  0.7339659031000031  1.0000
  S   S5        1.0  0.26603405934261504  0.733965869321664  0.2660341337794342  1.0000
  S   S6        1.0  0.7339659157357387  0.2660341539157202  0.733965871216581  1.0000
