data_image0
_chemical_formula_structural       Mg2ScSe6
_chemical_formula_sum              "Mg2 Sc1 Se6"
_cell_length_a       6.94675339702675
_cell_length_b       6.9467534051693365
_cell_length_c       6.946753605358378
_cell_angle_alpha    59.999999922426824
_cell_angle_beta     60.000000558971806
_cell_angle_gamma    60.0000002034814

_space_group_name_H-M_alt    "P 1"
_space_group_IT_number       1

loop_
  _space_group_symop_operation_xyz
  'x, y, z'

loop_
  _atom_site_type_symbol
  _atom_site_label
  _atom_site_symmetry_multiplicity
  _atom_site_fract_x
  _atom_site_fract_y
  _atom_site_fract_z
  _atom_site_occupancy
  Mg  Mg1       1.0  0.2500001096953028  0.25000009767145304  0.2499998141446755  1.0000
  Mg  Mg2       1.0  0.7500000512827992  0.749999984481236  0.7499999241794317  1.0000
  Sc  Sc1       1.0  3.4079621514253047e-09  2.468264972312904e-08  0.9999999442085756  1.0000
  Se  Se1       1.0  0.2642712215031066  0.26427138222080887  0.7357286978948704  1.0000
  Se  Se2       1.0  0.7357287116362307  0.735728560651213  0.264271392412945  1.0000
  Se  Se3       1.0  0.7357286030081444  0.26427129732932986  0.26427142228416717  1.0000
  Se  Se4       1.0  0.2642713929439834  0.7357285767838818  0.7357287084242129  1.0000
  Se  Se5       1.0  0.26427129401763066  0.7357287317779307  0.26427136290702197  1.0000
  Se  Se6       1.0  0.7357286044311621  0.26427134508561934  0.7357287482868472  1.0000
