data_image0
_chemical_formula_structural       Mg2SO6
_chemical_formula_sum              "Mg2 S1 O6"
_cell_length_a       4.927729313061398
_cell_length_b       4.927728497191883
_cell_length_c       4.927729260801339
_cell_angle_alpha    59.99999953195776
_cell_angle_beta     60.00000034717774
_cell_angle_gamma    59.9999982860175

_space_group_name_H-M_alt    "P 1"
_space_group_IT_number       1

loop_
  _space_group_symop_operation_xyz
  'x, y, z'

loop_
  _atom_site_type_symbol
  _atom_site_label
  _atom_site_symmetry_multiplicity
  _atom_site_fract_x
  _atom_site_fract_y
  _atom_site_fract_z
  _atom_site_occupancy
  Mg  Mg1       1.0  0.24999995351511528  0.2500000657526376  0.2500000538707078  1.0000
  Mg  Mg2       1.0  0.7500000125778766  0.7499999661143312  0.7499999373544458  1.0000
  S   S1        1.0  5.2262680677759905e-08  0.9999999627187791  0.9999999803332752  1.0000
  O   O1        1.0  0.23111701287088798  0.23111699692833995  0.768882960451488  1.0000
  O   O2        1.0  0.7688830181717539  0.7688829877157528  0.2311170726435839  1.0000
  O   O3        1.0  0.7688830958231182  0.23111696519153418  0.23111697071406698  1.0000
  O   O4        1.0  0.23111692627287087  0.7688829970838242  0.7688830496280459  1.0000
  O   O5        1.0  0.23111705618928077  0.7688830432422262  0.23111692986489096  1.0000
  O   O6        1.0  0.7688829471361505  0.23111696128518078  0.7688830482964939  1.0000
