data_image0
_chemical_formula_structural       Mg2TiSe6
_chemical_formula_sum              "Mg2 Ti1 Se6"
_cell_length_a       6.791361632462547
_cell_length_b       6.791361621476152
_cell_length_c       6.791361602332302
_cell_angle_alpha    60.00000220269525
_cell_angle_beta     60.00000076281085
_cell_angle_gamma    60.0000011284281

_space_group_name_H-M_alt    "P 1"
_space_group_IT_number       1

loop_
  _space_group_symop_operation_xyz
  'x, y, z'

loop_
  _atom_site_type_symbol
  _atom_site_label
  _atom_site_symmetry_multiplicity
  _atom_site_fract_x
  _atom_site_fract_y
  _atom_site_fract_z
  _atom_site_occupancy
  Mg  Mg1       1.0  0.25000003699935663  0.24999998018626648  0.25000000816463713  1.0000
  Mg  Mg2       1.0  0.7500000283193569  0.7500000559755234  0.7500000817478462  1.0000
  Ti  Ti1       1.0  3.12586956773386e-08  0.9999999062239143  9.310196228747507e-08  1.0000
  Se  Se1       1.0  0.2563692404966712  0.2563692573912536  0.7436307265441234  1.0000
  Se  Se2       1.0  0.7436307753085488  0.7436307895908488  0.2563691368143343  1.0000
  Se  Se3       1.0  0.7436308027163514  0.25636918860900904  0.2563692292517735  1.0000
  Se  Se4       1.0  0.256369131494616  0.7436308277155277  0.7436307476584849  1.0000
  Se  Se5       1.0  0.2563692925387803  0.7436307486691528  0.2563691744708811  1.0000
  Se  Se6       1.0  0.743630656785848  0.2563692478181347  0.7436307944939597  1.0000
