data_image0
_chemical_formula_structural       Mg2TiTe6
_chemical_formula_sum              "Mg2 Ti1 Te6"
_cell_length_a       7.222361778317142
_cell_length_b       7.222361700934543
_cell_length_c       7.222361871137041
_cell_angle_alpha    59.999999992668535
_cell_angle_beta     59.999999730821244
_cell_angle_gamma    60.000001616487076

_space_group_name_H-M_alt    "P 1"
_space_group_IT_number       1

loop_
  _space_group_symop_operation_xyz
  'x, y, z'

loop_
  _atom_site_type_symbol
  _atom_site_label
  _atom_site_symmetry_multiplicity
  _atom_site_fract_x
  _atom_site_fract_y
  _atom_site_fract_z
  _atom_site_occupancy
  Mg  Mg1       1.0  0.25000003493658685  0.2500000012612771  0.2499999524227869  1.0000
  Mg  Mg2       1.0  0.7499999735154065  0.7500000139584364  0.7500000244415581  1.0000
  Ti  Ti1       1.0  0.999999946999057  0.9999999287777505  1.2995643773684317e-07  1.0000
  Te  Te1       1.0  0.2629694050366038  0.26296942622223746  0.7370305805194476  1.0000
  Te  Te2       1.0  0.7370306618749265  0.7370306534366549  0.262969316895888  1.0000
  Te  Te3       1.0  0.7370306025469289  0.26296938840146195  0.2629694383033782  1.0000
  Te  Te4       1.0  0.26296945278802675  0.7370305437256287  0.7370305414353218  1.0000
  Te  Te5       1.0  0.2629694204847095  0.737030585640722  0.2629694273844369  1.0000
  Te  Te6       1.0  0.7370305053790687  0.26296945671127514  0.7370305855154058  1.0000
