data_image0
_chemical_formula_structural       Mg2VTe6
_chemical_formula_sum              "Mg2 V1 Te6"
_cell_length_a       7.0877323353564785
_cell_length_b       7.087732406766836
_cell_length_c       7.087732649870134
_cell_angle_alpha    60.00000088699368
_cell_angle_beta     59.99999843175176
_cell_angle_gamma    60.00000248324384

_space_group_name_H-M_alt    "P 1"
_space_group_IT_number       1

loop_
  _space_group_symop_operation_xyz
  'x, y, z'

loop_
  _atom_site_type_symbol
  _atom_site_label
  _atom_site_symmetry_multiplicity
  _atom_site_fract_x
  _atom_site_fract_y
  _atom_site_fract_z
  _atom_site_occupancy
  Mg  Mg1       1.0  0.25000008028468956  0.24999993820004432  0.24999994431020395  1.0000
  Mg  Mg2       1.0  0.7499999827361505  0.7500000513331716  0.7500000665434274  1.0000
  V   V1        1.0  3.478822048507185e-08  0.9999999982720232  1.8742088852331626e-08  1.0000
  Te  Te1       1.0  0.26285857956932185  0.2628584439002179  0.7371414751695436  1.0000
  Te  Te2       1.0  0.7371414782365779  0.7371414488662063  0.2628585104869773  1.0000
  Te  Te3       1.0  0.7371414337901223  0.2628585846341567  0.2628585806361855  1.0000
  Te  Te4       1.0  0.2628585672240521  0.7371414100829926  0.7371414459308163  1.0000
  Te  Te5       1.0  0.26285855907627825  0.737141475064867  0.2628585394679093  1.0000
  Te  Te6       1.0  0.737141282969702  0.2628586544345911  0.7371414131278431  1.0000
