data_image0
_chemical_formula_structural       Mg2VSe6
_chemical_formula_sum              "Mg2 V1 Se6"
_cell_length_a       6.74930371657621
_cell_length_b       6.749303711968141
_cell_length_c       6.749303833067967
_cell_angle_alpha    59.99999960178684
_cell_angle_beta     59.99999925537477
_cell_angle_gamma    60.000000320024455

_space_group_name_H-M_alt    "P 1"
_space_group_IT_number       1

loop_
  _space_group_symop_operation_xyz
  'x, y, z'

loop_
  _atom_site_type_symbol
  _atom_site_label
  _atom_site_symmetry_multiplicity
  _atom_site_fract_x
  _atom_site_fract_y
  _atom_site_fract_z
  _atom_site_occupancy
  Mg  Mg1       1.0  0.2500000827075692  0.25000009593059197  0.24999990975372177  1.0000
  Mg  Mg2       1.0  0.7499998454399999  0.7499999920080554  0.7500001436862882  1.0000
  V   V1        1.0  0.9999999918609004  0.9999999782245116  1.792056259019412e-08  1.0000
  Se  Se1       1.0  0.2522823333839492  0.25228228833311317  0.7477176902098156  1.0000
  Se  Se2       1.0  0.7477177293006654  0.7477176526209883  0.25228229537222974  1.0000
  Se  Se3       1.0  0.7477175824565927  0.25228236932694786  0.2522823115069937  1.0000
  Se  Se4       1.0  0.25228240120005435  0.747717618807378  0.747717688517289  1.0000
  Se  Se5       1.0  0.2522824234507847  0.747717657306961  0.25228226469948434  1.0000
  Se  Se6       1.0  0.7477176167496871  0.25228235623210166  0.747717670644369  1.0000
