data_image0
_chemical_formula_structural       Mg2VO6
_chemical_formula_sum              "Mg2 V1 O6"
_cell_length_a       5.09490457308527
_cell_length_b       5.094905655658388
_cell_length_c       5.094905110366719
_cell_angle_alpha    59.999999384181784
_cell_angle_beta     60.00000063161046
_cell_angle_gamma    59.99999997479929

_space_group_name_H-M_alt    "P 1"
_space_group_IT_number       1

loop_
  _space_group_symop_operation_xyz
  'x, y, z'

loop_
  _atom_site_type_symbol
  _atom_site_label
  _atom_site_symmetry_multiplicity
  _atom_site_fract_x
  _atom_site_fract_y
  _atom_site_fract_z
  _atom_site_occupancy
  Mg  Mg1       1.0  0.2500000020795338  0.2500000629464678  0.24999995658748694  1.0000
  Mg  Mg2       1.0  0.7499999701415796  0.7499999027798571  0.7500000956113408  1.0000
  V   V1        1.0  4.203221320102699e-08  0.9999999350957244  1.3508897534772906e-07  1.0000
  O   O1        1.0  0.2549850993398832  0.2549849627198541  0.7450149609773908  1.0000
  O   O2        1.0  0.7450149615882558  0.7450151448343146  0.25498487977949125  1.0000
  O   O3        1.0  0.7450151724052415  0.2549849234833738  0.25498496042342406  1.0000
  O   O4        1.0  0.25498486913497964  0.7450150518583964  0.7450150346434234  1.0000
  O   O5        1.0  0.2549848368116767  0.7450150945950693  0.2549850139767815  1.0000
  O   O6        1.0  0.7450150641656209  0.2549849624780055  0.7450149948039076  1.0000
