data_image0
_chemical_formula_structural       Mg2VS6
_chemical_formula_sum              "Mg2 V1 S6"
_cell_length_a       6.31802512475723
_cell_length_b       6.318025144982301
_cell_length_c       6.318025184557725
_cell_angle_alpha    59.99999999318647
_cell_angle_beta     60.00000115694298
_cell_angle_gamma    60.00000068112036

_space_group_name_H-M_alt    "P 1"
_space_group_IT_number       1

loop_
  _space_group_symop_operation_xyz
  'x, y, z'

loop_
  _atom_site_type_symbol
  _atom_site_label
  _atom_site_symmetry_multiplicity
  _atom_site_fract_x
  _atom_site_fract_y
  _atom_site_fract_z
  _atom_site_occupancy
  Mg  Mg1       1.0  0.24999987473676402  0.2500001192168456  0.24999993617657337  1.0000
  Mg  Mg2       1.0  0.7500000374098581  0.7499999021046387  0.7500000987743088  1.0000
  V   V1        1.0  0.9999999694656071  3.876986614611693e-09  0.9999998946207239  1.0000
  S   S1        1.0  0.25118746481429244  0.2511876016769705  0.7488124470452383  1.0000
  S   S2        1.0  0.7488124955506446  0.7488125107536941  0.25118744859988246  1.0000
  S   S3        1.0  0.7488125439471457  0.25118752742926065  0.25118755637212564  1.0000
  S   S4        1.0  0.2511874514943571  0.7488125346005808  0.7488125242057062  1.0000
  S   S5        1.0  0.25118764377193253  0.7488123249386338  0.25118751429485603  1.0000
  S   S6        1.0  0.748812522659119  0.2511874598866827  0.748812576655593  1.0000
