data_image0
_chemical_formula_structural       Mg2ZnTe6
_chemical_formula_sum              "Mg2 Zn1 Te6"
_cell_length_a       7.162608848371243
_cell_length_b       7.162608845557895
_cell_length_c       7.162608901350412
_cell_angle_alpha    59.99999834680246
_cell_angle_beta     59.99999895412217
_cell_angle_gamma    60.00000020244185

_space_group_name_H-M_alt    "P 1"
_space_group_IT_number       1

loop_
  _space_group_symop_operation_xyz
  'x, y, z'

loop_
  _atom_site_type_symbol
  _atom_site_label
  _atom_site_symmetry_multiplicity
  _atom_site_fract_x
  _atom_site_fract_y
  _atom_site_fract_z
  _atom_site_occupancy
  Mg  Mg1       1.0  0.25000001073738254  0.2499999543927428  0.2500000313400443  1.0000
  Mg  Mg2       1.0  0.7500000057643204  0.7500000102308774  0.749999984852844  1.0000
  Zn  Zn1       1.0  4.132844484617771e-08  3.077846217363645e-08  0.9999999457967346  1.0000
  Te  Te1       1.0  0.266142615624362  0.26614260144137053  0.7338573547489609  1.0000
  Te  Te2       1.0  0.7338573465373438  0.7338573666020785  0.2661426436236929  1.0000
  Te  Te3       1.0  0.7338573166028959  0.26614268437409566  0.26614266535398495  1.0000
  Te  Te4       1.0  0.2661426159202927  0.7338573725849071  0.7338573648102802  1.0000
  Te  Te5       1.0  0.2661426527132361  0.7338573460797688  0.2661426503837876  1.0000
  Te  Te6       1.0  0.7338573827427748  0.2661426390628257  0.7338573656184101  1.0000
