data_image0
_chemical_formula_structural       Mn2AuSe6
_chemical_formula_sum              "Mn2 Au1 Se6"
_cell_length_a       6.684564317618832
_cell_length_b       6.684564633234172
_cell_length_c       6.684564508506159
_cell_angle_alpha    60.00000236083682
_cell_angle_beta     60.0000024026776
_cell_angle_gamma    60.00000174000547

_space_group_name_H-M_alt    "P 1"
_space_group_IT_number       1

loop_
  _space_group_symop_operation_xyz
  'x, y, z'

loop_
  _atom_site_type_symbol
  _atom_site_label
  _atom_site_symmetry_multiplicity
  _atom_site_fract_x
  _atom_site_fract_y
  _atom_site_fract_z
  _atom_site_occupancy
  Mn  Mn1       1.0  0.25000042370914866  0.24999946876556808  0.25000012108840464  1.0000
  Mn  Mn2       1.0  0.7500014962803446  0.7499996741779744  0.7500002241175617  1.0000
  Au  Au1       1.0  0.9999999432737611  4.580495939459985e-08  0.9999999934927688  1.0000
  Se  Se1       1.0  0.2850527065671216  0.2850535162317866  0.7149468743595933  1.0000
  Se  Se2       1.0  0.7149465980220651  0.7149472024023583  0.2850528208418733  1.0000
  Se  Se3       1.0  0.7149467403585593  0.2850534054042032  0.2850529502930689  1.0000
  Se  Se4       1.0  0.2850523475766276  0.7149469889308308  0.7149466952444169  1.0000
  Se  Se5       1.0  0.2850529049809677  0.7149469418984365  0.2850534296247541  1.0000
  Se  Se6       1.0  0.7149468329619312  0.28505276169781457  0.714946890023181  1.0000
