data_image0
_chemical_formula_structural       Mn2AgO6
_chemical_formula_sum              "Mn2 Ag1 O6"
_cell_length_a       5.272934086728676
_cell_length_b       5.2729342333102265
_cell_length_c       5.2729339652113
_cell_angle_alpha    60.00000195451105
_cell_angle_beta     60.00000180532913
_cell_angle_gamma    60.00000125390423

_space_group_name_H-M_alt    "P 1"
_space_group_IT_number       1

loop_
  _space_group_symop_operation_xyz
  'x, y, z'

loop_
  _atom_site_type_symbol
  _atom_site_label
  _atom_site_symmetry_multiplicity
  _atom_site_fract_x
  _atom_site_fract_y
  _atom_site_fract_z
  _atom_site_occupancy
  Mn  Mn1       1.0  0.24999983369172532  0.25000012678496153  0.2500001450241597  1.0000
  Mn  Mn2       1.0  0.7500001140435205  0.7500000458859695  0.7499997401548957  1.0000
  Ag  Ag1       1.0  2.0991562822578993e-08  9.290802983858535e-09  3.823591097966272e-09  1.0000
  O   O1        1.0  0.26669084910086555  0.2666909495427566  0.7333090644119092  1.0000
  O   O2        1.0  0.7333091907225988  0.7333090256986077  0.26669103463839783  1.0000
  O   O3        1.0  0.7333090473517687  0.26669080549619195  0.2666910050475684  1.0000
  O   O4        1.0  0.2666909145664753  0.7333091209684565  0.7333090492444956  1.0000
  O   O5        1.0  0.2666908114074684  0.7333090609753345  0.2666909565302985  1.0000
  O   O6        1.0  0.7333092262489211  0.2666908747801167  0.7333089490445581  1.0000
