data_image0
_chemical_formula_structural       Mn2AgSe6
_chemical_formula_sum              "Mn2 Ag1 Se6"
_cell_length_a       6.622470139717488
_cell_length_b       6.622470052843401
_cell_length_c       6.622469750969675
_cell_angle_alpha    59.99999994860714
_cell_angle_beta     60.000001215485185
_cell_angle_gamma    60.00000444600763

_space_group_name_H-M_alt    "P 1"
_space_group_IT_number       1

loop_
  _space_group_symop_operation_xyz
  'x, y, z'

loop_
  _atom_site_type_symbol
  _atom_site_label
  _atom_site_symmetry_multiplicity
  _atom_site_fract_x
  _atom_site_fract_y
  _atom_site_fract_z
  _atom_site_occupancy
  Mn  Mn1       1.0  0.24999903465399184  0.24999991523830628  0.2500010876712732  1.0000
  Mn  Mn2       1.0  0.7500006339799998  0.7500007628728587  0.7499999429884102  1.0000
  Ag  Ag1       1.0  1.0250124881820685e-08  1.1096266128885146e-08  3.6137135144481985e-08  1.0000
  Se  Se1       1.0  0.2797049237636789  0.27970499145892586  0.7202948214792598  1.0000
  Se  Se2       1.0  0.7202952701687065  0.7202948692273395  0.2797046821518587  1.0000
  Se  Se3       1.0  0.7202952573511076  0.2797047064592618  0.2797051864318837  1.0000
  Se  Se4       1.0  0.279704336440889  0.7202953853991836  0.7202947765052818  1.0000
  Se  Se5       1.0  0.2797048120399715  0.7202950405961771  0.2797050973045139  1.0000
  Se  Se6       1.0  0.72029572567391  0.27970431705936816  0.7202943772304521  1.0000
