data_image0
_chemical_formula_structural       Mn2AuS6
_chemical_formula_sum              "Mn2 Au1 S6"
_cell_length_a       6.262205022937857
_cell_length_b       6.26220525662389
_cell_length_c       6.262204802050569
_cell_angle_alpha    59.99999990871107
_cell_angle_beta     59.99999943020768
_cell_angle_gamma    59.9999997839377

_space_group_name_H-M_alt    "P 1"
_space_group_IT_number       1

loop_
  _space_group_symop_operation_xyz
  'x, y, z'

loop_
  _atom_site_type_symbol
  _atom_site_label
  _atom_site_symmetry_multiplicity
  _atom_site_fract_x
  _atom_site_fract_y
  _atom_site_fract_z
  _atom_site_occupancy
  Mn  Mn1       1.0  0.25000000927873506  0.2499997705907955  0.25000013544555755  1.0000
  Mn  Mn2       1.0  0.7500000429099624  0.7500000686563427  0.7499996786251263  1.0000
  Au  Au1       1.0  1.3447511547784307e-08  3.911543568707228e-09  5.040509361418807e-08  1.0000
  S   S1        1.0  0.2681018663046733  0.2681018987595414  0.7318980814244122  1.0000
  S   S2        1.0  0.7318980144504444  0.7318982279861456  0.2681019939901158  1.0000
  S   S3        1.0  0.73189814688736  0.26810178671365226  0.2681020021171064  1.0000
  S   S4        1.0  0.26810181036330005  0.7318982930934949  0.7318980521313936  1.0000
  S   S5        1.0  0.26810183150042993  0.7318981212681918  0.2681019611397935  1.0000
  S   S6        1.0  0.7318982558696883  0.26810183923683417  0.731898038196707  1.0000
