data_image0
_chemical_formula_structural       Mn2BeSe6
_chemical_formula_sum              "Mn2 Be1 Se6"
_cell_length_a       6.133327096255808
_cell_length_b       6.133327848740577
_cell_length_c       6.13333008290899
_cell_angle_alpha    59.99999953027096
_cell_angle_beta     59.99999891975342
_cell_angle_gamma    59.99999162418803

_space_group_name_H-M_alt    "P 1"
_space_group_IT_number       1

loop_
  _space_group_symop_operation_xyz
  'x, y, z'

loop_
  _atom_site_type_symbol
  _atom_site_label
  _atom_site_symmetry_multiplicity
  _atom_site_fract_x
  _atom_site_fract_y
  _atom_site_fract_z
  _atom_site_occupancy
  Mn  Mn1       1.0  0.24999974256838395  0.25000005655129387  0.2500007569979217  1.0000
  Mn  Mn2       1.0  0.7500000163410356  0.7499974479218342  0.7500002196053163  1.0000
  Be  Be1       1.0  3.843314255550104e-08  0.9999999920125204  0.99999996684238  1.0000
  Se  Se1       1.0  0.229707229344448  0.22970956405506035  0.7702919017358558  1.0000
  Se  Se2       1.0  0.7702916125644051  0.7702918323149756  0.22970951296394648  1.0000
  Se  Se3       1.0  0.770291341122124  0.22970904738267284  0.22970756798762787  1.0000
  Se  Se4       1.0  0.22970892216341954  0.7702922191905942  0.7702910943995084  1.0000
  Se  Se5       1.0  0.22970878572308898  0.7702908410218338  0.22970779619398157  1.0000
  Se  Se6       1.0  0.7702922801727827  0.22970901176846353  0.770291204388156  1.0000
