data_image0
_chemical_formula_structural       Mn2BeO6
_chemical_formula_sum              "Mn2 Be1 O6"
_cell_length_a       5.084419341199577
_cell_length_b       5.084419177691262
_cell_length_c       5.084419365163213
_cell_angle_alpha    59.99999923759646
_cell_angle_beta     59.9999995030989
_cell_angle_gamma    59.999999925210254

_space_group_name_H-M_alt    "P 1"
_space_group_IT_number       1

loop_
  _space_group_symop_operation_xyz
  'x, y, z'

loop_
  _atom_site_type_symbol
  _atom_site_label
  _atom_site_symmetry_multiplicity
  _atom_site_fract_x
  _atom_site_fract_y
  _atom_site_fract_z
  _atom_site_occupancy
  Mn  Mn1       1.0  0.25000004137252696  0.24999990473253464  0.2500001564678169  1.0000
  Mn  Mn2       1.0  0.7500000402654028  0.7500001020175644  0.7500000027326944  1.0000
  Be  Be1       1.0  4.0489371421127035e-08  0.9999999807294435  3.856041529598927e-08  1.0000
  O   O1        1.0  0.23037487297737794  0.23037485662872803  0.7696249770405289  1.0000
  O   O2        1.0  0.769625130480282  0.76962520070658  0.23037475342910646  1.0000
  O   O3        1.0  0.7696251859746128  0.23037474489112336  0.23037485168153077  1.0000
  O   O4        1.0  0.2303747803904691  0.7696252329531373  0.7696251514603454  1.0000
  O   O5        1.0  0.2303748098329325  0.7696252728214993  0.23037475740583394  1.0000
  O   O6        1.0  0.7696251177627835  0.23037475319915407  0.769625286268766  1.0000
