data_image0
_chemical_formula_structural       Mn2CdS6
_chemical_formula_sum              "Mn2 Cd1 S6"
_cell_length_a       6.325191197824582
_cell_length_b       6.325191217260132
_cell_length_c       6.325191161561755
_cell_angle_alpha    59.999998662425334
_cell_angle_beta     59.99999924650115
_cell_angle_gamma    60.00000031522048

_space_group_name_H-M_alt    "P 1"
_space_group_IT_number       1

loop_
  _space_group_symop_operation_xyz
  'x, y, z'

loop_
  _atom_site_type_symbol
  _atom_site_label
  _atom_site_symmetry_multiplicity
  _atom_site_fract_x
  _atom_site_fract_y
  _atom_site_fract_z
  _atom_site_occupancy
  Mn  Mn1       1.0  0.25000009092660547  0.2499998817031985  0.25000006719839885  1.0000
  Mn  Mn2       1.0  0.7499998329244849  0.7500000226875098  0.7500000398543578  1.0000
  Cd  Cd1       1.0  2.4782646116999877e-08  4.066223729454044e-08  0.9999999799253967  1.0000
  S   S1        1.0  0.2739865620385269  0.2739864992117338  0.7260134590592691  1.0000
  S   S2        1.0  0.7260133704404029  0.7260135271656867  0.27398654158073316  1.0000
  S   S3        1.0  0.726013414590314  0.27398646540653604  0.27398664963774305  1.0000
  S   S4        1.0  0.27398659636862394  0.7260135938879337  0.7260133458950857  1.0000
  S   S5        1.0  0.2739865999159203  0.7260134263570058  0.27398662474850716  1.0000
  S   S6        1.0  0.726013503668797  0.27398653031372466  0.726013309382147  1.0000
