data_image0
_chemical_formula_structural       Mn2CaO6
_chemical_formula_sum              "Mn2 Ca1 O6"
_cell_length_a       5.401340248657306
_cell_length_b       5.401340459411766
_cell_length_c       5.401340225322338
_cell_angle_alpha    59.999998556241735
_cell_angle_beta     59.99999761209475
_cell_angle_gamma    59.99999672875237

_space_group_name_H-M_alt    "P 1"
_space_group_IT_number       1

loop_
  _space_group_symop_operation_xyz
  'x, y, z'

loop_
  _atom_site_type_symbol
  _atom_site_label
  _atom_site_symmetry_multiplicity
  _atom_site_fract_x
  _atom_site_fract_y
  _atom_site_fract_z
  _atom_site_occupancy
  Mn  Mn1       1.0  0.24999978510426857  0.25000003646651936  0.25000007294958904  1.0000
  Mn  Mn2       1.0  0.7499999505706971  0.7500002091687944  0.75000018607189  1.0000
  Ca  Ca1       1.0  2.2782264445408953e-08  0.9999999637202679  0.999999990086203  1.0000
  O   O1        1.0  0.2814985315360245  0.28149839091992834  0.7185015503491696  1.0000
  O   O2        1.0  0.7185016507511558  0.7185015281977931  0.2814982987118415  1.0000
  O   O3        1.0  0.7185017052431162  0.2814984297197332  0.28149832673534586  1.0000
  O   O4        1.0  0.28149836028361014  0.7185015959697018  0.7185016255438303  1.0000
  O   O5        1.0  0.2814983620453112  0.7185015856377476  0.28149840071666055  1.0000
  O   O6        1.0  0.7185016178211553  0.28149826092051716  0.7185015691719102  1.0000
