data_image0
_chemical_formula_structural       Mn2CaS6
_chemical_formula_sum              "Mn2 Ca1 S6"
_cell_length_a       6.607730187257385
_cell_length_b       6.60773027983968
_cell_length_c       6.607730105045908
_cell_angle_alpha    59.99999858025863
_cell_angle_beta     60.00000225357979
_cell_angle_gamma    59.99999871205319

_space_group_name_H-M_alt    "P 1"
_space_group_IT_number       1

loop_
  _space_group_symop_operation_xyz
  'x, y, z'

loop_
  _atom_site_type_symbol
  _atom_site_label
  _atom_site_symmetry_multiplicity
  _atom_site_fract_x
  _atom_site_fract_y
  _atom_site_fract_z
  _atom_site_occupancy
  Mn  Mn1       1.0  0.24999996101204727  0.24999996049124185  0.24999995326183178  1.0000
  Mn  Mn2       1.0  0.7499999114352244  0.7500000112189329  0.7500001908390583  1.0000
  Ca  Ca1       1.0  0.9999998626318753  2.39101912271526e-07  0.999999879517666  1.0000
  S   S1        1.0  0.2779681190627653  0.2779680608155443  0.7220319492072564  1.0000
  S   S2        1.0  0.7220318883659762  0.7220318886525977  0.27796792816423566  1.0000
  S   S3        1.0  0.7220319706636291  0.27796805660910806  0.2779680802234285  1.0000
  S   S4        1.0  0.27796813515510693  0.7220318650564809  0.7220318904915604  1.0000
  S   S5        1.0  0.2779681978980268  0.7220318722854184  0.2779681387144007  1.0000
  S   S6        1.0  0.7220319727902029  0.27796803825914534  0.7220319670579085  1.0000
