data_image0
_chemical_formula_structural       Mn2CoS6
_chemical_formula_sum              "Mn2 Co1 S6"
_cell_length_a       6.056169215732409
_cell_length_b       6.056169470033627
_cell_length_c       6.056169467853168
_cell_angle_alpha    60.000003371981656
_cell_angle_beta     60.000002278072884
_cell_angle_gamma    60.00000202937553

_space_group_name_H-M_alt    "P 1"
_space_group_IT_number       1

loop_
  _space_group_symop_operation_xyz
  'x, y, z'

loop_
  _atom_site_type_symbol
  _atom_site_label
  _atom_site_symmetry_multiplicity
  _atom_site_fract_x
  _atom_site_fract_y
  _atom_site_fract_z
  _atom_site_occupancy
  Mn  Mn1       1.0  0.2499998879534614  0.2499997546033543  0.25000027223691657  1.0000
  Mn  Mn2       1.0  0.7499999139849474  0.7500000120645157  0.7499998617876534  1.0000
  Co  Co1       1.0  0.9999999952614333  4.853542373682188e-08  0.9999999318677276  1.0000
  S   S1        1.0  0.2523197096174756  0.2523196447581628  0.747680320032031  1.0000
  S   S2        1.0  0.7476802672470141  0.7476803807653085  0.25231974405928786  1.0000
  S   S3        1.0  0.7476803194434095  0.2523196528417452  0.2523196967977455  1.0000
  S   S4        1.0  0.2523197347048197  0.7476805526672577  0.7476801825178473  1.0000
  S   S5        1.0  0.2523196621752913  0.7476802979635063  0.25231971497574424  1.0000
  S   S6        1.0  0.7476804825142314  0.2523196588014445  0.74768027481419  1.0000
