data_image0
_chemical_formula_structural       Mn2CoO6
_chemical_formula_sum              "Mn2 Co1 O6"
_cell_length_a       5.218745772205553
_cell_length_b       5.2187458491300065
_cell_length_c       5.218745837568811
_cell_angle_alpha    60.00000076624526
_cell_angle_beta     60.00000020801832
_cell_angle_gamma    60.000000540429404

_space_group_name_H-M_alt    "P 1"
_space_group_IT_number       1

loop_
  _space_group_symop_operation_xyz
  'x, y, z'

loop_
  _atom_site_type_symbol
  _atom_site_label
  _atom_site_symmetry_multiplicity
  _atom_site_fract_x
  _atom_site_fract_y
  _atom_site_fract_z
  _atom_site_occupancy
  Mn  Mn1       1.0  0.25000007065780494  0.25000000802087907  0.2499999518816567  1.0000
  Mn  Mn2       1.0  0.7500000155426831  0.7500000756926428  0.7500001809796658  1.0000
  Co  Co1       1.0  0.9999999729119134  2.8161820347859775e-08  0.9999999898822871  1.0000
  O   O1        1.0  0.24321463757384212  0.24321459148336333  0.756785376857875  1.0000
  O   O2        1.0  0.7567853402552204  0.7567854124383323  0.24321449176143342  1.0000
  O   O3        1.0  0.7567853390614498  0.2432145940582672  0.24321459033636605  1.0000
  O   O4        1.0  0.24321459594590936  0.7567854122102473  0.7567853924126748  1.0000
  O   O5        1.0  0.2432146566940946  0.7567853530599316  0.2432145867843966  1.0000
  O   O6        1.0  0.7567853586840622  0.2432145382144833  0.7567854343541562  1.0000
