data_image0
_chemical_formula_structural       Mn2CO6
_chemical_formula_sum              "Mn2 C1 O6"
_cell_length_a       4.759639247882897
_cell_length_b       4.759638312039358
_cell_length_c       4.759639235585746
_cell_angle_alpha    59.999997827889324
_cell_angle_beta     59.99999478284407
_cell_angle_gamma    59.999996240825006

_space_group_name_H-M_alt    "P 1"
_space_group_IT_number       1

loop_
  _space_group_symop_operation_xyz
  'x, y, z'

loop_
  _atom_site_type_symbol
  _atom_site_label
  _atom_site_symmetry_multiplicity
  _atom_site_fract_x
  _atom_site_fract_y
  _atom_site_fract_z
  _atom_site_occupancy
  Mn  Mn1       1.0  0.24999994903227535  0.2499999903432063  0.25000006239672345  1.0000
  Mn  Mn2       1.0  0.7500000256178231  0.7499999813223717  0.7499999982383079  1.0000
  C   C1        1.0  1.3144686032826486e-07  0.9999999768413045  4.819004813107281e-10  1.0000
  O   O1        1.0  0.21855515593179156  0.2185550670825386  0.7814448771709832  1.0000
  O   O2        1.0  0.7814449032129607  0.7814448839975259  0.21855511369148137  1.0000
  O   O3        1.0  0.7814448932176556  0.21855510860096242  0.21855514057319708  1.0000
  O   O4        1.0  0.2185550203403241  0.7814448862233088  0.7814448339785716  1.0000
  O   O5        1.0  0.218555174268234  0.7814447912366784  0.21855513212074715  1.0000
  O   O6        1.0  0.7814448230738245  0.2185551778557095  0.7814448974449024  1.0000
