data_image0
_chemical_formula_structural       Mn2CdSe6
_chemical_formula_sum              "Mn2 Cd1 Se6"
_cell_length_a       6.643407564234957
_cell_length_b       6.64340797089943
_cell_length_c       6.643407409517101
_cell_angle_alpha    59.999998070411564
_cell_angle_beta     59.99999794903061
_cell_angle_gamma    59.99999671235045

_space_group_name_H-M_alt    "P 1"
_space_group_IT_number       1

loop_
  _space_group_symop_operation_xyz
  'x, y, z'

loop_
  _atom_site_type_symbol
  _atom_site_label
  _atom_site_symmetry_multiplicity
  _atom_site_fract_x
  _atom_site_fract_y
  _atom_site_fract_z
  _atom_site_occupancy
  Mn  Mn1       1.0  0.2500007741727539  0.24999977974425808  0.24999974118303264  1.0000
  Mn  Mn2       1.0  0.7499995761457814  0.7499999549783132  0.7499994519426845  1.0000
  Cd  Cd1       1.0  1.0269039515199393e-07  0.9999999317886815  0.9999999165293891  1.0000
  Se  Se1       1.0  0.28536084773056586  0.2853606148882068  0.7146392404469315  1.0000
  Se  Se2       1.0  0.7146389516685674  0.7146395420070794  0.28536130253703973  1.0000
  Se  Se3       1.0  0.7146388896457465  0.2853605376306125  0.2853609272882973  1.0000
  Se  Se4       1.0  0.2853612815776877  0.7146391399419092  0.7146391486278421  1.0000
  Se  Se5       1.0  0.285360713676569  0.7146393003118563  0.28536079032383793  1.0000
  Se  Se6       1.0  0.7146388563032777  0.28536119026583984  0.7146394822670746  1.0000
