data_image0
_chemical_formula_structural       Mn2CN6
_chemical_formula_sum              "Mn2 C1 N6"
_cell_length_a       4.7307892327722785
_cell_length_b       4.730789268999028
_cell_length_c       4.730789212950523
_cell_angle_alpha    59.999999230093636
_cell_angle_beta     59.999999497117585
_cell_angle_gamma    60.00000075190671

_space_group_name_H-M_alt    "P 1"
_space_group_IT_number       1

loop_
  _space_group_symop_operation_xyz
  'x, y, z'

loop_
  _atom_site_type_symbol
  _atom_site_label
  _atom_site_symmetry_multiplicity
  _atom_site_fract_x
  _atom_site_fract_y
  _atom_site_fract_z
  _atom_site_occupancy
  Mn  Mn1       1.0  0.24999997070647711  0.2500000047412925  0.25000001384168236  1.0000
  Mn  Mn2       1.0  0.7500000203784752  0.750000011634998  0.7500000056004621  1.0000
  C   C1        1.0  9.141861912115479e-08  6.989977784738474e-08  0.9999999721861057  1.0000
  N   N1        1.0  0.23735404513566302  0.2373539593268361  0.7626460129346001  1.0000
  N   N2        1.0  0.7626458746748752  0.7626459120721379  0.2373540977229134  1.0000
  N   N3        1.0  0.7626459691877965  0.23735406963045014  0.2373540447077666  1.0000
  N   N4        1.0  0.23735406196129802  0.7626459363903191  0.7626458985795133  1.0000
  N   N5        1.0  0.2373540160630778  0.7626459964019606  0.23735400508719537  1.0000
  N   N6        1.0  0.7626459580841948  0.23735401220768818  0.7626459802032414  1.0000
