data_image0
_chemical_formula_structural       Mn2CoN6
_chemical_formula_sum              "Mn2 Co1 N6"
_cell_length_a       4.7671843263407565
_cell_length_b       4.767184201198548
_cell_length_c       4.767184208984646
_cell_angle_alpha    59.999999602022555
_cell_angle_beta     60.000000680720184
_cell_angle_gamma    59.999999119948775

_space_group_name_H-M_alt    "P 1"
_space_group_IT_number       1

loop_
  _space_group_symop_operation_xyz
  'x, y, z'

loop_
  _atom_site_type_symbol
  _atom_site_label
  _atom_site_symmetry_multiplicity
  _atom_site_fract_x
  _atom_site_fract_y
  _atom_site_fract_z
  _atom_site_occupancy
  Mn  Mn1       1.0  0.2500000485658763  0.24999991751316955  0.25000003189722186  1.0000
  Mn  Mn2       1.0  0.7499999601378887  0.7500000839554637  0.749999982907745  1.0000
  Co  Co1       1.0  2.877236675747722e-08  1.5414695317473605e-08  7.273909684998951e-09  1.0000
  N   N1        1.0  0.25882925389615713  0.2588291245354422  0.7411708478211532  1.0000
  N   N2        1.0  0.7411707155153368  0.7411708204126408  0.25882921279255033  1.0000
  N   N3        1.0  0.7411707620631314  0.25882919274987554  0.25882923804667585  1.0000
  N   N4        1.0  0.2588292246688229  0.7411708601010764  0.7411706844390864  1.0000
  N   N5        1.0  0.25882917236604797  0.7411708154941431  0.2588292396354398  1.0000
  N   N6        1.0  0.7411708343563225  0.25882916285244695  0.7411707436700851  1.0000
