data_image0
_chemical_formula_structural       Mn2CaTe6
_chemical_formula_sum              "Mn2 Ca1 Te6"
_cell_length_a       7.522983136902107
_cell_length_b       7.522983155211413
_cell_length_c       7.522983149802542
_cell_angle_alpha    60.00000085021264
_cell_angle_beta     60.00000057261812
_cell_angle_gamma    60.000000529020625

_space_group_name_H-M_alt    "P 1"
_space_group_IT_number       1

loop_
  _space_group_symop_operation_xyz
  'x, y, z'

loop_
  _atom_site_type_symbol
  _atom_site_label
  _atom_site_symmetry_multiplicity
  _atom_site_fract_x
  _atom_site_fract_y
  _atom_site_fract_z
  _atom_site_occupancy
  Mn  Mn1       1.0  0.2500000560726794  0.2499998584920236  0.2500000062681032  1.0000
  Mn  Mn2       1.0  0.7500001705028051  0.7500001534175832  0.7499998735805051  1.0000
  Ca  Ca1       1.0  8.41934252625737e-09  0.9999999609278977  0.9999999860826614  1.0000
  Te  Te1       1.0  0.2796220556894283  0.27962200993533204  0.7203779663024882  1.0000
  Te  Te2       1.0  0.7203779638451815  0.7203780198823211  0.279621962917696  1.0000
  Te  Te3       1.0  0.7203780200424601  0.2796219138117688  0.2796221194347907  1.0000
  Te  Te4       1.0  0.2796218915546058  0.7203780346056724  0.7203780174413638  1.0000
  Te  Te5       1.0  0.2796219183589564  0.720378116180803  0.27962204449258327  1.0000
  Te  Te6       1.0  0.7203779201349234  0.27962193642891015  0.7203780223393718  1.0000
