data_image0
_chemical_formula_structural       Mn2CrS6
_chemical_formula_sum              "Mn2 Cr1 S6"
_cell_length_a       6.0620857353251845
_cell_length_b       6.062086708649799
_cell_length_c       6.062085740558127
_cell_angle_alpha    60.00000003567976
_cell_angle_beta     60.00000017729377
_cell_angle_gamma    59.99999994582347

_space_group_name_H-M_alt    "P 1"
_space_group_IT_number       1

loop_
  _space_group_symop_operation_xyz
  'x, y, z'

loop_
  _atom_site_type_symbol
  _atom_site_label
  _atom_site_symmetry_multiplicity
  _atom_site_fract_x
  _atom_site_fract_y
  _atom_site_fract_z
  _atom_site_occupancy
  Mn  Mn1       1.0  0.2499997842748479  0.24999988732570944  0.2500001942193575  1.0000
  Mn  Mn2       1.0  0.7500000649387891  0.7500001428169605  0.7499996430647865  1.0000
  Cr  Cr1       1.0  0.9999999786049455  0.999999989898322  4.2141922762874284e-08  1.0000
  S   S1        1.0  0.2602673731095084  0.2602672783334933  0.739732710459317  1.0000
  S   S2        1.0  0.7397327032562521  0.7397326932194175  0.2602674466949751  1.0000
  S   S3        1.0  0.739732713705866  0.2602672575900108  0.26026739453378295  1.0000
  S   S4        1.0  0.2602673339328365  0.7397327887153216  0.739732582896085  1.0000
  S   S5        1.0  0.2602672472150115  0.7397326458791094  0.26026744026940873  1.0000
  S   S6        1.0  0.7397327908238378  0.2602673377958273  0.7397325320356547  1.0000
