data_image0
_chemical_formula_structural       Mn2CrSe6
_chemical_formula_sum              "Mn2 Cr1 Se6"
_cell_length_a       6.486137044610437
_cell_length_b       6.486137258163482
_cell_length_c       6.486137023989107
_cell_angle_alpha    60.00000120622489
_cell_angle_beta     59.999999666136155
_cell_angle_gamma    60.00000017608455

_space_group_name_H-M_alt    "P 1"
_space_group_IT_number       1

loop_
  _space_group_symop_operation_xyz
  'x, y, z'

loop_
  _atom_site_type_symbol
  _atom_site_label
  _atom_site_symmetry_multiplicity
  _atom_site_fract_x
  _atom_site_fract_y
  _atom_site_fract_z
  _atom_site_occupancy
  Mn  Mn1       1.0  0.24999968962820943  0.25000041122239647  0.2500001905149172  1.0000
  Mn  Mn2       1.0  0.7500000731980662  0.7500004424904375  0.7500000949564704  1.0000
  Cr  Cr1       1.0  2.4707647861129817e-08  1.132949962642336e-08  0.9999999912319245  1.0000
  Se  Se1       1.0  0.2616141636501412  0.2616139348738894  0.7383859431114977  1.0000
  Se  Se2       1.0  0.738386032301098  0.7383858330952018  0.26161401959264197  1.0000
  Se  Se3       1.0  0.7383858826313898  0.261614023908157  0.2616140221969233  1.0000
  Se  Se4       1.0  0.2616138596745362  0.7383859140034367  0.73838598677014  1.0000
  Se  Se5       1.0  0.26161411645170213  0.7383857054405464  0.2616139890579625  1.0000
  Se  Se6       1.0  0.7383861522620132  0.26161373208479727  0.7383857602183729  1.0000
