data_image0
_chemical_formula_structural       Mn2CS6
_chemical_formula_sum              "Mn2 C1 S6"
_cell_length_a       4.445592694153964
_cell_length_b       3.88189024985516
_cell_length_c       3.875461132981053
_cell_angle_alpha    31.886858445277664
_cell_angle_beta     91.18034362037758
_cell_angle_gamma    81.67695177793814

_space_group_name_H-M_alt    "P 1"
_space_group_IT_number       1

loop_
  _space_group_symop_operation_xyz
  'x, y, z'

loop_
  _atom_site_type_symbol
  _atom_site_label
  _atom_site_symmetry_multiplicity
  _atom_site_fract_x
  _atom_site_fract_y
  _atom_site_fract_z
  _atom_site_occupancy
  Mn  Mn1       1.0  0.20279946094294385  0.13294679337751167  0.8159493765196102  1.0000
  Mn  Mn2       1.0  0.005347931878511236  0.2547025031076497  0.5774336406549057  1.0000
  C   C1        1.0  0.8601701704393807  0.03337658623445013  0.7125857316563968  1.0000
  S   S1        1.0  0.6505567379463195  0.5537451027567855  0.2974063314743103  1.0000
  S   S2        1.0  0.779419756892307  0.9989961413383186  0.9779313268050583  1.0000
  S   S3        1.0  0.7592132017130557  0.6154334106598318  0.44065814742148646  1.0000
  S   S4        1.0  0.5934074992351225  0.7633187987906751  0.9801713770900257  1.0000
  S   S5        1.0  0.6727614346460947  0.2719388676142167  0.8625133766074758  1.0000
  S   S6        1.0  0.5509813190373338  0.5859187400576321  0.3180333993852734  1.0000
