data_image0
_chemical_formula_structural       Mn2CoSe6
_chemical_formula_sum              "Mn2 Co1 Se6"
_cell_length_a       6.454923931085259
_cell_length_b       6.454923614837828
_cell_length_c       6.454923661406364
_cell_angle_alpha    60.00000166490348
_cell_angle_beta     60.00000196275584
_cell_angle_gamma    60.00000268062444

_space_group_name_H-M_alt    "P 1"
_space_group_IT_number       1

loop_
  _space_group_symop_operation_xyz
  'x, y, z'

loop_
  _atom_site_type_symbol
  _atom_site_label
  _atom_site_symmetry_multiplicity
  _atom_site_fract_x
  _atom_site_fract_y
  _atom_site_fract_z
  _atom_site_occupancy
  Mn  Mn1       1.0  0.25000031549503776  0.24999958358956037  0.2500000488456735  1.0000
  Mn  Mn2       1.0  0.7500000006943035  0.7500000371928677  0.7499995997635318  1.0000
  Co  Co1       1.0  0.9999999646194622  4.174237803079652e-08  6.114310320338217e-09  1.0000
  Se  Se1       1.0  0.2524386486742968  0.2524385606938281  0.7475613858947366  1.0000
  Se  Se2       1.0  0.7475612376905004  0.7475615553050036  0.2524388574465683  1.0000
  Se  Se3       1.0  0.7475613424581844  0.25243853482774636  0.25243874218283213  1.0000
  Se  Se4       1.0  0.2524386844335296  0.7475614976863261  0.747561192231289  1.0000
  Se  Se5       1.0  0.25243849142923785  0.7475614937806365  0.25243873190086946  1.0000
  Se  Se6       1.0  0.7475612989319274  0.25243868483175896  0.747561436732375  1.0000
