data_image0
_chemical_formula_structural       Mn2CrTe6
_chemical_formula_sum              "Mn2 Cr1 Te6"
_cell_length_a       7.117331969767074
_cell_length_b       7.117331962665829
_cell_length_c       7.1173322631768405
_cell_angle_alpha    59.999998648606436
_cell_angle_beta     59.999997460477715
_cell_angle_gamma    59.99999849171982

_space_group_name_H-M_alt    "P 1"
_space_group_IT_number       1

loop_
  _space_group_symop_operation_xyz
  'x, y, z'

loop_
  _atom_site_type_symbol
  _atom_site_label
  _atom_site_symmetry_multiplicity
  _atom_site_fract_x
  _atom_site_fract_y
  _atom_site_fract_z
  _atom_site_occupancy
  Mn  Mn1       1.0  0.25000002164152796  0.24999983560745112  0.25000002827077655  1.0000
  Mn  Mn2       1.0  0.7499999258974076  0.7500001331906916  0.74999977229573  1.0000
  Cr  Cr1       1.0  0.9999999896106035  0.9999999776297023  1.778486799882663e-08  1.0000
  Te  Te1       1.0  0.25928822353385383  0.25928812851217786  0.7407118564408415  1.0000
  Te  Te2       1.0  0.7407118532217511  0.7407118420067587  0.259288298758157  1.0000
  Te  Te3       1.0  0.7407118222390342  0.25928811829197757  0.2592882565528402  1.0000
  Te  Te4       1.0  0.2592882306391952  0.7407118849220089  0.7407117326599271  1.0000
  Te  Te5       1.0  0.2592881422703391  0.7407118945812259  0.25928823672083745  1.0000
  Te  Te6       1.0  0.740711792418852  0.25928818090603095  0.7407118077652939  1.0000
