data_image0
_chemical_formula_structural       Mn2CdTe6
_chemical_formula_sum              "Mn2 Cd1 Te6"
_cell_length_a       7.3597485583287465
_cell_length_b       7.35974852293443
_cell_length_c       7.359748535482678
_cell_angle_alpha    59.999999982632026
_cell_angle_beta     60.00000115190451
_cell_angle_gamma    59.99999952456003

_space_group_name_H-M_alt    "P 1"
_space_group_IT_number       1

loop_
  _space_group_symop_operation_xyz
  'x, y, z'

loop_
  _atom_site_type_symbol
  _atom_site_label
  _atom_site_symmetry_multiplicity
  _atom_site_fract_x
  _atom_site_fract_y
  _atom_site_fract_z
  _atom_site_occupancy
  Mn  Mn1       1.0  0.2500001844852045  0.24999984854142182  0.24999988530278072  1.0000
  Mn  Mn2       1.0  0.7499998690249262  0.7500000315450885  0.7500001790907964  1.0000
  Cd  Cd1       1.0  0.9999999237718062  0.9999999933435512  0.9999999544828279  1.0000
  Te  Te1       1.0  0.27451418695568697  0.2745141076914097  0.7254858976689715  1.0000
  Te  Te2       1.0  0.72548579460059  0.7254860353248606  0.274513981559675  1.0000
  Te  Te3       1.0  0.7254858393743513  0.27451415211973124  0.2745141218824765  1.0000
  Te  Te4       1.0  0.27451412655784185  0.7254858777368958  0.725485908697526  1.0000
  Te  Te5       1.0  0.27451423457213076  0.7254859159358031  0.27451406203123263  1.0000
  Te  Te6       1.0  0.7254858362425269  0.27451404402810226  0.7254860026860983  1.0000
