data_image0
_chemical_formula_structural       Mn2FeTe6
_chemical_formula_sum              "Mn2 Fe1 Te6"
_cell_length_a       7.027517200558815
_cell_length_b       7.027517106477228
_cell_length_c       7.027517208833406
_cell_angle_alpha    59.99999944316155
_cell_angle_beta     59.99999866391025
_cell_angle_gamma    60.00000008110143

_space_group_name_H-M_alt    "P 1"
_space_group_IT_number       1

loop_
  _space_group_symop_operation_xyz
  'x, y, z'

loop_
  _atom_site_type_symbol
  _atom_site_label
  _atom_site_symmetry_multiplicity
  _atom_site_fract_x
  _atom_site_fract_y
  _atom_site_fract_z
  _atom_site_occupancy
  Mn  Mn1       1.0  0.24999984836712283  0.2499995114824052  0.25000058010507475  1.0000
  Mn  Mn2       1.0  0.750000076233394  0.7500000071002255  0.7500003627565981  1.0000
  Fe  Fe1       1.0  3.243230828839173e-08  0.999999907632415  0.999999958818755  1.0000
  Te  Te1       1.0  0.24378872949572633  0.2437887466605166  0.7562112182933989  1.0000
  Te  Te2       1.0  0.7562112081896064  0.7562113784111599  0.2437885866083442  1.0000
  Te  Te3       1.0  0.7562113471077819  0.24378879908882753  0.24378863087835076  1.0000
  Te  Te4       1.0  0.24378853382589888  0.7562116884820498  0.7562109172722487  1.0000
  Te  Te5       1.0  0.24378886365324196  0.7562113500488008  0.24378863316392785  1.0000
  Te  Te6       1.0  0.7562113607995432  0.24378861468669305  0.756211114214088  1.0000
