data_image0
_chemical_formula_structural       Mn2GeS6
_chemical_formula_sum              "Mn2 Ge1 S6"
_cell_length_a       6.335812946714003
_cell_length_b       6.335812731703436
_cell_length_c       6.335812867516658
_cell_angle_alpha    59.99999850202106
_cell_angle_beta     60.000000175479876
_cell_angle_gamma    59.9999988146335

_space_group_name_H-M_alt    "P 1"
_space_group_IT_number       1

loop_
  _space_group_symop_operation_xyz
  'x, y, z'

loop_
  _atom_site_type_symbol
  _atom_site_label
  _atom_site_symmetry_multiplicity
  _atom_site_fract_x
  _atom_site_fract_y
  _atom_site_fract_z
  _atom_site_occupancy
  Mn  Mn1       1.0  0.2500002446769135  0.2499999419417689  0.24999990415726547  1.0000
  Mn  Mn2       1.0  0.7500000149938427  0.7499996537837684  0.7500002669157483  1.0000
  Ge  Ge1       1.0  7.308959827798156e-09  0.9999999671381332  4.118638364885829e-08  1.0000
  S   S1        1.0  0.25786805070470137  0.25786833686392674  0.7421318061846991  1.0000
  S   S2        1.0  0.7421318050061129  0.7421318310446995  0.25786815293205356  1.0000
  S   S3        1.0  0.7421316811594877  0.25786831034098046  0.25786808561614266  1.0000
  S   S4        1.0  0.2578682267973503  0.7421317937769643  0.7421317987781375  1.0000
  S   S5        1.0  0.25786827671432366  0.7421318170027135  0.25786810035992724  1.0000
  S   S6        1.0  0.7421316903899647  0.25786833930760633  0.7421318830407253  1.0000
