data_image0
_chemical_formula_structural       Mn2GeN6
_chemical_formula_sum              "Mn2 Ge1 N6"
_cell_length_a       5.796508360405626
_cell_length_b       5.742760206206991
_cell_length_c       6.792773151098709
_cell_angle_alpha    53.98265600236331
_cell_angle_beta     53.30731306113594
_cell_angle_gamma    62.821667395708126

_space_group_name_H-M_alt    "P 1"
_space_group_IT_number       1

loop_
  _space_group_symop_operation_xyz
  'x, y, z'

loop_
  _atom_site_type_symbol
  _atom_site_label
  _atom_site_symmetry_multiplicity
  _atom_site_fract_x
  _atom_site_fract_y
  _atom_site_fract_z
  _atom_site_occupancy
  Mn  Mn1       1.0  0.454899655018068  0.1152666183640643  0.4572392604251632  1.0000
  Mn  Mn2       1.0  0.8836970323782992  0.5456978530777992  0.5468288539160707  1.0000
  Ge  Ge1       1.0  0.11839213097484064  0.8770580373787712  0.9982764617026055  1.0000
  N   N1        1.0  0.0814553311131629  0.21231837139159856  0.7006882861049264  1.0000
  N   N2        1.0  0.7882855968876237  0.9143007609520144  0.30224537244393096  1.0000
  N   N3        1.0  0.6171226679867293  0.282617191144726  0.4858323341053442  1.0000
  N   N4        1.0  0.2526736206539008  0.9172890061511146  0.4209034660594554  1.0000
  N   N5        1.0  0.09271460125819449  0.7581176969718632  0.5588331436626954  1.0000
  N   N6        1.0  0.7107584155168023  0.37733468036185647  0.5291555979896634  1.0000
