data_image0
_chemical_formula_structural       Mn2GeSe6
_chemical_formula_sum              "Mn2 Ge1 Se6"
_cell_length_a       6.652698144918646
_cell_length_b       6.652698163496873
_cell_length_c       6.6526981610282485
_cell_angle_alpha    60.00000058514319
_cell_angle_beta     59.99999993141983
_cell_angle_gamma    60.000000185899815

_space_group_name_H-M_alt    "P 1"
_space_group_IT_number       1

loop_
  _space_group_symop_operation_xyz
  'x, y, z'

loop_
  _atom_site_type_symbol
  _atom_site_label
  _atom_site_symmetry_multiplicity
  _atom_site_fract_x
  _atom_site_fract_y
  _atom_site_fract_z
  _atom_site_occupancy
  Mn  Mn1       1.0  0.2500000081471704  0.2500003958756457  0.2499997193485229  1.0000
  Mn  Mn2       1.0  0.7500001973821717  0.7499999762656253  0.7500003401448243  1.0000
  Ge  Ge1       1.0  0.9999999633761156  0.9999999484527105  1.1022416528528232e-07  1.0000
  Se  Se1       1.0  0.26094715604906726  0.2609471730565987  0.7390528830427233  1.0000
  Se  Se2       1.0  0.7390530117224959  0.739052812479994  0.2609469031145581  1.0000
  Se  Se3       1.0  0.7390528596318984  0.2609471965216549  0.26094702008475706  1.0000
  Se  Se4       1.0  0.2609469424902185  0.7390526675106119  0.7390530231777552  1.0000
  Se  Se5       1.0  0.26094709777944586  0.7390527638391576  0.2609470863112416  1.0000
  Se  Se6       1.0  0.7390527599027373  0.2609470688965401  0.7390529207691301  1.0000
