data_image0
_chemical_formula_structural       Mn2GeO6
_chemical_formula_sum              "Mn2 Ge1 O6"
_cell_length_a       5.192665425267325
_cell_length_b       5.192665063635679
_cell_length_c       5.192664489215691
_cell_angle_alpha    60.000004549216804
_cell_angle_beta     60.00000261721826
_cell_angle_gamma    60.000001138855765

_space_group_name_H-M_alt    "P 1"
_space_group_IT_number       1

loop_
  _space_group_symop_operation_xyz
  'x, y, z'

loop_
  _atom_site_type_symbol
  _atom_site_label
  _atom_site_symmetry_multiplicity
  _atom_site_fract_x
  _atom_site_fract_y
  _atom_site_fract_z
  _atom_site_occupancy
  Mn  Mn1       1.0  0.24999988149117353  0.25000016163317273  0.24999995172645548  1.0000
  Mn  Mn2       1.0  0.750000144031029  0.7500000202542327  0.7499996412922929  1.0000
  Ge  Ge1       1.0  9.210933006807294e-10  0.9999999905655779  0.9999999946276964  1.0000
  O   O1        1.0  0.25322213531970916  0.25322213184087256  0.7467778349095645  1.0000
  O   O2        1.0  0.7467780620877503  0.7467775877598691  0.2532223481681994  1.0000
  O   O3        1.0  0.7467778290494709  0.2532219587785926  0.25322227341668013  1.0000
  O   O4        1.0  0.25322208973839994  0.7467779896068795  0.74677784791781  1.0000
  O   O5        1.0  0.2532221219577687  0.7467778628160925  0.25322218881758424  1.0000
  O   O6        1.0  0.7467778655840672  0.2532221728377832  0.7467779142053218  1.0000
