data_image0
_chemical_formula_structural       Mn2GeTe6
_chemical_formula_sum              "Mn2 Ge1 Te6"
_cell_length_a       7.260623185501045
_cell_length_b       7.26062315022995
_cell_length_c       7.260623188042918
_cell_angle_alpha    59.99999902369538
_cell_angle_beta     59.99999963611898
_cell_angle_gamma    59.99999913172837

_space_group_name_H-M_alt    "P 1"
_space_group_IT_number       1

loop_
  _space_group_symop_operation_xyz
  'x, y, z'

loop_
  _atom_site_type_symbol
  _atom_site_label
  _atom_site_symmetry_multiplicity
  _atom_site_fract_x
  _atom_site_fract_y
  _atom_site_fract_z
  _atom_site_occupancy
  Mn  Mn1       1.0  0.24999987120234252  0.2500004042462301  0.24999988295107237  1.0000
  Mn  Mn2       1.0  0.7500000751760975  0.7499996085617993  0.750000129255848  1.0000
  Ge  Ge1       1.0  1.6818660288781157e-08  3.5423464563092e-08  0.9999999545968459  1.0000
  Te  Te1       1.0  0.26665385056427304  0.2666541112495658  0.7333460280506924  1.0000
  Te  Te2       1.0  0.7333461602003433  0.7333458610745036  0.26665402041034836  1.0000
  Te  Te3       1.0  0.7333460111819352  0.26665408143772595  0.266653851006568  1.0000
  Te  Te4       1.0  0.26665398947824337  0.7333458925731754  0.7333461672309697  1.0000
  Te  Te5       1.0  0.2666540123022528  0.733345862468993  0.266653932168974  1.0000
  Te  Te6       1.0  0.7333460111686924  0.2666541385312147  0.7333460377545588  1.0000
