data_image0
_chemical_formula_structural       Mn2HgTe6
_chemical_formula_sum              "Mn2 Hg1 Te6"
_cell_length_a       7.369385457507325
_cell_length_b       7.369385506406579
_cell_length_c       7.369385429877151
_cell_angle_alpha    59.99999882412865
_cell_angle_beta     59.99999904676603
_cell_angle_gamma    59.99999966670978

_space_group_name_H-M_alt    "P 1"
_space_group_IT_number       1

loop_
  _space_group_symop_operation_xyz
  'x, y, z'

loop_
  _atom_site_type_symbol
  _atom_site_label
  _atom_site_symmetry_multiplicity
  _atom_site_fract_x
  _atom_site_fract_y
  _atom_site_fract_z
  _atom_site_occupancy
  Mn  Mn1       1.0  0.24999984670152633  0.2499998825839712  0.25000014470766635  1.0000
  Mn  Mn2       1.0  0.7500001720927308  0.7500000034062727  0.7499998222457569  1.0000
  Hg  Hg1       1.0  8.988524963752123e-09  7.644906620561587e-08  2.241553584076354e-08  1.0000
  Te  Te1       1.0  0.2762453252245733  0.27624542581100964  0.7237546312904628  1.0000
  Te  Te2       1.0  0.7237546315566792  0.7237545898102586  0.27624544976316273  1.0000
  Te  Te3       1.0  0.723754708654894  0.2762453023261286  0.2762454206217621  1.0000
  Te  Te4       1.0  0.27624533655375777  0.7237546501415646  0.7237545297389743  1.0000
  Te  Te5       1.0  0.2762452466065213  0.723754704224053  0.2762454641282751  1.0000
  Te  Te6       1.0  0.7237547223133413  0.2762453595933672  0.7237545216236365  1.0000
