data_image0
_chemical_formula_structural       Mn2HgO6
_chemical_formula_sum              "Mn2 Hg1 O6"
_cell_length_a       5.354146470601102
_cell_length_b       5.3541463848855155
_cell_length_c       5.354146426289578
_cell_angle_alpha    60.00000111645619
_cell_angle_beta     60.00000160796033
_cell_angle_gamma    60.000001315430886

_space_group_name_H-M_alt    "P 1"
_space_group_IT_number       1

loop_
  _space_group_symop_operation_xyz
  'x, y, z'

loop_
  _atom_site_type_symbol
  _atom_site_label
  _atom_site_symmetry_multiplicity
  _atom_site_fract_x
  _atom_site_fract_y
  _atom_site_fract_z
  _atom_site_occupancy
  Mn  Mn1       1.0  0.24999993389374667  0.2499999989747711  0.2500000362241762  1.0000
  Mn  Mn2       1.0  0.7499999440648475  0.7499999191503375  0.7499999680404555  1.0000
  Hg  Hg1       1.0  0.9999999851651147  0.9999999862751808  3.108925402112666e-08  1.0000
  O   O1        1.0  0.2671672558692452  0.26716723934745396  0.7328327436076014  1.0000
  O   O2        1.0  0.7328327575207666  0.7328327771388617  0.26716725395568947  1.0000
  O   O3        1.0  0.732832776011912  0.2671672065675101  0.2671672053767192  1.0000
  O   O4        1.0  0.2671672467447332  0.7328328465183238  0.7328327748066303  1.0000
  O   O5        1.0  0.26716720917988224  0.7328327592730426  0.267167205103121  1.0000
  O   O6        1.0  0.7328328917393538  0.26716726636315336  0.7328327609300207  1.0000
