data_image0
_chemical_formula_structural       Mn2InSe6
_chemical_formula_sum              "Mn2 In1 Se6"
_cell_length_a       6.712272563867076
_cell_length_b       6.7122727151355495
_cell_length_c       6.71227244431286
_cell_angle_alpha    59.99999911839422
_cell_angle_beta     59.99999962449358
_cell_angle_gamma    59.99999934120453

_space_group_name_H-M_alt    "P 1"
_space_group_IT_number       1

loop_
  _space_group_symop_operation_xyz
  'x, y, z'

loop_
  _atom_site_type_symbol
  _atom_site_label
  _atom_site_symmetry_multiplicity
  _atom_site_fract_x
  _atom_site_fract_y
  _atom_site_fract_z
  _atom_site_occupancy
  Mn  Mn1       1.0  0.2500001705321054  0.2499997544620417  0.2500004676854576  1.0000
  Mn  Mn2       1.0  0.7500000963340107  0.7500000808227065  0.7500000041632549  1.0000
  In  In1       1.0  8.151265837887815e-09  0.9999999032943357  7.25835607586161e-08  1.0000
  Se  Se1       1.0  0.28304130133545546  0.2830413208917276  0.7169585309688302  1.0000
  Se  Se2       1.0  0.7169587497259937  0.7169587953868517  0.2830412214836158  1.0000
  Se  Se3       1.0  0.7169585300537304  0.28304123172204976  0.28304136135870833  1.0000
  Se  Se4       1.0  0.2830411396773932  0.7169589447694921  0.7169585620810798  1.0000
  Se  Se5       1.0  0.2830412805700494  0.7169587205363109  0.28304119289479523  1.0000
  Se  Se6       1.0  0.7169587279733627  0.28304124977145717  0.7169585822912734  1.0000
