data_image0
_chemical_formula_structural       Mn2InTe6
_chemical_formula_sum              "Mn2 In1 Te6"
_cell_length_a       7.423502241464493
_cell_length_b       7.423502164136766
_cell_length_c       7.423502277965822
_cell_angle_alpha    60.00000033354244
_cell_angle_beta     60.00000093891789
_cell_angle_gamma    60.00000023013982

_space_group_name_H-M_alt    "P 1"
_space_group_IT_number       1

loop_
  _space_group_symop_operation_xyz
  'x, y, z'

loop_
  _atom_site_type_symbol
  _atom_site_label
  _atom_site_symmetry_multiplicity
  _atom_site_fract_x
  _atom_site_fract_y
  _atom_site_fract_z
  _atom_site_occupancy
  Mn  Mn1       1.0  0.2500000374919625  0.24999999856974373  0.24999985915110406  1.0000
  Mn  Mn2       1.0  0.7500000031108652  0.7499997218389712  0.7500001516397025  1.0000
  In  In1       1.0  6.866159233880391e-09  0.9999999934007167  1.3337292765864782e-08  1.0000
  Te  Te1       1.0  0.2726168865548566  0.2726170142795894  0.7273830740647079  1.0000
  Te  Te2       1.0  0.7273830622375441  0.7273830888875645  0.2726169003650129  1.0000
  Te  Te3       1.0  0.7273830876354371  0.2726170382143156  0.27261683312386803  1.0000
  Te  Te4       1.0  0.27261697289982834  0.727383023707317  0.7273831208749856  1.0000
  Te  Te5       1.0  0.27261694272413106  0.7273831037568745  0.27261690828288404  1.0000
  Te  Te6       1.0  0.7273830001132822  0.2726170126088467  0.7273831366140658  1.0000
