data_image0
_chemical_formula_structural       Mn2MgTe6
_chemical_formula_sum              "Mn2 Mg1 Te6"
_cell_length_a       7.286661692949217
_cell_length_b       7.286662697434719
_cell_length_c       7.2866622185679955
_cell_angle_alpha    59.99999383807246
_cell_angle_beta     59.999996717127274
_cell_angle_gamma    59.99998423944208

_space_group_name_H-M_alt    "P 1"
_space_group_IT_number       1

loop_
  _space_group_symop_operation_xyz
  'x, y, z'

loop_
  _atom_site_type_symbol
  _atom_site_label
  _atom_site_symmetry_multiplicity
  _atom_site_fract_x
  _atom_site_fract_y
  _atom_site_fract_z
  _atom_site_occupancy
  Mn  Mn1       1.0  0.25000022686328555  0.25000008813672153  0.24999990337961378  1.0000
  Mn  Mn2       1.0  0.7500003257899894  0.7499998122739918  0.7500003620059459  1.0000
  Mg  Mg1       1.0  0.9999998448006059  0.9999998285580836  0.9999997186726373  1.0000
  Te  Te1       1.0  0.27152239028909864  0.2715226436615143  0.7284776920892205  1.0000
  Te  Te2       1.0  0.7284775210750004  0.7284776735886485  0.2715225194643544  1.0000
  Te  Te3       1.0  0.7284773513523924  0.2715226503278373  0.27152229987264737  1.0000
  Te  Te4       1.0  0.27152195341535923  0.7284777324738295  0.7284775385616021  1.0000
  Te  Te5       1.0  0.2715225148921337  0.7284774581153959  0.27152250535279576  1.0000
  Te  Te6       1.0  0.7284778702057032  0.2715221985788485  0.7284774482850696  1.0000
