data_image0
_chemical_formula_structural       Mn2MgO6
_chemical_formula_sum              "Mn2 Mg1 O6"
_cell_length_a       5.172499382321271
_cell_length_b       5.172498899384483
_cell_length_c       5.172499394134935
_cell_angle_alpha    60.000000142466355
_cell_angle_beta     59.99999877075693
_cell_angle_gamma    59.999999458075436

_space_group_name_H-M_alt    "P 1"
_space_group_IT_number       1

loop_
  _space_group_symop_operation_xyz
  'x, y, z'

loop_
  _atom_site_type_symbol
  _atom_site_label
  _atom_site_symmetry_multiplicity
  _atom_site_fract_x
  _atom_site_fract_y
  _atom_site_fract_z
  _atom_site_occupancy
  Mn  Mn1       1.0  0.24999982112600355  0.25000001417271894  0.25000004638581363  1.0000
  Mn  Mn2       1.0  0.7499999197090526  0.7500000330469623  0.75000001239258  1.0000
  Mg  Mg1       1.0  0.9999999791192781  2.367797306838752e-09  0.9999999241912036  1.0000
  O   O1        1.0  0.2627602516059699  0.2627602623797347  0.7372397484162083  1.0000
  O   O2        1.0  0.7372397951121779  0.7372397043347148  0.26276026727209884  1.0000
  O   O3        1.0  0.7372398387167358  0.2627602088392386  0.26276025903390104  1.0000
  O   O4        1.0  0.26276032776088587  0.7372397602430159  0.7372397516565043  1.0000
  O   O5        1.0  0.26276025594243724  0.7372398114232293  0.26276023032350715  1.0000
  O   O6        1.0  0.7372398197734692  0.26276019554384006  0.7372397546062142  1.0000
