data_image0
_chemical_formula_structural       Mn2NiS6
_chemical_formula_sum              "Mn2 Ni1 S6"
_cell_length_a       6.100034772512332
_cell_length_b       6.100034498490981
_cell_length_c       6.100034969770967
_cell_angle_alpha    60.00000004132891
_cell_angle_beta     59.999999372775925
_cell_angle_gamma    60.00000098789309

_space_group_name_H-M_alt    "P 1"
_space_group_IT_number       1

loop_
  _space_group_symop_operation_xyz
  'x, y, z'

loop_
  _atom_site_type_symbol
  _atom_site_label
  _atom_site_symmetry_multiplicity
  _atom_site_fract_x
  _atom_site_fract_y
  _atom_site_fract_z
  _atom_site_occupancy
  Mn  Mn1       1.0  0.24999971455561748  0.2500003782161236  0.2499999618346796  1.0000
  Mn  Mn2       1.0  0.750000239798416  0.7499997713745282  0.7500003026800867  1.0000
  Ni  Ni1       1.0  0.9999999885275286  6.0233002978772165e-09  0.9999999732165581  1.0000
  S   S1        1.0  0.25072252187114935  0.2507226200795146  0.7492774790836231  1.0000
  S   S2        1.0  0.7492775802898839  0.749277256454801  0.25072244477942995  1.0000
  S   S3        1.0  0.7492775177684686  0.2507226816392568  0.2507223400847612  1.0000
  S   S4        1.0  0.2507223669503341  0.7492773474853545  0.749277586696234  1.0000
  S   S5        1.0  0.2507225248486203  0.7492774179674835  0.25072251420319297  1.0000
  S   S6        1.0  0.7492775556665794  0.2507225348619825  0.7492773938105469  1.0000
