data_image0
_chemical_formula_structural       Mn2NbTe6
_chemical_formula_sum              "Mn2 Nb1 Te6"
_cell_length_a       7.33828994827509
_cell_length_b       7.338289953084363
_cell_length_c       7.338289841356392
_cell_angle_alpha    60.00000088291438
_cell_angle_beta     59.999999820601474
_cell_angle_gamma    60.00000001603559

_space_group_name_H-M_alt    "P 1"
_space_group_IT_number       1

loop_
  _space_group_symop_operation_xyz
  'x, y, z'

loop_
  _atom_site_type_symbol
  _atom_site_label
  _atom_site_symmetry_multiplicity
  _atom_site_fract_x
  _atom_site_fract_y
  _atom_site_fract_z
  _atom_site_occupancy
  Mn  Mn1       1.0  0.24999994417773233  0.2500000577760401  0.25000007198432056  1.0000
  Mn  Mn2       1.0  0.7500001491805828  0.7500000164441317  0.7499997858534233  1.0000
  Nb  Nb1       1.0  0.9999999996673288  0.9999999349098357  0.9999999713892281  1.0000
  Te  Te1       1.0  0.2627369777535967  0.26273706126876295  0.7372629906455478  1.0000
  Te  Te2       1.0  0.7372630220684623  0.7372629395163539  0.2627371169291211  1.0000
  Te  Te3       1.0  0.737262954058889  0.26273697402082286  0.2627370618187086  1.0000
  Te  Te4       1.0  0.2627369644796592  0.7372630534679508  0.7372629953711145  1.0000
  Te  Te5       1.0  0.26273696108984906  0.7372629551100683  0.2627370306090946  1.0000
  Te  Te6       1.0  0.7372630294983201  0.26273700728854094  0.7372629726805328  1.0000
