data_image0
_chemical_formula_structural       Mn2NbS6
_chemical_formula_sum              "Mn2 Nb1 S6"
_cell_length_a       6.2977467611263585
_cell_length_b       6.297746450586613
_cell_length_c       6.29774629115683
_cell_angle_alpha    60.000002869476454
_cell_angle_beta     60.00000151125198
_cell_angle_gamma    60.000001496609876

_space_group_name_H-M_alt    "P 1"
_space_group_IT_number       1

loop_
  _space_group_symop_operation_xyz
  'x, y, z'

loop_
  _atom_site_type_symbol
  _atom_site_label
  _atom_site_symmetry_multiplicity
  _atom_site_fract_x
  _atom_site_fract_y
  _atom_site_fract_z
  _atom_site_occupancy
  Mn  Mn1       1.0  0.2500001433293875  0.24999963089800376  0.25000012832190516  1.0000
  Mn  Mn2       1.0  0.7500000537836179  0.7500000323087548  0.7499998206556301  1.0000
  Nb  Nb1       1.0  0.9999999572349131  9.529201682210095e-08  0.9999999245125787  1.0000
  S   S1        1.0  0.26517448165614654  0.2651745734976629  0.7348254616902615  1.0000
  S   S2        1.0  0.7348253664884243  0.7348255700586594  0.26517456768072384  1.0000
  S   S3        1.0  0.7348255001989754  0.2651744694431565  0.2651745553047446  1.0000
  S   S4        1.0  0.2651745147413716  0.7348255807658843  0.734825462747905  1.0000
  S   S5        1.0  0.2651744876639993  0.7348255215744899  0.26517460169245016  1.0000
  S   S6        1.0  0.7348254994590598  0.2651745130766715  0.734825484096002  1.0000
