data_image0
_chemical_formula_structural       Mn2NiO6
_chemical_formula_sum              "Mn2 Ni1 O6"
_cell_length_a       5.135061052801868
_cell_length_b       5.135061136524915
_cell_length_c       5.135061165451888
_cell_angle_alpha    59.99999995849574
_cell_angle_beta     60.00000004071182
_cell_angle_gamma    59.999999598125044

_space_group_name_H-M_alt    "P 1"
_space_group_IT_number       1

loop_
  _space_group_symop_operation_xyz
  'x, y, z'

loop_
  _atom_site_type_symbol
  _atom_site_label
  _atom_site_symmetry_multiplicity
  _atom_site_fract_x
  _atom_site_fract_y
  _atom_site_fract_z
  _atom_site_occupancy
  Mn  Mn1       1.0  0.25000006970188837  0.24999988441163185  0.250000041660627  1.0000
  Mn  Mn2       1.0  0.7500000759981054  0.7499999513678787  0.7500000853118911  1.0000
  Ni  Ni1       1.0  0.9999999577548838  0.9999998568961691  0.9999998356181388  1.0000
  O   O1        1.0  0.24835429283440497  0.2483543447639452  0.751645724692183  1.0000
  O   O2        1.0  0.7516457254127745  0.7516458463900814  0.24835418316007452  1.0000
  O   O3        1.0  0.7516456045683304  0.24835439141410082  0.2483543681857687  1.0000
  O   O4        1.0  0.24835423646733992  0.7516457377282667  0.7516457157525694  1.0000
  O   O5        1.0  0.24835430328286698  0.7516457145087828  0.24835432960084472  1.0000
  O   O6        1.0  0.7516457092667753  0.24835426437456035  0.7516457320256418  1.0000
