data_image0
_chemical_formula_structural       Mn2NiTe6
_chemical_formula_sum              "Mn2 Ni1 Te6"
_cell_length_a       7.041418738508001
_cell_length_b       7.041418565801853
_cell_length_c       7.0414187023904065
_cell_angle_alpha    59.99999983165975
_cell_angle_beta     60.00000031997452
_cell_angle_gamma    59.99999926470972

_space_group_name_H-M_alt    "P 1"
_space_group_IT_number       1

loop_
  _space_group_symop_operation_xyz
  'x, y, z'

loop_
  _atom_site_type_symbol
  _atom_site_label
  _atom_site_symmetry_multiplicity
  _atom_site_fract_x
  _atom_site_fract_y
  _atom_site_fract_z
  _atom_site_occupancy
  Mn  Mn1       1.0  0.25000012577934694  0.2500003465314462  0.2499998472229098  1.0000
  Mn  Mn2       1.0  0.7499999982132921  0.7500000812158208  0.7499998511177655  1.0000
  Ni  Ni1       1.0  0.9999999770247643  2.9568847119921405e-08  0.9999999682998273  1.0000
  Te  Te1       1.0  0.25571013047565333  0.25571002546679683  0.7442899143734785  1.0000
  Te  Te2       1.0  0.7442900005655612  0.744289889174005  0.25571013498775613  1.0000
  Te  Te3       1.0  0.7442897948418262  0.25571002263991255  0.2557100947826492  1.0000
  Te  Te4       1.0  0.2557100702109572  0.7442897945976283  0.7442900581651714  1.0000
  Te  Te5       1.0  0.25571001771123686  0.7442897383337992  0.25571012669379745  1.0000
  Te  Te6       1.0  0.7442898836176176  0.2557100684676778  0.7442900005525043  1.0000
