data_image0
_chemical_formula_structural       Mn2PN6
_chemical_formula_sum              "Mn2 P1 N6"
_cell_length_a       4.777450539551199
_cell_length_b       4.777450523972748
_cell_length_c       4.777450520613762
_cell_angle_alpha    60.00000056036999
_cell_angle_beta     59.999999811808074
_cell_angle_gamma    60.00000000423994

_space_group_name_H-M_alt    "P 1"
_space_group_IT_number       1

loop_
  _space_group_symop_operation_xyz
  'x, y, z'

loop_
  _atom_site_type_symbol
  _atom_site_label
  _atom_site_symmetry_multiplicity
  _atom_site_fract_x
  _atom_site_fract_y
  _atom_site_fract_z
  _atom_site_occupancy
  Mn  Mn1       1.0  0.2500000057641925  0.25000002363673796  0.24999998773996163  1.0000
  Mn  Mn2       1.0  0.7500000423672255  0.7499999811843863  0.7500000101976406  1.0000
  P   P1        1.0  0.9999999926024439  7.69078495882969e-09  0.9999999600832197  1.0000
  N   N1        1.0  0.2487047413651781  0.2487047965102261  0.7512952271568576  1.0000
  N   N2        1.0  0.7512952399453143  0.7512952057473027  0.24870474686433963  1.0000
  N   N3        1.0  0.751295269688696  0.24870475000959344  0.24870478379082228  1.0000
  N   N4        1.0  0.24870472002049865  0.7512952343027701  0.7512952410532722  1.0000
  N   N5        1.0  0.2487047649496858  0.751295220381765  0.248704789575073  1.0000
  N   N6        1.0  0.7512952059849666  0.2487047767485741  0.7512952466199716  1.0000
