data_image0
_chemical_formula_structural       Mn2PtS6
_chemical_formula_sum              "Mn2 Pt1 S6"
_cell_length_a       6.215146742289865
_cell_length_b       6.215147210990525
_cell_length_c       6.2151467322024105
_cell_angle_alpha    60.00000079960419
_cell_angle_beta     59.999999588763345
_cell_angle_gamma    60.00000065028583

_space_group_name_H-M_alt    "P 1"
_space_group_IT_number       1

loop_
  _space_group_symop_operation_xyz
  'x, y, z'

loop_
  _atom_site_type_symbol
  _atom_site_label
  _atom_site_symmetry_multiplicity
  _atom_site_fract_x
  _atom_site_fract_y
  _atom_site_fract_z
  _atom_site_occupancy
  Mn  Mn1       1.0  0.25000002515830666  0.25000001363791563  0.2499999867006278  1.0000
  Mn  Mn2       1.0  0.7500000286931005  0.7499998635614938  0.7500000432074179  1.0000
  Pt  Pt1       1.0  0.9999999820973818  0.9999999645295486  6.691084710940854e-08  1.0000
  S   S1        1.0  0.2614064982960162  0.261406560527017  0.7385934964313705  1.0000
  S   S2        1.0  0.7385934728296741  0.7385934979658083  0.26140650189152054  1.0000
  S   S3        1.0  0.7385934496466344  0.26140656966899173  0.2614064794086137  1.0000
  S   S4        1.0  0.2614065430234083  0.738593463206287  0.7385934356753338  1.0000
  S   S5        1.0  0.2614065667630586  0.7385934600041487  0.2614065273670783  1.0000
  S   S6        1.0  0.7385934388928186  0.2614066063709981  0.7385934771020904  1.0000
