data_image0
_chemical_formula_structural       Mn2PdO6
_chemical_formula_sum              "Mn2 Pd1 O6"
_cell_length_a       5.05365065323643
_cell_length_b       5.053650625840629
_cell_length_c       5.053650833817101
_cell_angle_alpha    59.999996275494446
_cell_angle_beta     59.99999738420487
_cell_angle_gamma    59.99999841317237

_space_group_name_H-M_alt    "P 1"
_space_group_IT_number       1

loop_
  _space_group_symop_operation_xyz
  'x, y, z'

loop_
  _atom_site_type_symbol
  _atom_site_label
  _atom_site_symmetry_multiplicity
  _atom_site_fract_x
  _atom_site_fract_y
  _atom_site_fract_z
  _atom_site_occupancy
  Mn  Mn1       1.0  0.2500001397587826  0.25000030262242096  0.2499997326719694  1.0000
  Mn  Mn2       1.0  0.7499998361641687  0.7499998536510388  0.7500006380131281  1.0000
  Pd  Pd1       1.0  8.862333160101167e-09  1.4540913044877175e-08  0.999999998192214  1.0000
  O   O1        1.0  0.26485298641882704  0.2648533211017739  0.7351468260117658  1.0000
  O   O2        1.0  0.7351471069361635  0.7351466679511992  0.26485292251058645  1.0000
  O   O3        1.0  0.7351468443210577  0.2648530710849623  0.26485303925790343  1.0000
  O   O4        1.0  0.2648531285370446  0.7351468064876734  0.7351469162763696  1.0000
  O   O5        1.0  0.26485326872586806  0.7351469546772055  0.2648528522745993  1.0000
  O   O6        1.0  0.7351466421156025  0.2648530198348506  0.7351470976708834  1.0000
