data_image0
_chemical_formula_structural       Mn2PbTe6
_chemical_formula_sum              "Mn2 Pb1 Te6"
_cell_length_a       7.551166375883627
_cell_length_b       7.5511662142924845
_cell_length_c       7.551166447830138
_cell_angle_alpha    59.99999965971652
_cell_angle_beta     60.000000357651196
_cell_angle_gamma    59.99999968088501

_space_group_name_H-M_alt    "P 1"
_space_group_IT_number       1

loop_
  _space_group_symop_operation_xyz
  'x, y, z'

loop_
  _atom_site_type_symbol
  _atom_site_label
  _atom_site_symmetry_multiplicity
  _atom_site_fract_x
  _atom_site_fract_y
  _atom_site_fract_z
  _atom_site_occupancy
  Mn  Mn1       1.0  0.2500000367503777  0.2499998928689585  0.2500001935003727  1.0000
  Mn  Mn2       1.0  0.7500000721860589  0.7500000175898484  0.7499998089460744  1.0000
  Pb  Pb1       1.0  8.957662304744389e-10  6.487712624409537e-09  2.676713098366926e-08  1.0000
  Te  Te1       1.0  0.28212986468721324  0.282129830874208  0.7178700706419637  1.0000
  Te  Te2       1.0  0.7178700772120076  0.7178702320458414  0.2821299271737815  1.0000
  Te  Te3       1.0  0.7178700633166546  0.28212980288703593  0.2821299205255251  1.0000
  Te  Te4       1.0  0.28212985224749415  0.7178702243505946  0.717870036786835  1.0000
  Te  Te5       1.0  0.2821298305877765  0.7178701199042483  0.2821299287374935  1.0000
  Te  Te6       1.0  0.7178702049935886  0.2821298684071081  0.717870088676098  1.0000
