data_image0
_chemical_formula_structural       Mn2PbS6
_chemical_formula_sum              "Mn2 Pb1 S6"
_cell_length_a       6.446699701405382
_cell_length_b       6.446699624318332
_cell_length_c       6.44669968310975
_cell_angle_alpha    59.9999984591692
_cell_angle_beta     59.999999254445676
_cell_angle_gamma    59.99999807758422

_space_group_name_H-M_alt    "P 1"
_space_group_IT_number       1

loop_
  _space_group_symop_operation_xyz
  'x, y, z'

loop_
  _atom_site_type_symbol
  _atom_site_label
  _atom_site_symmetry_multiplicity
  _atom_site_fract_x
  _atom_site_fract_y
  _atom_site_fract_z
  _atom_site_occupancy
  Mn  Mn1       1.0  0.2499997677106187  0.24999996323111107  0.2500001117465363  1.0000
  Mn  Mn2       1.0  0.7500000108720111  0.7499998459978952  0.7499999473747196  1.0000
  Pb  Pb1       1.0  3.140876995962679e-08  0.9999999810019854  1.7062341785481826e-08  1.0000
  S   S1        1.0  0.27490967094921687  0.27490980585505087  0.7250902536945835  1.0000
  S   S2        1.0  0.7250903756507855  0.725090225650714  0.27490979450797953  1.0000
  S   S3        1.0  0.7250903384885908  0.27490975277274726  0.2749096956803146  1.0000
  S   S4        1.0  0.27490976645879756  0.7250903186288473  0.7250902258415747  1.0000
  S   S5        1.0  0.2749096792759438  0.7250903444225428  0.2749097218970641  1.0000
  S   S6        1.0  0.7250903784496379  0.27490976117547716  0.7250902247516914  1.0000
