data_image0
_chemical_formula_structural       Mn2PtO6
_chemical_formula_sum              "Mn2 Pt1 O6"
_cell_length_a       5.2540003651235345
_cell_length_b       5.254000513345708
_cell_length_c       5.2540001356349055
_cell_angle_alpha    59.99999942760679
_cell_angle_beta     59.999999959630166
_cell_angle_gamma    59.9999997218135

_space_group_name_H-M_alt    "P 1"
_space_group_IT_number       1

loop_
  _space_group_symop_operation_xyz
  'x, y, z'

loop_
  _atom_site_type_symbol
  _atom_site_label
  _atom_site_symmetry_multiplicity
  _atom_site_fract_x
  _atom_site_fract_y
  _atom_site_fract_z
  _atom_site_occupancy
  Mn  Mn1       1.0  0.2500000222839553  0.24999979391477625  0.25000016958427307  1.0000
  Mn  Mn2       1.0  0.7499999448552193  0.749999978498532  0.7500002656640938  1.0000
  Pt  Pt1       1.0  0.999999988390391  0.9999999557096491  2.985329284982107e-08  1.0000
  O   O1        1.0  0.26229841863883196  0.2622984085051584  0.7377016584048289  1.0000
  O   O2        1.0  0.7377016141853106  0.7377015690424135  0.2622983882934589  1.0000
  O   O3        1.0  0.7377015251171511  0.2622984243417144  0.2622984079066395  1.0000
  O   O4        1.0  0.2622983931989246  0.7377017187119124  0.7377013944118047  1.0000
  O   O5        1.0  0.26229851238403645  0.7377017319448452  0.262298234270777  1.0000
  O   O6        1.0  0.7377015702303975  0.2622984390816344  0.7377014528789421  1.0000
