data_image0
_chemical_formula_structural       Mn2SrSe6
_chemical_formula_sum              "Mn2 Sr1 Se6"
_cell_length_a       7.036947774374538
_cell_length_b       7.036947691039859
_cell_length_c       7.036947777383121
_cell_angle_alpha    59.999999327707705
_cell_angle_beta     60.00000132280604
_cell_angle_gamma    60.000000219023235

_space_group_name_H-M_alt    "P 1"
_space_group_IT_number       1

loop_
  _space_group_symop_operation_xyz
  'x, y, z'

loop_
  _atom_site_type_symbol
  _atom_site_label
  _atom_site_symmetry_multiplicity
  _atom_site_fract_x
  _atom_site_fract_y
  _atom_site_fract_z
  _atom_site_occupancy
  Mn  Mn1       1.0  0.2500000660006938  0.25000007580732153  0.24999992135709792  1.0000
  Mn  Mn2       1.0  0.7500001001192855  0.7499997383557846  0.7500001229150319  1.0000
  Sr  Sr1       1.0  5.4084682095494186e-08  0.9999999460460803  0.9999999857239129  1.0000
  Se  Se1       1.0  0.2908143499792355  0.2908147453726358  0.7091854451013216  1.0000
  Se  Se2       1.0  0.7091854641353132  0.7091853716286008  0.29081454843770926  1.0000
  Se  Se3       1.0  0.7091853807836594  0.29081470954724203  0.2908143352097338  1.0000
  Se  Se4       1.0  0.29081444072206036  0.7091854788124061  0.7091854981634995  1.0000
  Se  Se5       1.0  0.2908147055750138  0.709185322068195  0.2908146201189006  1.0000
  Se  Se6       1.0  0.7091854401060353  0.29081461740724013  0.709185522350019  1.0000
