data_image0
_chemical_formula_structural       Mn2SnSe6
_chemical_formula_sum              "Mn2 Sn1 Se6"
_cell_length_a       6.798907964205625
_cell_length_b       6.798908040242549
_cell_length_c       6.798908016786383
_cell_angle_alpha    60.00000036268707
_cell_angle_beta     60.00000120735868
_cell_angle_gamma    60.00000086433853

_space_group_name_H-M_alt    "P 1"
_space_group_IT_number       1

loop_
  _space_group_symop_operation_xyz
  'x, y, z'

loop_
  _atom_site_type_symbol
  _atom_site_label
  _atom_site_symmetry_multiplicity
  _atom_site_fract_x
  _atom_site_fract_y
  _atom_site_fract_z
  _atom_site_occupancy
  Mn  Mn1       1.0  0.25000014961513883  0.24999975101743743  0.25000015905354195  1.0000
  Mn  Mn2       1.0  0.7500002552377149  0.7499999357770996  0.7499995824976847  1.0000
  Sn  Sn1       1.0  1.0893655125382685e-08  0.9999999927944614  9.922537292811075e-09  1.0000
  Se  Se1       1.0  0.2720099816259896  0.27201019158095524  0.727989918858889  1.0000
  Se  Se2       1.0  0.7279898216386499  0.7279899599708212  0.2720102308682622  1.0000
  Se  Se3       1.0  0.7279897770832068  0.27201000999200414  0.2720102403319734  1.0000
  Se  Se4       1.0  0.2720101770295892  0.727989979435154  0.7279897576551964  1.0000
  Se  Se5       1.0  0.27200993452571226  0.7279899734658917  0.2720102507001437  1.0000
  Se  Se6       1.0  0.7279898924983155  0.2720102087094241  0.7279898424190555  1.0000
