data_image0
_chemical_formula_structural       Mn2SeS6
_chemical_formula_sum              "Mn2 Se1 S6"
_cell_length_a       6.302652641762073
_cell_length_b       6.302652429060919
_cell_length_c       6.302653217278588
_cell_angle_alpha    59.99999581661907
_cell_angle_beta     59.99999571819931
_cell_angle_gamma    59.999997190485985

_space_group_name_H-M_alt    "P 1"
_space_group_IT_number       1

loop_
  _space_group_symop_operation_xyz
  'x, y, z'

loop_
  _atom_site_type_symbol
  _atom_site_label
  _atom_site_symmetry_multiplicity
  _atom_site_fract_x
  _atom_site_fract_y
  _atom_site_fract_z
  _atom_site_occupancy
  Mn  Mn1       1.0  0.2499998272737606  0.2500000244885059  0.25000017340881797  1.0000
  Mn  Mn2       1.0  0.7500000758493863  0.7499996984237831  0.7499997776665432  1.0000
  Se  Se1       1.0  0.999999962637524  0.9999999417033579  2.8582456698437595e-07  1.0000
  S   S1        1.0  0.24965242692313647  0.24965259804708223  0.7503475346652673  1.0000
  S   S2        1.0  0.7503475644860897  0.7503474590992952  0.2496527319122923  1.0000
  S   S3        1.0  0.7503475470723522  0.24965251074195086  0.24965243514084168  1.0000
  S   S4        1.0  0.24965275825564556  0.750347385117048  0.7503472854775372  1.0000
  S   S5        1.0  0.24965237962278097  0.750347561770563  0.24965252016095899  1.0000
  S   S6        1.0  0.7503474739860704  0.24965280434801906  0.7503472578258075  1.0000
