data_image0
_chemical_formula_structural       Mn2SnO6
_chemical_formula_sum              "Mn2 Sn1 O6"
_cell_length_a       5.339633284755111
_cell_length_b       5.339633489279452
_cell_length_c       5.339633382649301
_cell_angle_alpha    59.99999958777997
_cell_angle_beta     59.9999996782388
_cell_angle_gamma    59.99999991200534

_space_group_name_H-M_alt    "P 1"
_space_group_IT_number       1

loop_
  _space_group_symop_operation_xyz
  'x, y, z'

loop_
  _atom_site_type_symbol
  _atom_site_label
  _atom_site_symmetry_multiplicity
  _atom_site_fract_x
  _atom_site_fract_y
  _atom_site_fract_z
  _atom_site_occupancy
  Mn  Mn1       1.0  0.24999992898188017  0.24999995296152144  0.24999999548920576  1.0000
  Mn  Mn2       1.0  0.7500000323547332  0.7500000309110963  0.7500000062299096  1.0000
  Sn  Sn1       1.0  6.323747607618709e-08  0.9999999724757531  4.019980609752189e-08  1.0000
  O   O1        1.0  0.26670524648048016  0.266705268882426  0.7332947926719293  1.0000
  O   O2        1.0  0.7332947797314062  0.7332947149901903  0.2667052627577872  1.0000
  O   O3        1.0  0.7332947327936915  0.2667052855839088  0.2667052275754825  1.0000
  O   O4        1.0  0.2667052248062757  0.7332947808614458  0.7332947796724931  1.0000
  O   O5        1.0  0.2667052905866475  0.7332948260305825  0.2667051511952822  1.0000
  O   O6        1.0  0.7332947340961131  0.26670516242940984  0.733294769737379  1.0000
