data_image0
_chemical_formula_structural       Mn2ScSe6
_chemical_formula_sum              "Mn2 Sc1 Se6"
_cell_length_a       6.706264517144202
_cell_length_b       6.706264581380374
_cell_length_c       6.706264660442983
_cell_angle_alpha    59.999998301960815
_cell_angle_beta     59.99999898980208
_cell_angle_gamma    59.99999890610797

_space_group_name_H-M_alt    "P 1"
_space_group_IT_number       1

loop_
  _space_group_symop_operation_xyz
  'x, y, z'

loop_
  _atom_site_type_symbol
  _atom_site_label
  _atom_site_symmetry_multiplicity
  _atom_site_fract_x
  _atom_site_fract_y
  _atom_site_fract_z
  _atom_site_occupancy
  Mn  Mn1       1.0  0.2500004019977676  0.24999953022983512  0.25000033052838483  1.0000
  Mn  Mn2       1.0  0.7499998928766234  0.7500001229299466  0.7499995206096487  1.0000
  Sc  Sc1       1.0  0.9999999923308965  0.999999950690713  7.322348752230169e-08  1.0000
  Se  Se1       1.0  0.27214488501268963  0.2721448480049451  0.7278550287131708  1.0000
  Se  Se2       1.0  0.7278548965580277  0.7278553274680156  0.2721451534272943  1.0000
  Se  Se3       1.0  0.7278549620816418  0.2721447421588763  0.2721450128611714  1.0000
  Se  Se4       1.0  0.2721450013250303  0.7278553785259908  0.7278548984864779  1.0000
  Se  Se5       1.0  0.27214485919363546  0.7278551272570042  0.27214487575162044  1.0000
  Se  Se6       1.0  0.7278551028045512  0.2721449769914332  0.7278551071464952  1.0000
