data_image0
_chemical_formula_structural       Mn2SnS6
_chemical_formula_sum              "Mn2 Sn1 S6"
_cell_length_a       6.367299332534262
_cell_length_b       6.367299188956027
_cell_length_c       6.367299171835767
_cell_angle_alpha    60.000000579495136
_cell_angle_beta     60.0000005133294
_cell_angle_gamma    59.999999305225266

_space_group_name_H-M_alt    "P 1"
_space_group_IT_number       1

loop_
  _space_group_symop_operation_xyz
  'x, y, z'

loop_
  _atom_site_type_symbol
  _atom_site_label
  _atom_site_symmetry_multiplicity
  _atom_site_fract_x
  _atom_site_fract_y
  _atom_site_fract_z
  _atom_site_occupancy
  Mn  Mn1       1.0  0.24999999214560484  0.2500000562333564  0.2500000992718704  1.0000
  Mn  Mn2       1.0  0.7499996651239595  0.7500000417495981  0.749999772518613  1.0000
  Sn  Sn1       1.0  2.018722906303146e-08  0.9999999557596845  0.9999999272182145  1.0000
  S   S1        1.0  0.2708949493192291  0.2708947658876602  0.7291051220374376  1.0000
  S   S2        1.0  0.729105194938886  0.7291051224346711  0.27089501157285373  1.0000
  S   S3        1.0  0.729105078437972  0.27089477417860214  0.27089496062039026  1.0000
  S   S4        1.0  0.2708950183551326  0.7291052891814966  0.7291051123445725  1.0000
  S   S5        1.0  0.2708948842442426  0.7291050648750775  0.2708948460781428  1.0000
  S   S6        1.0  0.7291051875278334  0.27089491577486713  0.7291051755272628  1.0000
