data_image0
_chemical_formula_structural       Mn2ScO6
_chemical_formula_sum              "Mn2 Sc1 O6"
_cell_length_a       5.275496965939215
_cell_length_b       5.275496937588224
_cell_length_c       5.275496870652721
_cell_angle_alpha    60.00000050556047
_cell_angle_beta     59.99999993395728
_cell_angle_gamma    59.99999839983187

_space_group_name_H-M_alt    "P 1"
_space_group_IT_number       1

loop_
  _space_group_symop_operation_xyz
  'x, y, z'

loop_
  _atom_site_type_symbol
  _atom_site_label
  _atom_site_symmetry_multiplicity
  _atom_site_fract_x
  _atom_site_fract_y
  _atom_site_fract_z
  _atom_site_occupancy
  Mn  Mn1       1.0  0.24999991371908878  0.2500000939383258  0.2500000281901938  1.0000
  Mn  Mn2       1.0  0.74999992488757  0.7500000589440114  0.7500001022453553  1.0000
  Sc  Sc1       1.0  0.9999999424273465  3.4823588708949096e-08  0.9999999336567348  1.0000
  O   O1        1.0  0.26830884085746465  0.26830868716044715  0.7316912290092481  1.0000
  O   O2        1.0  0.7316913007368602  0.7316911871331806  0.26830871104455245  1.0000
  O   O3        1.0  0.7316912866883809  0.26830870036094945  0.26830873472222244  1.0000
  O   O4        1.0  0.2683086842440072  0.731691285368163  0.7316913012892667  1.0000
  O   O5        1.0  0.26830877083426674  0.7316912187513378  0.2683087133317387  1.0000
  O   O6        1.0  0.7316913444489009  0.26830873447575637  0.7316912534864766  1.0000
