data_image0
_chemical_formula_structural       Mn2SrTe6
_chemical_formula_sum              "Mn2 Sr1 Te6"
_cell_length_a       7.699634002729953
_cell_length_b       7.699634054584599
_cell_length_c       7.699634072798318
_cell_angle_alpha    59.99999949884557
_cell_angle_beta     59.99999817344027
_cell_angle_gamma    60.000000129727965

_space_group_name_H-M_alt    "P 1"
_space_group_IT_number       1

loop_
  _space_group_symop_operation_xyz
  'x, y, z'

loop_
  _atom_site_type_symbol
  _atom_site_label
  _atom_site_symmetry_multiplicity
  _atom_site_fract_x
  _atom_site_fract_y
  _atom_site_fract_z
  _atom_site_occupancy
  Mn  Mn1       1.0  0.25000009396509315  0.24999996880089728  0.2499999407268554  1.0000
  Mn  Mn2       1.0  0.7499999103950059  0.7500000940997852  0.7500000712324855  1.0000
  Sr  Sr1       1.0  0.999999949023731  1.3043357451146992e-07  0.999999934296087  1.0000
  Te  Te1       1.0  0.28588118661788686  0.28588111501098556  0.7141188627951365  1.0000
  Te  Te2       1.0  0.714118790415262  0.7141189128953229  0.28588111798424204  1.0000
  Te  Te3       1.0  0.7141188741136753  0.2858810857734698  0.28588116484349224  1.0000
  Te  Te4       1.0  0.28588120702142406  0.7141187782955439  0.714118812035719  1.0000
  Te  Te5       1.0  0.2858812125005368  0.7141187906051878  0.28588118576562876  1.0000
  Te  Te6       1.0  0.7141187730629187  0.28588113072734617  0.7141189180649761  1.0000
