data_image0
_chemical_formula_structural       Mn2SeO6
_chemical_formula_sum              "Mn2 Se1 O6"
_cell_length_a       5.208020692768293
_cell_length_b       5.20802089567436
_cell_length_c       5.208020403606333
_cell_angle_alpha    60.000002121867844
_cell_angle_beta     60.00000121242909
_cell_angle_gamma    60.000001257764644

_space_group_name_H-M_alt    "P 1"
_space_group_IT_number       1

loop_
  _space_group_symop_operation_xyz
  'x, y, z'

loop_
  _atom_site_type_symbol
  _atom_site_label
  _atom_site_symmetry_multiplicity
  _atom_site_fract_x
  _atom_site_fract_y
  _atom_site_fract_z
  _atom_site_occupancy
  Mn  Mn1       1.0  0.24999998619922753  0.24999992540604585  0.2500000714973935  1.0000
  Mn  Mn2       1.0  0.750000071399803  0.7500000231415096  0.749999967425394  1.0000
  Se  Se1       1.0  0.9999999767986241  0.9999999764834887  6.077905648769387e-09  1.0000
  O   O1        1.0  0.24510068812715574  0.24510054498314748  0.7548993528554624  1.0000
  O   O2        1.0  0.7548993583399347  0.7548994835205486  0.24510054988911006  1.0000
  O   O3        1.0  0.7548992752178372  0.24510068697819867  0.24510058131212026  1.0000
  O   O4        1.0  0.24510051596093532  0.7548994355915452  0.7548994865286639  1.0000
  O   O5        1.0  0.24510063570563476  0.7548993719911112  0.24510054173925097  1.0000
  O   O6        1.0  0.7548995091464457  0.245100574204793  0.7548993932891452  1.0000
