data_image0
_chemical_formula_structural       Mn2ScTe6
_chemical_formula_sum              "Mn2 Sc1 Te6"
_cell_length_a       7.353190957185721
_cell_length_b       7.353190976313527
_cell_length_c       7.3531909458081515
_cell_angle_alpha    59.999998400691574
_cell_angle_beta     60.00000162093168
_cell_angle_gamma    60.00000024563267

_space_group_name_H-M_alt    "P 1"
_space_group_IT_number       1

loop_
  _space_group_symop_operation_xyz
  'x, y, z'

loop_
  _atom_site_type_symbol
  _atom_site_label
  _atom_site_symmetry_multiplicity
  _atom_site_fract_x
  _atom_site_fract_y
  _atom_site_fract_z
  _atom_site_occupancy
  Mn  Mn1       1.0  0.2500000365222744  0.24999991312659015  0.2500000598242891  1.0000
  Mn  Mn2       1.0  0.7499999287788636  0.7500002440555049  0.7499997795370553  1.0000
  Sc  Sc1       1.0  2.1064867062373515e-08  0.9999999933376148  0.9999999737594062  1.0000
  Te  Te1       1.0  0.2687650799224277  0.2687649400127117  0.7312349644245895  1.0000
  Te  Te2       1.0  0.7312349180593342  0.7312349306867878  0.2687651337532641  1.0000
  Te  Te3       1.0  0.7312349675581373  0.2687649414465978  0.2687650822704438  1.0000
  Te  Te4       1.0  0.2687650775636885  0.731235037516672  0.7312349531649833  1.0000
  Te  Te5       1.0  0.268764975679566  0.7312350526952149  0.26876503822862874  1.0000
  Te  Te6       1.0  0.7312349920193455  0.2687649512520017  0.7312350152665582  1.0000
