data_image0
_chemical_formula_structural       Mn2SnTe6
_chemical_formula_sum              "Mn2 Sn1 Te6"
_cell_length_a       7.4244007002727415
_cell_length_b       7.424400677631176
_cell_length_c       7.4244007125196685
_cell_angle_alpha    60.000000051859566
_cell_angle_beta     60.00000039916898
_cell_angle_gamma    60.000001072570754

_space_group_name_H-M_alt    "P 1"
_space_group_IT_number       1

loop_
  _space_group_symop_operation_xyz
  'x, y, z'

loop_
  _atom_site_type_symbol
  _atom_site_label
  _atom_site_symmetry_multiplicity
  _atom_site_fract_x
  _atom_site_fract_y
  _atom_site_fract_z
  _atom_site_occupancy
  Mn  Mn1       1.0  0.24999997216729325  0.24999988815526883  0.2500000500408812  1.0000
  Mn  Mn2       1.0  0.7499999756102944  0.7500001263597401  0.7499999973742751  1.0000
  Sn  Sn1       1.0  0.9999999760266165  6.598484468854022e-09  6.0598910100326e-10  1.0000
  Te  Te1       1.0  0.27084332385744286  0.27084322854705867  0.7291567315460092  1.0000
  Te  Te2       1.0  0.7291566857700681  0.7291567777198448  0.27084324057947634  1.0000
  Te  Te3       1.0  0.7291567444117921  0.27084323870458066  0.27084333214110945  1.0000
  Te  Te4       1.0  0.27084327200289005  0.7291567378691417  0.7291566810694021  1.0000
  Te  Te5       1.0  0.2708433215011725  0.7291567557237056  0.2708432694172903  1.0000
  Te  Te6       1.0  0.7291567205203278  0.2708432373462289  0.7291567025380553  1.0000
