data_image0
_chemical_formula_structural       Mn2SN6
_chemical_formula_sum              "Mn2 S1 N6"
_cell_length_a       4.891581765439509
_cell_length_b       4.891581768239224
_cell_length_c       4.89158163120318
_cell_angle_alpha    59.99999999485215
_cell_angle_beta     60.000001194717974
_cell_angle_gamma    59.999999662508294

_space_group_name_H-M_alt    "P 1"
_space_group_IT_number       1

loop_
  _space_group_symop_operation_xyz
  'x, y, z'

loop_
  _atom_site_type_symbol
  _atom_site_label
  _atom_site_symmetry_multiplicity
  _atom_site_fract_x
  _atom_site_fract_y
  _atom_site_fract_z
  _atom_site_occupancy
  Mn  Mn1       1.0  0.24999994318315738  0.250000006723431  0.2500000042840812  1.0000
  Mn  Mn2       1.0  0.7499999478406512  0.7500000477118803  0.7500000441966166  1.0000
  S   S1        1.0  1.4711729535090655e-08  1.2518903897226151e-08  8.8722973150785e-09  1.0000
  N   N1        1.0  0.24374443648305807  0.24374451480188153  0.7562555167905461  1.0000
  N   N2        1.0  0.7562556038550869  0.7562554670237847  0.24374445858422156  1.0000
  N   N3        1.0  0.7562554940426577  0.24374450461391825  0.24374443016622815  1.0000
  N   N4        1.0  0.2437445175142913  0.7562555423100503  0.7562555106953573  1.0000
  N   N5        1.0  0.24374453502598867  0.7562555207382452  0.24374441733490948  1.0000
  N   N6        1.0  0.7562555254610284  0.2437444360496124  0.7562555441296982  1.0000
