data_image0
_chemical_formula_structural       Mn2TiTe6
_chemical_formula_sum              "Mn2 Ti1 Te6"
_cell_length_a       7.236949173931508
_cell_length_b       7.236949122726317
_cell_length_c       7.236948953299688
_cell_angle_alpha    60.00000126098876
_cell_angle_beta     60.00000116821005
_cell_angle_gamma    60.000000721530554

_space_group_name_H-M_alt    "P 1"
_space_group_IT_number       1

loop_
  _space_group_symop_operation_xyz
  'x, y, z'

loop_
  _atom_site_type_symbol
  _atom_site_label
  _atom_site_symmetry_multiplicity
  _atom_site_fract_x
  _atom_site_fract_y
  _atom_site_fract_z
  _atom_site_occupancy
  Mn  Mn1       1.0  0.2499999426784911  0.25000004455308644  0.2500001282845705  1.0000
  Mn  Mn2       1.0  0.7500002426744113  0.7500000050406812  0.7499998134862194  1.0000
  Ti  Ti1       1.0  0.9999999873322866  0.999999994922951  8.872381232378692e-09  1.0000
  Te  Te1       1.0  0.26185778958516587  0.26185793847341376  0.7381421326483103  1.0000
  Te  Te2       1.0  0.7381421402039696  0.7381420975815562  0.26185792156499693  1.0000
  Te  Te3       1.0  0.7381421194684157  0.261857793526056  0.2618579022489137  1.0000
  Te  Te4       1.0  0.26185780838782696  0.7381421765272759  0.7381420905876119  1.0000
  Te  Te5       1.0  0.26185777934370436  0.7381421081860755  0.2618579272120907  1.0000
  Te  Te6       1.0  0.738142183534734  0.26185783817436087  0.738142079304954  1.0000
