data_image0
_chemical_formula_structural       Mn2TiS6
_chemical_formula_sum              "Mn2 Ti1 S6"
_cell_length_a       6.247755683215673
_cell_length_b       6.247755963091878
_cell_length_c       6.247755744162707
_cell_angle_alpha    59.99999750148322
_cell_angle_beta     59.99999857908382
_cell_angle_gamma    59.999999007924686

_space_group_name_H-M_alt    "P 1"
_space_group_IT_number       1

loop_
  _space_group_symop_operation_xyz
  'x, y, z'

loop_
  _atom_site_type_symbol
  _atom_site_label
  _atom_site_symmetry_multiplicity
  _atom_site_fract_x
  _atom_site_fract_y
  _atom_site_fract_z
  _atom_site_occupancy
  Mn  Mn1       1.0  0.2499999451536521  0.24999998697561834  0.2499999685964494  1.0000
  Mn  Mn2       1.0  0.7500002307289941  0.7500000060136448  0.7499999433044623  1.0000
  Ti  Ti1       1.0  1.3927057185155603e-08  0.9999999803970433  1.2373754535340002e-09  1.0000
  S   S1        1.0  0.2621172229289555  0.26211738308541743  0.7378827029110948  1.0000
  S   S2        1.0  0.7378826964467774  0.7378826863553797  0.2621172445979656  1.0000
  S   S3        1.0  0.7378827350869294  0.26211731221828244  0.26211732399122323  1.0000
  S   S4        1.0  0.2621172492379552  0.7378826788106847  0.73788270867734  1.0000
  S   S5        1.0  0.2621172246710589  0.7378826906826769  0.2621174159768605  1.0000
  S   S6        1.0  0.7378826655085243  0.2621172944654027  0.7378826859116949  1.0000
