data_image0
_chemical_formula_structural       Mn2TiO6
_chemical_formula_sum              "Mn2 Ti1 O6"
_cell_length_a       5.23673409954882
_cell_length_b       5.236733999602975
_cell_length_c       5.236733594283365
_cell_angle_alpha    60.00000144681103
_cell_angle_beta     60.00000257049359
_cell_angle_gamma    60.00000054368716

_space_group_name_H-M_alt    "P 1"
_space_group_IT_number       1

loop_
  _space_group_symop_operation_xyz
  'x, y, z'

loop_
  _atom_site_type_symbol
  _atom_site_label
  _atom_site_symmetry_multiplicity
  _atom_site_fract_x
  _atom_site_fract_y
  _atom_site_fract_z
  _atom_site_occupancy
  Mn  Mn1       1.0  0.2500001636260116  0.24999972231270076  0.25000011158651675  1.0000
  Mn  Mn2       1.0  0.7499998800080852  0.7500002123625121  0.7499997756661861  1.0000
  Ti  Ti1       1.0  0.9999999859674576  4.2097627400080714e-08  0.999999953504473  1.0000
  O   O1        1.0  0.25426566961424046  0.25426563108074296  0.7457343684161177  1.0000
  O   O2        1.0  0.7457342954843047  0.7457344135160491  0.25426577430496855  1.0000
  O   O3        1.0  0.7457342899452641  0.2542656109276649  0.25426569232461016  1.0000
  O   O4        1.0  0.25426571495411004  0.7457344664117278  0.7457342212564428  1.0000
  O   O5        1.0  0.2542656178596471  0.745734317104081  0.25426570018475125  1.0000
  O   O6        1.0  0.7457343729652263  0.25426565031373005  0.7457342944902169  1.0000
