data_image0
_chemical_formula_structural       Mn2VO6
_chemical_formula_sum              "Mn2 V1 O6"
_cell_length_a       5.2023052905299005
_cell_length_b       5.202305013965047
_cell_length_c       5.202305209401119
_cell_angle_alpha    60.00000237271829
_cell_angle_beta     60.000001407492945
_cell_angle_gamma    60.00000237156107

_space_group_name_H-M_alt    "P 1"
_space_group_IT_number       1

loop_
  _space_group_symop_operation_xyz
  'x, y, z'

loop_
  _atom_site_type_symbol
  _atom_site_label
  _atom_site_symmetry_multiplicity
  _atom_site_fract_x
  _atom_site_fract_y
  _atom_site_fract_z
  _atom_site_occupancy
  Mn  Mn1       1.0  0.24999996417545473  0.24999989423390304  0.2500000418850056  1.0000
  Mn  Mn2       1.0  0.7499998892910202  0.7500000852758847  0.7499998010410008  1.0000
  V   V1        1.0  2.9639465920782618e-08  0.9999999976457641  0.99999994406844  1.0000
  O   O1        1.0  0.2505138267343642  0.2505138260675768  0.7494861399582166  1.0000
  O   O2        1.0  0.7494861766335695  0.7494861298998736  0.2505138858330017  1.0000
  O   O3        1.0  0.7494862155558409  0.25051370225925307  0.2505139507391459  1.0000
  O   O4        1.0  0.250513901819227  0.7494862113319775  0.7494862372257675  1.0000
  O   O5        1.0  0.2505137820304541  0.7494862043337003  0.2505138729137616  1.0000
  O   O6        1.0  0.7494862340933784  0.2505138199065692  0.7494862353854858  1.0000
