data_image0
_chemical_formula_structural       Mn2VS6
_chemical_formula_sum              "Mn2 V1 S6"
_cell_length_a       6.148547621728507
_cell_length_b       6.148548184274135
_cell_length_c       6.1485480309841645
_cell_angle_alpha    59.99999926450045
_cell_angle_beta     59.99999924272615
_cell_angle_gamma    60.00000065530768

_space_group_name_H-M_alt    "P 1"
_space_group_IT_number       1

loop_
  _space_group_symop_operation_xyz
  'x, y, z'

loop_
  _atom_site_type_symbol
  _atom_site_label
  _atom_site_symmetry_multiplicity
  _atom_site_fract_x
  _atom_site_fract_y
  _atom_site_fract_z
  _atom_site_occupancy
  Mn  Mn1       1.0  0.24999997517022457  0.25000000414923057  0.250000074284534  1.0000
  Mn  Mn2       1.0  0.7499998981184783  0.7500000044800008  0.7499997981526793  1.0000
  V   V1        1.0  1.7836292103512597e-09  0.9999999721130466  0.9999999772708571  1.0000
  S   S1        1.0  0.2591129257893265  0.2591129033798471  0.7408871061720715  1.0000
  S   S2        1.0  0.7408871578359871  0.7408871052493744  0.2591130481801009  1.0000
  S   S3        1.0  0.7408870589431047  0.2591128750965103  0.25911295483201446  1.0000
  S   S4        1.0  0.25911296663324446  0.740887223169354  0.7408870080750912  1.0000
  S   S5        1.0  0.2591128590088181  0.7408870630147248  0.25911293526205675  1.0000
  S   S6        1.0  0.7408871503132602  0.25911286992134025  0.7408870956674823  1.0000
