data_image0
_chemical_formula_structural       Mn2YSe6
_chemical_formula_sum              "Mn2 Y1 Se6"
_cell_length_a       6.950838875547001
_cell_length_b       6.950839042563356
_cell_length_c       6.95083918349675
_cell_angle_alpha    60.00000100392737
_cell_angle_beta     60.00000129898667
_cell_angle_gamma    60.00000153181672

_space_group_name_H-M_alt    "P 1"
_space_group_IT_number       1

loop_
  _space_group_symop_operation_xyz
  'x, y, z'

loop_
  _atom_site_type_symbol
  _atom_site_label
  _atom_site_symmetry_multiplicity
  _atom_site_fract_x
  _atom_site_fract_y
  _atom_site_fract_z
  _atom_site_occupancy
  Mn  Mn1       1.0  0.2499999815135864  0.2500001431441978  0.24999981632610413  1.0000
  Mn  Mn2       1.0  0.7499999517473895  0.7499999642619372  0.7500005987124518  1.0000
  Y   Y1        1.0  1.6261177693658242e-08  0.9999999312816076  1.5283202503344662e-07  1.0000
  Se  Se1       1.0  0.27880956410720364  0.2788094583361279  0.7211905249639285  1.0000
  Se  Se2       1.0  0.721190544761498  0.721190471106983  0.2788092496031358  1.0000
  Se  Se3       1.0  0.7211905207914308  0.2788096699747659  0.27880934134138  1.0000
  Se  Se4       1.0  0.27880936602399237  0.7211903176146774  0.7211905482686833  1.0000
  Se  Se5       1.0  0.27880967142959473  0.7211905605192062  0.27880927106859554  1.0000
  Se  Se6       1.0  0.7211903870462122  0.27880948521657084  0.7211904935673867  1.0000
