data_image0
_chemical_formula_structural       Mn2YO6
_chemical_formula_sum              "Mn2 Y1 O6"
_cell_length_a       5.468105651410743
_cell_length_b       5.4681058568389185
_cell_length_c       5.46810562602039
_cell_angle_alpha    60.000001388303325
_cell_angle_beta     60.00000178272521
_cell_angle_gamma    59.999999968721966

_space_group_name_H-M_alt    "P 1"
_space_group_IT_number       1

loop_
  _space_group_symop_operation_xyz
  'x, y, z'

loop_
  _atom_site_type_symbol
  _atom_site_label
  _atom_site_symmetry_multiplicity
  _atom_site_fract_x
  _atom_site_fract_y
  _atom_site_fract_z
  _atom_site_occupancy
  Mn  Mn1       1.0  0.24999990945228817  0.250000098062765  0.25000003898809736  1.0000
  Mn  Mn2       1.0  0.7499999635280435  0.7500000321320114  0.7499999713023859  1.0000
  Y   Y1        1.0  7.09231450220575e-08  8.959187870343657e-09  0.9999999417709653  1.0000
  O   O1        1.0  0.27739739908629807  0.27739737974077944  0.7226026330005825  1.0000
  O   O2        1.0  0.7226025998532781  0.7226025309538624  0.27739739662854396  1.0000
  O   O3        1.0  0.7226026130325446  0.2773973862734045  0.27739731475293844  1.0000
  O   O4        1.0  0.27739737325503044  0.7226027080846135  0.7226026385144348  1.0000
  O   O5        1.0  0.2773973551233178  0.7226026391924426  0.27739730442438154  1.0000
  O   O6        1.0  0.7226026908080478  0.2773972065480773  0.7226027597889284  1.0000
