data_image0
_chemical_formula_structural       Mn2YS6
_chemical_formula_sum              "Mn2 Y1 S6"
_cell_length_a       6.593255140922296
_cell_length_b       6.593255646491548
_cell_length_c       6.5932556335803
_cell_angle_alpha    59.99999923051419
_cell_angle_beta     59.999998136005736
_cell_angle_gamma    60.00000097415115

_space_group_name_H-M_alt    "P 1"
_space_group_IT_number       1

loop_
  _space_group_symop_operation_xyz
  'x, y, z'

loop_
  _atom_site_type_symbol
  _atom_site_label
  _atom_site_symmetry_multiplicity
  _atom_site_fract_x
  _atom_site_fract_y
  _atom_site_fract_z
  _atom_site_occupancy
  Mn  Mn1       1.0  0.24999996246167616  0.2499999674902349  0.25000010788462257  1.0000
  Mn  Mn2       1.0  0.7499999801876123  0.7499999340494359  0.7500000248577934  1.0000
  Y   Y1        1.0  0.9999999977357088  0.9999999962848561  0.9999999529385716  1.0000
  S   S1        1.0  0.2770013092963601  0.2770013123051953  0.7229986457144132  1.0000
  S   S2        1.0  0.722998763853244  0.7229986338162108  0.27700133123541476  1.0000
  S   S3        1.0  0.7229986856435704  0.2770013838278124  0.2770011502765633  1.0000
  S   S4        1.0  0.277001346020254  0.7229986867509336  0.722998766987067  1.0000
  S   S5        1.0  0.27700123347151173  0.7229986957083502  0.2770012944302271  1.0000
  S   S6        1.0  0.7229987274134437  0.27700138230068355  0.7229987318594642  1.0000
