data_image0
_chemical_formula_structural       Mn2YTe6
_chemical_formula_sum              "Mn2 Y1 Te6"
_cell_length_a       7.552132438618134
_cell_length_b       7.55213236166454
_cell_length_c       7.552132443219111
_cell_angle_alpha    60.000001948061275
_cell_angle_beta     59.999999602575095
_cell_angle_gamma    60.00000071909036

_space_group_name_H-M_alt    "P 1"
_space_group_IT_number       1

loop_
  _space_group_symop_operation_xyz
  'x, y, z'

loop_
  _atom_site_type_symbol
  _atom_site_label
  _atom_site_symmetry_multiplicity
  _atom_site_fract_x
  _atom_site_fract_y
  _atom_site_fract_z
  _atom_site_occupancy
  Mn  Mn1       1.0  0.24999981447808323  0.250000252806476  0.250000022752511  1.0000
  Mn  Mn2       1.0  0.750000044986192  0.7499997610612668  0.7500000516516735  1.0000
  Y   Y1        1.0  2.7351927931945488e-08  0.9999999821610751  4.9532800214285545e-08  1.0000
  Te  Te1       1.0  0.2755725906186693  0.27557276158226063  0.7244273301369007  1.0000
  Te  Te2       1.0  0.7244274199356746  0.724427266880967  0.2755726495073428  1.0000
  Te  Te3       1.0  0.7244273416253144  0.2755726920475688  0.2755726210505503  1.0000
  Te  Te4       1.0  0.2755726988142432  0.7244272926292031  0.7244273589236667  1.0000
  Te  Te5       1.0  0.27557265563997513  0.7244272575551729  0.27557266787903584  1.0000
  Te  Te6       1.0  0.7244274071008546  0.27557273360847995  0.7244272460600614  1.0000
