data_image0
_chemical_formula_structural       Mn2ZnTe6
_chemical_formula_sum              "Mn2 Zn1 Te6"
_cell_length_a       7.170892673810818
_cell_length_b       7.170892838009815
_cell_length_c       7.170892738970751
_cell_angle_alpha    60.000000125088235
_cell_angle_beta     59.99999997049381
_cell_angle_gamma    59.99999824170181

_space_group_name_H-M_alt    "P 1"
_space_group_IT_number       1

loop_
  _space_group_symop_operation_xyz
  'x, y, z'

loop_
  _atom_site_type_symbol
  _atom_site_label
  _atom_site_symmetry_multiplicity
  _atom_site_fract_x
  _atom_site_fract_y
  _atom_site_fract_z
  _atom_site_occupancy
  Mn  Mn1       1.0  0.24999976518299952  0.24999989142361337  0.2500002650870417  1.0000
  Mn  Mn2       1.0  0.7500001708747405  0.7499999902395666  0.7499998454041592  1.0000
  Zn  Zn1       1.0  2.0754788743205986e-08  0.9999999812126688  0.9999999585750027  1.0000
  Te  Te1       1.0  0.2642315528545698  0.2642316692661646  0.7357683861728888  1.0000
  Te  Te2       1.0  0.7357684536136405  0.7357683199971812  0.26423167435973643  1.0000
  Te  Te3       1.0  0.7357684644039547  0.2642315783898694  0.2642316183088892  1.0000
  Te  Te4       1.0  0.2642314957545365  0.7357685594641857  0.7357682976499643  1.0000
  Te  Te5       1.0  0.2642315078997368  0.7357684370411804  0.26423168182126733  1.0000
  Te  Te6       1.0  0.7357685737623246  0.2642315778412512  0.7357682697347759  1.0000
