data_image0
_chemical_formula_structural       Mn2ZnO6
_chemical_formula_sum              "Mn2 Zn1 O6"
_cell_length_a       5.214160675547157
_cell_length_b       5.214160621782082
_cell_length_c       5.214160443986961
_cell_angle_alpha    60.00000041016182
_cell_angle_beta     59.99999957647591
_cell_angle_gamma    59.99999928748543

_space_group_name_H-M_alt    "P 1"
_space_group_IT_number       1

loop_
  _space_group_symop_operation_xyz
  'x, y, z'

loop_
  _atom_site_type_symbol
  _atom_site_label
  _atom_site_symmetry_multiplicity
  _atom_site_fract_x
  _atom_site_fract_y
  _atom_site_fract_z
  _atom_site_occupancy
  Mn  Mn1       1.0  0.2500000481494026  0.24999996906349245  0.24999999758633734  1.0000
  Mn  Mn2       1.0  0.7499999657606423  0.7500000645655813  0.7500000321830588  1.0000
  Zn  Zn1       1.0  0.9999999873382952  4.462876062355192e-08  0.9999998900416116  1.0000
  O   O1        1.0  0.25829516810496783  0.25829507392902756  0.7417049095619259  1.0000
  O   O2        1.0  0.741704819790899  0.7417048915824647  0.25829508288776193  1.0000
  O   O3        1.0  0.7417049105840663  0.25829507515798733  0.25829515547593407  1.0000
  O   O4        1.0  0.25829511144730466  0.7417048809579759  0.7417048955643747  1.0000
  O   O5        1.0  0.25829513055174647  0.7417048579456145  0.2582951468830692  1.0000
  O   O6        1.0  0.7417048730915718  0.25829513340358107  0.7417048823096697  1.0000
