data_image0
_chemical_formula_structural       Mn2ZnS6
_chemical_formula_sum              "Mn2 Zn1 S6"
_cell_length_a       6.1947937779488145
_cell_length_b       6.194793939952294
_cell_length_c       6.194794111083273
_cell_angle_alpha    60.00000074617937
_cell_angle_beta     60.00000034689293
_cell_angle_gamma    60.0000002147636

_space_group_name_H-M_alt    "P 1"
_space_group_IT_number       1

loop_
  _space_group_symop_operation_xyz
  'x, y, z'

loop_
  _atom_site_type_symbol
  _atom_site_label
  _atom_site_symmetry_multiplicity
  _atom_site_fract_x
  _atom_site_fract_y
  _atom_site_fract_z
  _atom_site_occupancy
  Mn  Mn1       1.0  0.2500004946970515  0.2500000116486097  0.2499997337143265  1.0000
  Mn  Mn2       1.0  0.7499997705425919  0.7500000309917318  0.750000092179455  1.0000
  Zn  Zn1       1.0  0.9999999914521606  0.9999999920917797  0.9999999953139603  1.0000
  S   S1        1.0  0.2636728136643058  0.2636727602333372  0.7363272123490294  1.0000
  S   S2        1.0  0.7363270628681399  0.7363273021775578  0.26367280608436144  1.0000
  S   S3        1.0  0.736327012946519  0.2636728095662694  0.2636727869709969  1.0000
  S   S4        1.0  0.2636729326115861  0.7363271520148176  0.7363272215363296  1.0000
  S   S5        1.0  0.26367292780098833  0.7363271528482399  0.2636727046666648  1.0000
  S   S6        1.0  0.7363269922266711  0.26367277907702275  0.7363274412033844  1.0000
