data_image0
_chemical_formula_structural       Mo2CN6
_chemical_formula_sum              "Mo2 C1 N6"
_cell_length_a       4.7570504785222685
_cell_length_b       4.7570500274342695
_cell_length_c       4.757050364040139
_cell_angle_alpha    59.999998068465196
_cell_angle_beta     59.999996829531504
_cell_angle_gamma    59.99999766864339

_space_group_name_H-M_alt    "P 1"
_space_group_IT_number       1

loop_
  _space_group_symop_operation_xyz
  'x, y, z'

loop_
  _atom_site_type_symbol
  _atom_site_label
  _atom_site_symmetry_multiplicity
  _atom_site_fract_x
  _atom_site_fract_y
  _atom_site_fract_z
  _atom_site_occupancy
  Mo  Mo1       1.0  0.2500000477004072  0.25000006222816057  0.25000005350768656  1.0000
  Mo  Mo2       1.0  0.7500000502269443  0.7500000502312522  0.7499998841882224  1.0000
  C   C1        1.0  1.4244320298562983e-08  5.921555011041244e-08  2.423221079925658e-08  1.0000
  N   N1        1.0  0.23766210826260017  0.237662036048814  0.7623378848690271  1.0000
  N   N2        1.0  0.7623379013759277  0.7623379116368956  0.23766210578314312  1.0000
  N   N3        1.0  0.7623379188989861  0.2376620790170892  0.2376620828459217  1.0000
  N   N4        1.0  0.2376620931668886  0.76233786866862  0.7623378855711455  1.0000
  N   N5        1.0  0.2376620484775174  0.7623378326248977  0.23766220274853664  1.0000
  N   N6        1.0  0.7623379013608278  0.2376620687182088  0.7623378872221735  1.0000
