data_image0
_chemical_formula_structural       Mo2CoN6
_chemical_formula_sum              "Mo2 Co1 N6"
_cell_length_a       4.85583534914267
_cell_length_b       4.855835630599032
_cell_length_c       4.855835538256249
_cell_angle_alpha    60.0000000531422
_cell_angle_beta     59.99999911667577
_cell_angle_gamma    60.00000036808449

_space_group_name_H-M_alt    "P 1"
_space_group_IT_number       1

loop_
  _space_group_symop_operation_xyz
  'x, y, z'

loop_
  _atom_site_type_symbol
  _atom_site_label
  _atom_site_symmetry_multiplicity
  _atom_site_fract_x
  _atom_site_fract_y
  _atom_site_fract_z
  _atom_site_occupancy
  Mo  Mo1       1.0  0.24999992563663673  0.25000009688796565  0.25000006891000853  1.0000
  Mo  Mo2       1.0  0.7499999654946057  0.7500000031316901  0.7499999061095539  1.0000
  Co  Co1       1.0  0.9999999949803234  0.999999972255664  3.079765111477586e-08  1.0000
  N   N1        1.0  0.25806431531693164  0.25806451371378136  0.7419356184603969  1.0000
  N   N2        1.0  0.741935617393694  0.7419355257727768  0.2580644875393144  1.0000
  N   N3        1.0  0.7419355032449716  0.2580643768862783  0.25806450766366346  1.0000
  N   N4        1.0  0.25806448925276504  0.7419355617117858  0.7419355426897607  1.0000
  N   N5        1.0  0.2580645180457727  0.7419355050783213  0.2580643872738568  1.0000
  N   N6        1.0  0.7419356589482321  0.2580644436085921  0.7419354628181182  1.0000
