data_image0
_chemical_formula_structural       Mo2CrN6
_chemical_formula_sum              "Mo2 Cr1 N6"
_cell_length_a       4.708229109973601
_cell_length_b       4.708229023397122
_cell_length_c       4.7082276197715
_cell_angle_alpha    60.00000592314735
_cell_angle_beta     60.00000796020723
_cell_angle_gamma    60.00000587362329

_space_group_name_H-M_alt    "P 1"
_space_group_IT_number       1

loop_
  _space_group_symop_operation_xyz
  'x, y, z'

loop_
  _atom_site_type_symbol
  _atom_site_label
  _atom_site_symmetry_multiplicity
  _atom_site_fract_x
  _atom_site_fract_y
  _atom_site_fract_z
  _atom_site_occupancy
  Mo  Mo1       1.0  0.25000056441558655  0.2500000334234012  0.24999989706738718  1.0000
  Mo  Mo2       1.0  0.7499998333051872  0.7499997204825064  0.7500000273324319  1.0000
  Cr  Cr1       1.0  0.9999999753516  0.9999999635820005  8.150779713971666e-08  1.0000
  N   N1        1.0  0.27411212077742014  0.2741128483357516  0.725887525496548  1.0000
  N   N2        1.0  0.7258878591953093  0.7258870772549819  0.274112781055745  1.0000
  N   N3        1.0  0.7258867207236828  0.27411263704291333  0.2741124352914684  1.0000
  N   N4        1.0  0.2741129206998314  0.7258874654352471  0.7258874041148151  1.0000
  N   N5        1.0  0.27411255230480713  0.7258880015791257  0.2741123633398814  1.0000
  N   N6        1.0  0.725887482213968  0.27411215032346126  0.7258874480852252  1.0000
