data_image0
_chemical_formula_structural       Mo2FeN6
_chemical_formula_sum              "Mo2 Fe1 N6"
_cell_length_a       5.025246541277003
_cell_length_b       5.025246265834518
_cell_length_c       5.025246461822798
_cell_angle_alpha    59.999999721476364
_cell_angle_beta     59.99999923747436
_cell_angle_gamma    59.99999957530643

_space_group_name_H-M_alt    "P 1"
_space_group_IT_number       1

loop_
  _space_group_symop_operation_xyz
  'x, y, z'

loop_
  _atom_site_type_symbol
  _atom_site_label
  _atom_site_symmetry_multiplicity
  _atom_site_fract_x
  _atom_site_fract_y
  _atom_site_fract_z
  _atom_site_occupancy
  Mo  Mo1       1.0  0.24999996444082281  0.25000005117636154  0.24999989995467184  1.0000
  Mo  Mo2       1.0  0.7499999735383984  0.7500000438558172  0.7499998897084719  1.0000
  Fe  Fe1       1.0  2.7505957627408763e-08  0.9999998830151674  0.9999994039748441  1.0000
  N   N1        1.0  0.27057772959432735  0.2705776190955621  0.7294223864206674  1.0000
  N   N2        1.0  0.729422371066723  0.7294223394543303  0.2705776946053813  1.0000
  N   N3        1.0  0.7294222308143646  0.2705777313525527  0.27057784314891176  1.0000
  N   N4        1.0  0.27057753150861263  0.7294224977247433  0.7294225563456345  1.0000
  N   N5        1.0  0.2705777532307253  0.7294222708872733  0.27057781615936444  1.0000
  N   N6        1.0  0.729422432938777  0.27057754143159496  0.729422490243279  1.0000
