data_image0
_chemical_formula_structural       Mo2GeN6
_chemical_formula_sum              "Mo2 Ge1 N6"
_cell_length_a       4.607869682331185
_cell_length_b       4.607866883283898
_cell_length_c       4.607870690348329
_cell_angle_alpha    59.999970441080805
_cell_angle_beta     59.99998662447143
_cell_angle_gamma    59.99996253412917

_space_group_name_H-M_alt    "P 1"
_space_group_IT_number       1

loop_
  _space_group_symop_operation_xyz
  'x, y, z'

loop_
  _atom_site_type_symbol
  _atom_site_label
  _atom_site_symmetry_multiplicity
  _atom_site_fract_x
  _atom_site_fract_y
  _atom_site_fract_z
  _atom_site_occupancy
  Mo  Mo1       1.0  0.25000434844848257  0.2500010057603886  0.24999781379056624  1.0000
  Mo  Mo2       1.0  0.7500045060520936  0.7499965717669851  0.7499983555786214  1.0000
  Ge  Ge1       1.0  0.9999996511672244  1.1429165046310234e-07  2.7352496161950944e-07  1.0000
  N   N1        1.0  0.28608633407995  0.28609568886847797  0.7139090615078901  1.0000
  N   N2        1.0  0.7139132494236106  0.713906877621643  0.28609110222939726  1.0000
  N   N3        1.0  0.7139043229177263  0.28609338222742525  0.2860872202781085  1.0000
  N   N4        1.0  0.2860902955457984  0.7139079988200854  0.7139108796676521  1.0000
  N   N5        1.0  0.2860900390826117  0.7139063065911222  0.2860920533997488  1.0000
  N   N6        1.0  0.7139073776753595  0.2860919194760295  0.7139132476554086  1.0000
