data_image0
_chemical_formula_structural       Mo2IrN6
_chemical_formula_sum              "Mo2 Ir1 N6"
_cell_length_a       5.000458884487334
_cell_length_b       5.0004588033127275
_cell_length_c       5.000458848080221
_cell_angle_alpha    59.99999954221177
_cell_angle_beta     60.000001153335035
_cell_angle_gamma    60.00000080047585

_space_group_name_H-M_alt    "P 1"
_space_group_IT_number       1

loop_
  _space_group_symop_operation_xyz
  'x, y, z'

loop_
  _atom_site_type_symbol
  _atom_site_label
  _atom_site_symmetry_multiplicity
  _atom_site_fract_x
  _atom_site_fract_y
  _atom_site_fract_z
  _atom_site_occupancy
  Mo  Mo1       1.0  0.2500006164622079  0.2499996148792557  0.24999960696547788  1.0000
  Mo  Mo2       1.0  0.7499991943066476  0.7500003533849768  0.7499997120336166  1.0000
  Ir  Ir1       1.0  0.999999988922349  0.9999998946816042  1.22192150759978e-07  1.0000
  N   N1        1.0  0.27031925998641354  0.2703188888946692  0.7296807774910903  1.0000
  N   N2        1.0  0.7296807288941949  0.7296810230364671  0.27031908856288633  1.0000
  N   N3        1.0  0.7296807560706227  0.27031880524225377  0.2703194021501228  1.0000
  N   N4        1.0  0.2703198231741397  0.7296808250234108  0.7296809394967074  1.0000
  N   N5        1.0  0.2703192025365928  0.729681302606436  0.27031901449800994  1.0000
  N   N6        1.0  0.7296804079288235  0.2703192804233042  0.7296813711531444  1.0000
