data_image0
_chemical_formula_structural       Mo2MnN6
_chemical_formula_sum              "Mo2 Mn1 N6"
_cell_length_a       5.067720580049658
_cell_length_b       5.067720977689884
_cell_length_c       5.06772065435481
_cell_angle_alpha    59.99999765677559
_cell_angle_beta     60.00000263483779
_cell_angle_gamma    60.000000889946804

_space_group_name_H-M_alt    "P 1"
_space_group_IT_number       1

loop_
  _space_group_symop_operation_xyz
  'x, y, z'

loop_
  _atom_site_type_symbol
  _atom_site_label
  _atom_site_symmetry_multiplicity
  _atom_site_fract_x
  _atom_site_fract_y
  _atom_site_fract_z
  _atom_site_occupancy
  Mo  Mo1       1.0  0.250000046284638  0.2500000342238826  0.24999993607639623  1.0000
  Mo  Mo2       1.0  0.7499999858482164  0.750000001167858  0.7500000203347023  1.0000
  Mn  Mn1       1.0  4.755394166447259e-07  4.7368430992824896e-07  0.9999998036197268  1.0000
  N   N1        1.0  0.2707699438582656  0.2707699612101135  0.7292300379569719  1.0000
  N   N2        1.0  0.7292297743021846  0.7292297310021643  0.2707702707093488  1.0000
  N   N3        1.0  0.7292297834263505  0.27077007867710917  0.27077020750964875  1.0000
  N   N4        1.0  0.27077014143353245  0.7292298068757161  0.729229810366089  1.0000
  N   N5        1.0  0.2707702088778144  0.7292296638382246  0.270770264759361  1.0000
  N   N6        1.0  0.729229699364918  0.27077021688108716  0.7292297598951611  1.0000
