data_image0
_chemical_formula_structural       Mo2OsN6
_chemical_formula_sum              "Mo2 Os1 N6"
_cell_length_a       5.023403328423134
_cell_length_b       5.023403536948146
_cell_length_c       5.023403160208378
_cell_angle_alpha    60.000001787949685
_cell_angle_beta     60.00000074713688
_cell_angle_gamma    60.00000092172746

_space_group_name_H-M_alt    "P 1"
_space_group_IT_number       1

loop_
  _space_group_symop_operation_xyz
  'x, y, z'

loop_
  _atom_site_type_symbol
  _atom_site_label
  _atom_site_symmetry_multiplicity
  _atom_site_fract_x
  _atom_site_fract_y
  _atom_site_fract_z
  _atom_site_occupancy
  Mo  Mo1       1.0  0.2499997854136561  0.2500001614838056  0.2500000444468831  1.0000
  Mo  Mo2       1.0  0.7500000560602051  0.7499998676177378  0.7499999345839661  1.0000
  Os  Os1       1.0  0.9999999803798645  2.438077772347801e-08  7.57309058729364e-09  1.0000
  N   N1        1.0  0.26239336951764697  0.2623932682240521  0.7376067008960324  1.0000
  N   N2        1.0  0.7376067066049694  0.7376066706686115  0.262393301467632  1.0000
  N   N3        1.0  0.7376068273170329  0.26239335575560796  0.26239326628472975  1.0000
  N   N4        1.0  0.26239333324974373  0.7376066952886319  0.7376066497251598  1.0000
  N   N5        1.0  0.26239322951317007  0.7376065496512917  0.26239344713838625  1.0000
  N   N6        1.0  0.7376067400592266  0.26239339167945064  0.7376066013093019  1.0000
