data_image0
_chemical_formula_structural       Mo2PdN6
_chemical_formula_sum              "Mo2 Pd1 N6"
_cell_length_a       4.870337080735209
_cell_length_b       4.871709810737177
_cell_length_c       4.86893720558952
_cell_angle_alpha    61.40911874375398
_cell_angle_beta     61.40581310591012
_cell_angle_gamma    61.43420456789158

_space_group_name_H-M_alt    "P 1"
_space_group_IT_number       1

loop_
  _space_group_symop_operation_xyz
  'x, y, z'

loop_
  _atom_site_type_symbol
  _atom_site_label
  _atom_site_symmetry_multiplicity
  _atom_site_fract_x
  _atom_site_fract_y
  _atom_site_fract_z
  _atom_site_occupancy
  Mo  Mo1       1.0  0.3318970890479502  0.3321408400650207  0.3320508430205019  1.0000
  Mo  Mo2       1.0  0.6677892872027591  0.668077160102711  0.668065515779477  1.0000
  Pd  Pd1       1.0  0.9998570485434546  0.00010266003328614924  3.501490599244696e-05  1.0000
  N   N1        1.0  0.4605016321441005  0.10594532164810148  0.7671370839317984  1.0000
  N   N2        1.0  0.8941123453693526  0.5393377206362825  0.23289007245907303  1.0000
  N   N3        1.0  0.7671466277488602  0.46040702916223175  0.10600236252474493  1.0000
  N   N4        1.0  0.23293781417484435  0.8939813845236407  0.5394393392829134  1.0000
  N   N5        1.0  0.1061402287936477  0.7671165280347377  0.46030472184598853  1.0000
  N   N6        1.0  0.5396238660150003  0.23293278170623577  0.893828425711142  1.0000
