data_image0
_chemical_formula_structural       Mo2PN6
_chemical_formula_sum              "Mo2 P1 N6"
_cell_length_a       4.832526091469481
_cell_length_b       4.832526167379757
_cell_length_c       4.832526136115587
_cell_angle_alpha    59.99999998514158
_cell_angle_beta     60.00000005435305
_cell_angle_gamma    60.00000007971157

_space_group_name_H-M_alt    "P 1"
_space_group_IT_number       1

loop_
  _space_group_symop_operation_xyz
  'x, y, z'

loop_
  _atom_site_type_symbol
  _atom_site_label
  _atom_site_symmetry_multiplicity
  _atom_site_fract_x
  _atom_site_fract_y
  _atom_site_fract_z
  _atom_site_occupancy
  Mo  Mo1       1.0  0.24999998115024888  0.25000002430785373  0.24999998964329845  1.0000
  Mo  Mo2       1.0  0.7499999891647607  0.7500000146328635  0.7500000331589483  1.0000
  P   P1        1.0  8.85788948002011e-09  0.9999999949312437  4.313366774550399e-09  1.0000
  N   N1        1.0  0.24709344677430403  0.24709342514268504  0.7529065568128785  1.0000
  N   N2        1.0  0.7529065617965283  0.7529065707136039  0.24709341460158246  1.0000
  N   N3        1.0  0.752906589082774  0.24709341749768707  0.2470934331737883  1.0000
  N   N4        1.0  0.2470934252566641  0.7529065682210891  0.7529065693954816  1.0000
  N   N5        1.0  0.2470934333026412  0.7529065600839321  0.24709341889600556  1.0000
  N   N6        1.0  0.7529065674000379  0.2470934307036005  0.7529065693334658  1.0000
