data_image0
_chemical_formula_structural       Mo2RhN6
_chemical_formula_sum              "Mo2 Rh1 N6"
_cell_length_a       4.819253695383275
_cell_length_b       4.819253122618105
_cell_length_c       4.81925281634143
_cell_angle_alpha    59.999989095615874
_cell_angle_beta     59.999992517505284
_cell_angle_gamma    59.99998855296844

_space_group_name_H-M_alt    "P 1"
_space_group_IT_number       1

loop_
  _space_group_symop_operation_xyz
  'x, y, z'

loop_
  _atom_site_type_symbol
  _atom_site_label
  _atom_site_symmetry_multiplicity
  _atom_site_fract_x
  _atom_site_fract_y
  _atom_site_fract_z
  _atom_site_occupancy
  Mo  Mo1       1.0  0.2500022950045581  0.24999832075748332  0.25000217182436885  1.0000
  Mo  Mo2       1.0  0.7500011636669781  0.7499992597102793  0.7500047664652973  1.0000
  Rh  Rh1       1.0  2.3794941660575244e-07  0.999998955501571  7.373512684830633e-07  1.0000
  N   N1        1.0  0.2828471879256641  0.28285189337463756  0.7171497871344362  1.0000
  N   N2        1.0  0.7171475417142826  0.7171519057989137  0.2828481163415429  1.0000
  N   N3        1.0  0.7171489397092261  0.2828524114182974  0.2828474207578209  1.0000
  N   N4        1.0  0.28284877848448897  0.7171516012293474  0.7171482135505332  1.0000
  N   N5        1.0  0.2828527943575066  0.7171478894970108  0.2828485217459076  1.0000
  N   N6        1.0  0.7171510625944809  0.2828477773285622  0.717150278654936  1.0000
