data_image0
_chemical_formula_structural       Mo2RuN6
_chemical_formula_sum              "Mo2 Ru1 N6"
_cell_length_a       4.916648174806963
_cell_length_b       4.916647949889952
_cell_length_c       4.916648094545229
_cell_angle_alpha    59.999999282543065
_cell_angle_beta     59.99999848013722
_cell_angle_gamma    60.00000076977785

_space_group_name_H-M_alt    "P 1"
_space_group_IT_number       1

loop_
  _space_group_symop_operation_xyz
  'x, y, z'

loop_
  _atom_site_type_symbol
  _atom_site_label
  _atom_site_symmetry_multiplicity
  _atom_site_fract_x
  _atom_site_fract_y
  _atom_site_fract_z
  _atom_site_occupancy
  Mo  Mo1       1.0  0.25000016532315367  0.24999983296899178  0.24999995325414745  1.0000
  Mo  Mo2       1.0  0.7500000055165883  0.7500000120562632  0.7500000090928164  1.0000
  Ru  Ru1       1.0  0.9999999581534498  0.9999999775808545  0.9999999914547287  1.0000
  N   N1        1.0  0.268593465774102  0.2685935893530317  0.7314064617481804  1.0000
  N   N2        1.0  0.7314065524299929  0.7314064599355314  0.26859338122528026  1.0000
  N   N3        1.0  0.7314063674222439  0.26859352336981746  0.2685937049739715  1.0000
  N   N4        1.0  0.26859369602307936  0.7314064113320122  0.7314063577576857  1.0000
  N   N5        1.0  0.26859353950877246  0.7314065010461374  0.2685937175144209  1.0000
  N   N6        1.0  0.7314062452849701  0.2685936777752557  0.731406451975113  1.0000
