data_image0
_chemical_formula_structural       Mo2SeN6
_chemical_formula_sum              "Mo2 Se1 N6"
_cell_length_a       4.926763140954422
_cell_length_b       4.926762857880507
_cell_length_c       4.926762810689185
_cell_angle_alpha    60.00000119404341
_cell_angle_beta     60.000002514516346
_cell_angle_gamma    60.00000136660969

_space_group_name_H-M_alt    "P 1"
_space_group_IT_number       1

loop_
  _space_group_symop_operation_xyz
  'x, y, z'

loop_
  _atom_site_type_symbol
  _atom_site_label
  _atom_site_symmetry_multiplicity
  _atom_site_fract_x
  _atom_site_fract_y
  _atom_site_fract_z
  _atom_site_occupancy
  Mo  Mo1       1.0  0.2500000843074182  0.25000015594062813  0.24999979779074002  1.0000
  Mo  Mo2       1.0  0.7500002999515998  0.7499997220513505  0.7500000796780474  1.0000
  Se  Se1       1.0  0.999999923201185  1.2429507807068887e-08  3.0154923125367884e-08  1.0000
  N   N1        1.0  0.2621339057904625  0.2621341678560104  0.7378659349171154  1.0000
  N   N2        1.0  0.7378659369204513  0.7378659636979427  0.26213404595013046  1.0000
  N   N3        1.0  0.7378659989288531  0.2621341354844718  0.2621340137308698  1.0000
  N   N4        1.0  0.26213403675199703  0.7378658319999665  0.7378660135780752  1.0000
  N   N5        1.0  0.2621339045275578  0.7378660415907792  0.2621340754588514  1.0000
  N   N6        1.0  0.7378659361727541  0.26213399052710257  0.7378659906371464  1.0000
