data_image0
_chemical_formula_structural       Mo2SN6
_chemical_formula_sum              "Mo2 S1 N6"
_cell_length_a       4.871152444014015
_cell_length_b       4.871152551046299
_cell_length_c       4.871152680692103
_cell_angle_alpha    59.99999852709398
_cell_angle_beta     59.99999849164574
_cell_angle_gamma    59.99999871443475

_space_group_name_H-M_alt    "P 1"
_space_group_IT_number       1

loop_
  _space_group_symop_operation_xyz
  'x, y, z'

loop_
  _atom_site_type_symbol
  _atom_site_label
  _atom_site_symmetry_multiplicity
  _atom_site_fract_x
  _atom_site_fract_y
  _atom_site_fract_z
  _atom_site_occupancy
  Mo  Mo1       1.0  0.2499998601416054  0.2500000206516095  0.25000019614425145  1.0000
  Mo  Mo2       1.0  0.7499999647560367  0.7500000041263527  0.7500000967170325  1.0000
  S   S1        1.0  8.840233371466709e-08  5.028563475877095e-09  0.9999998013697895  1.0000
  N   N1        1.0  0.24298204224442033  0.24298198860807593  0.7570179835253018  1.0000
  N   N2        1.0  0.7570179810100837  0.7570179104558097  0.24298205335405587  1.0000
  N   N3        1.0  0.7570180041092376  0.24298197400637078  0.24298207590644322  1.0000
  N   N4        1.0  0.24298201993401802  0.7570180080288056  0.7570179026696754  1.0000
  N   N5        1.0  0.2429821229395949  0.7570179890449745  0.24298195085762728  1.0000
  N   N6        1.0  0.7570179517917712  0.2429821111614334  0.7570179412359177  1.0000
