data_image0
_chemical_formula_structural       Mo2VN6
_chemical_formula_sum              "Mo2 V1 N6"
_cell_length_a       4.837192737651822
_cell_length_b       4.837192120519841
_cell_length_c       4.837192279028297
_cell_angle_alpha    59.99999779320024
_cell_angle_beta     59.999998340203604
_cell_angle_gamma    59.99999812635424

_space_group_name_H-M_alt    "P 1"
_space_group_IT_number       1

loop_
  _space_group_symop_operation_xyz
  'x, y, z'

loop_
  _atom_site_type_symbol
  _atom_site_label
  _atom_site_symmetry_multiplicity
  _atom_site_fract_x
  _atom_site_fract_y
  _atom_site_fract_z
  _atom_site_occupancy
  Mo  Mo1       1.0  0.25000071423279474  0.24999972254475758  0.2499994935082862  1.0000
  Mo  Mo2       1.0  0.7500005290356647  0.7499998335327779  0.7500000335454318  1.0000
  V   V1        1.0  0.999999895280753  0.9999999417655262  1.2902510894288404e-07  1.0000
  N   N1        1.0  0.27183509109740045  0.2718350751764925  0.7281650454814639  1.0000
  N   N2        1.0  0.7281648146956539  0.728164934117129  0.27183518004901414  1.0000
  N   N3        1.0  0.7281645596479674  0.2718353709485287  0.27183487313835136  1.0000
  N   N4        1.0  0.2718347871926653  0.7281647826652929  0.7281650036005299  1.0000
  N   N5        1.0  0.27183484490177434  0.7281652486111617  0.2718352674269338  1.0000
  N   N6        1.0  0.7281647451818496  0.2718350847699513  0.7281650262705461  1.0000
