data_image0
_chemical_formula_structural       Na2CrSe6
_chemical_formula_sum              "Na2 Cr1 Se6"
_cell_length_a       6.440180307972239
_cell_length_b       6.4401802366763885
_cell_length_c       6.4401800323430844
_cell_angle_alpha    59.99999841644898
_cell_angle_beta     59.99999732718053
_cell_angle_gamma    59.99999393667527

_space_group_name_H-M_alt    "P 1"
_space_group_IT_number       1

loop_
  _space_group_symop_operation_xyz
  'x, y, z'

loop_
  _atom_site_type_symbol
  _atom_site_label
  _atom_site_symmetry_multiplicity
  _atom_site_fract_x
  _atom_site_fract_y
  _atom_site_fract_z
  _atom_site_occupancy
  Na  Na1       1.0  0.24999996635578908  0.25000000020029955  0.2500000248024243  1.0000
  Na  Na2       1.0  0.7500000387009698  0.7500000120112394  0.7499999600665059  1.0000
  Cr  Cr1       1.0  0.9999999572391842  7.987243541612882e-08  0.9999999566001639  1.0000
  Se  Se1       1.0  0.2692466134917139  0.2692465364347795  0.7307534001261929  1.0000
  Se  Se2       1.0  0.7307534203985424  0.7307534054129483  0.26924658687487546  1.0000
  Se  Se3       1.0  0.7307534601987402  0.26924650976149367  0.2692465337811494  1.0000
  Se  Se4       1.0  0.26924657916050204  0.7307534587103773  0.73075351015268  1.0000
  Se  Se5       1.0  0.26924646811484154  0.7307534938818486  0.2692464978095924  1.0000
  Se  Se6       1.0  0.7307534942370869  0.2692465012141712  0.7307535293915274  1.0000
