data_image0
_chemical_formula_structural       Na2CoTe6
_chemical_formula_sum              "Na2 Co1 Te6"
_cell_length_a       7.034169734561198
_cell_length_b       7.034167886309145
_cell_length_c       7.034168994593244
_cell_angle_alpha    60.00001031625386
_cell_angle_beta     60.00000733013077
_cell_angle_gamma    60.00000993955358

_space_group_name_H-M_alt    "P 1"
_space_group_IT_number       1

loop_
  _space_group_symop_operation_xyz
  'x, y, z'

loop_
  _atom_site_type_symbol
  _atom_site_label
  _atom_site_symmetry_multiplicity
  _atom_site_fract_x
  _atom_site_fract_y
  _atom_site_fract_z
  _atom_site_occupancy
  Na  Na1       1.0  0.2500001105982978  0.24999993641387735  0.2500000177563164  1.0000
  Na  Na2       1.0  0.7499999776447807  0.7500000738943565  0.750000016984638  1.0000
  Co  Co1       1.0  2.813382119000127e-07  0.9999999094609088  0.9999998349404674  1.0000
  Te  Te1       1.0  0.24908365267725696  0.2490836011434817  0.7509163264609704  1.0000
  Te  Te2       1.0  0.7509160801612345  0.7509163377781227  0.24908395010821432  1.0000
  Te  Te3       1.0  0.7509162121210212  0.24908375011363892  0.2490834107326801  1.0000
  Te  Te4       1.0  0.24908368218478183  0.750916329840011  0.7509164871257213  1.0000
  Te  Te5       1.0  0.2490838794880113  0.7509160537955781  0.2490837168618789  1.0000
  Te  Te6       1.0  0.7509161102444476  0.249083986111955  0.7509162613502858  1.0000
