data_image0
_chemical_formula_structural       Na2CS6
_chemical_formula_sum              "Na2 C1 S6"
_cell_length_a       5.903378258708184
_cell_length_b       5.903378327033129
_cell_length_c       5.903378767980956
_cell_angle_alpha    59.99998026222852
_cell_angle_beta     59.999990108756684
_cell_angle_gamma    59.99997921623656

_space_group_name_H-M_alt    "P 1"
_space_group_IT_number       1

loop_
  _space_group_symop_operation_xyz
  'x, y, z'

loop_
  _atom_site_type_symbol
  _atom_site_label
  _atom_site_symmetry_multiplicity
  _atom_site_fract_x
  _atom_site_fract_y
  _atom_site_fract_z
  _atom_site_occupancy
  Na  Na1       1.0  0.2499999947258456  0.2500000236708963  0.2499999577570711  1.0000
  Na  Na2       1.0  0.7499998509561261  0.7499998428010423  0.7500001369910928  1.0000
  C   C1        1.0  6.896515043382497e-06  7.165842556467932e-06  7.228450409530225e-06  1.0000
  S   S1        1.0  0.24002588613299428  0.24002576550072333  0.7599740338822024  1.0000
  S   S2        1.0  0.7599670569922689  0.75996783345033  0.24003232066846888  1.0000
  S   S3        1.0  0.7599742766117016  0.2400254197096058  0.24002608074883217  1.0000
  S   S4        1.0  0.24003320625109814  0.7599670091376514  0.7599669961497143  1.0000
  S   S5        1.0  0.2400257421368779  0.7599744372023891  0.2400258261464344  1.0000
  S   S6        1.0  0.7599670967967157  0.24003242499572366  0.7599676253774659  1.0000
