data_image0
_chemical_formula_structural       Na2CrS6
_chemical_formula_sum              "Na2 Cr1 S6"
_cell_length_a       6.094942666981725
_cell_length_b       6.094942382232038
_cell_length_c       6.0949426623261616
_cell_angle_alpha    59.99999826116781
_cell_angle_beta     60.000002273245094
_cell_angle_gamma    60.000002324222926

_space_group_name_H-M_alt    "P 1"
_space_group_IT_number       1

loop_
  _space_group_symop_operation_xyz
  'x, y, z'

loop_
  _atom_site_type_symbol
  _atom_site_label
  _atom_site_symmetry_multiplicity
  _atom_site_fract_x
  _atom_site_fract_y
  _atom_site_fract_z
  _atom_site_occupancy
  Na  Na1       1.0  0.2500000091855349  0.25000001361762975  0.24999999224175687  1.0000
  Na  Na2       1.0  0.7500000443971756  0.750000018749001  0.7499998530226812  1.0000
  Cr  Cr1       1.0  0.9999999567116012  8.439667014735683e-08  0.9999999958529087  1.0000
  S   S1        1.0  0.25479079046416464  0.25479077135082745  0.745209211133559  1.0000
  S   S2        1.0  0.745209320663467  0.7452091906852447  0.2547907241996296  1.0000
  S   S3        1.0  0.7452092312505445  0.2547906995423296  0.25479082419282756  1.0000
  S   S4        1.0  0.25479068271212935  0.7452093026826246  0.7452093176033485  1.0000
  S   S5        1.0  0.2547906657149208  0.7452092578279647  0.2547907497660897  1.0000
  S   S6        1.0  0.7452092969701556  0.2547907062175456  0.7452092998012682  1.0000
