data_image0
_chemical_formula_structural       Na2CrO6
_chemical_formula_sum              "Na2 Cr1 O6"
_cell_length_a       5.491732169025564
_cell_length_b       5.491731594053523
_cell_length_c       5.49173245973572
_cell_angle_alpha    60.000000258711786
_cell_angle_beta     59.99999877712658
_cell_angle_gamma    59.99999739221889

_space_group_name_H-M_alt    "P 1"
_space_group_IT_number       1

loop_
  _space_group_symop_operation_xyz
  'x, y, z'

loop_
  _atom_site_type_symbol
  _atom_site_label
  _atom_site_symmetry_multiplicity
  _atom_site_fract_x
  _atom_site_fract_y
  _atom_site_fract_z
  _atom_site_occupancy
  Na  Na1       1.0  0.2499999301542189  0.2499999821622239  0.25000004245835  1.0000
  Na  Na2       1.0  0.7499999985779009  0.7500000223121619  0.749999952628145  1.0000
  Cr  Cr1       1.0  0.9999999804424925  0.9999998126664188  0.9999999705184492  1.0000
  O   O1        1.0  0.23071059314402842  0.23071031221672358  0.7692894340093019  1.0000
  O   O2        1.0  0.769289515665943  0.769289915273815  0.23071028305160274  1.0000
  O   O3        1.0  0.769289437564985  0.2307105230884971  0.2307106175938549  1.0000
  O   O4        1.0  0.23071020494869254  0.7692899363388839  0.7692897665643222  1.0000
  O   O5        1.0  0.23071048491645268  0.7692893464571052  0.23071050570207155  1.0000
  O   O6        1.0  0.7692899368995396  0.23071008709591642  0.7692896412001258  1.0000
