data_image0
_chemical_formula_structural       Na2CoS6
_chemical_formula_sum              "Na2 Co1 S6"
_cell_length_a       6.121492722073574
_cell_length_b       6.121492634109231
_cell_length_c       6.121492666103085
_cell_angle_alpha    60.00000327227112
_cell_angle_beta     60.000003660044875
_cell_angle_gamma    60.00000667647694

_space_group_name_H-M_alt    "P 1"
_space_group_IT_number       1

loop_
  _space_group_symop_operation_xyz
  'x, y, z'

loop_
  _atom_site_type_symbol
  _atom_site_label
  _atom_site_symmetry_multiplicity
  _atom_site_fract_x
  _atom_site_fract_y
  _atom_site_fract_z
  _atom_site_occupancy
  Na  Na1       1.0  0.2499999669644644  0.2499999980290748  0.25000000862102817  1.0000
  Na  Na2       1.0  0.7500000018384984  0.7500000421047274  0.7499999709848463  1.0000
  Co  Co1       1.0  0.9999999996011972  0.9999999219715664  9.80902323429413e-09  1.0000
  S   S1        1.0  0.2502493597511187  0.2502492940624257  0.7497506865955876  1.0000
  S   S2        1.0  0.7497507520318818  0.7497506340305568  0.25024925303685075  1.0000
  S   S3        1.0  0.7497507274065366  0.2502493099080708  0.25024934156454476  1.0000
  S   S4        1.0  0.2502492300034336  0.7497506682031326  0.7497507645964906  1.0000
  S   S5        1.0  0.25024925763917477  0.7497506930462797  0.2502493901104742  1.0000
  S   S6        1.0  0.749750726806719  0.250249351088983  0.749750643383156  1.0000
