data_image0
_chemical_formula_structural       Na2CoSe6
_chemical_formula_sum              "Na2 Co1 Se6"
_cell_length_a       6.465669139477668
_cell_length_b       6.46566968868277
_cell_length_c       6.4656692853334174
_cell_angle_alpha    60.00000440164024
_cell_angle_beta     60.000001041951975
_cell_angle_gamma    59.99999546712477

_space_group_name_H-M_alt    "P 1"
_space_group_IT_number       1

loop_
  _space_group_symop_operation_xyz
  'x, y, z'

loop_
  _atom_site_type_symbol
  _atom_site_label
  _atom_site_symmetry_multiplicity
  _atom_site_fract_x
  _atom_site_fract_y
  _atom_site_fract_z
  _atom_site_occupancy
  Na  Na1       1.0  0.24999991246942624  0.2500000667760901  0.24999998064161233  1.0000
  Na  Na2       1.0  0.7499999449002867  0.7499999957516978  0.7500000069722209  1.0000
  Co  Co1       1.0  0.9999999346802166  0.9999999602212277  0.9999998453008166  1.0000
  Se  Se1       1.0  0.25409803678066134  0.25409806476499747  0.7459019733389529  1.0000
  Se  Se2       1.0  0.7459020950937926  0.7459019939743113  0.2540979485151163  1.0000
  Se  Se3       1.0  0.7459021214889793  0.2540979453742039  0.254097970817589  1.0000
  Se  Se4       1.0  0.25409788625808466  0.7459020357017979  0.7459021864886617  1.0000
  Se  Se5       1.0  0.2540979633078243  0.745902029778454  0.2540979896434939  1.0000
  Se  Se6       1.0  0.7459020872295615  0.2540978925764956  0.7459021648017093  1.0000
