data_image0
_chemical_formula_structural       Na2CrTe6
_chemical_formula_sum              "Na2 Cr1 Te6"
_cell_length_a       7.20581336750221
_cell_length_b       7.205813144659571
_cell_length_c       7.205813303496058
_cell_angle_alpha    60.0000016556193
_cell_angle_beta     59.99999879796233
_cell_angle_gamma    60.000001616181926

_space_group_name_H-M_alt    "P 1"
_space_group_IT_number       1

loop_
  _space_group_symop_operation_xyz
  'x, y, z'

loop_
  _atom_site_type_symbol
  _atom_site_label
  _atom_site_symmetry_multiplicity
  _atom_site_fract_x
  _atom_site_fract_y
  _atom_site_fract_z
  _atom_site_occupancy
  Na  Na1       1.0  0.25000003986738584  0.24999996597825225  0.2500000207183898  1.0000
  Na  Na2       1.0  0.7499999727731731  0.7500000067131348  0.7500000131798246  1.0000
  Cr  Cr1       1.0  9.678067622950878e-08  0.9999998827233103  8.796303395192999e-08  1.0000
  Te  Te1       1.0  0.26556955799586046  0.26556971465558876  0.7344303441566785  1.0000
  Te  Te2       1.0  0.7344303337799953  0.7344302937287003  0.26556964489802937  1.0000
  Te  Te3       1.0  0.7344303019979062  0.26556974726014315  0.26556955819448386  1.0000
  Te  Te4       1.0  0.265569697675762  0.734430317213002  0.7344303738467208  1.0000
  Te  Te5       1.0  0.2655698209238735  0.7344302474981227  0.26556964979269965  1.0000
  Te  Te6       1.0  0.7344301769529266  0.265569827172997  0.7344303071910883  1.0000
