data_image0
_chemical_formula_structural       Na2CO6
_chemical_formula_sum              "Na2 C1 O6"
_cell_length_a       4.909607785936773
_cell_length_b       4.909608014315527
_cell_length_c       4.909607160358104
_cell_angle_alpha    59.99999388199189
_cell_angle_beta     59.99999735209995
_cell_angle_gamma    59.99999672566144

_space_group_name_H-M_alt    "P 1"
_space_group_IT_number       1

loop_
  _space_group_symop_operation_xyz
  'x, y, z'

loop_
  _atom_site_type_symbol
  _atom_site_label
  _atom_site_symmetry_multiplicity
  _atom_site_fract_x
  _atom_site_fract_y
  _atom_site_fract_z
  _atom_site_occupancy
  Na  Na1       1.0  0.25000000634641234  0.24999995736918468  0.2500000519609285  1.0000
  Na  Na2       1.0  0.7499999971096634  0.749999994342381  0.7499999916680702  1.0000
  C   C1        1.0  0.9999999784047146  2.2451292571537596e-08  0.9999999995719956  1.0000
  O   O1        1.0  0.21773471396084668  0.2177344823309365  0.7822653505845307  1.0000
  O   O2        1.0  0.7822653543747979  0.7822654793589827  0.21773463932091966  1.0000
  O   O3        1.0  0.782265403948748  0.2177345519289555  0.21773462073597094  1.0000
  O   O4        1.0  0.21773458342293261  0.7822654621473074  0.782265438452506  1.0000
  O   O5        1.0  0.2177345544579325  0.7822654686015585  0.21773461669560096  1.0000
  O   O6        1.0  0.7822654205589972  0.21773461781775671  0.7822654226828335  1.0000
