data_image0
_chemical_formula_structural       Na2CoO6
_chemical_formula_sum              "Na2 Co1 O6"
_cell_length_a       5.667137722085784
_cell_length_b       5.6671371398172194
_cell_length_c       5.667137612461619
_cell_angle_alpha    60.0000009941038
_cell_angle_beta     60.00000001593329
_cell_angle_gamma    60.00000088239351

_space_group_name_H-M_alt    "P 1"
_space_group_IT_number       1

loop_
  _space_group_symop_operation_xyz
  'x, y, z'

loop_
  _atom_site_type_symbol
  _atom_site_label
  _atom_site_symmetry_multiplicity
  _atom_site_fract_x
  _atom_site_fract_y
  _atom_site_fract_z
  _atom_site_occupancy
  Na  Na1       1.0  0.24999997763452553  0.25000002147202444  0.24999999643637136  1.0000
  Na  Na2       1.0  0.7500000194689274  0.7500000125488372  0.7500000319550689  1.0000
  Co  Co1       1.0  1.7405396483427312e-08  3.695540887113361e-07  0.9999997359378985  1.0000
  O   O1        1.0  0.222439541420228  0.22243989639977735  0.7775602894449247  1.0000
  O   O2        1.0  0.7775605509318886  0.7775602002940022  0.22243965116292982  1.0000
  O   O3        1.0  0.7775602921803528  0.22243973279279564  0.22243978427652653  1.0000
  O   O4        1.0  0.22243981615096273  0.7775598819678767  0.7775605198856519  1.0000
  O   O5        1.0  0.22243958975926398  0.7775601315056928  0.22243977450823788  1.0000
  O   O6        1.0  0.7775601826219363  0.22243968424051241  0.7775602018749705  1.0000
