data_image0
_chemical_formula_structural       Na2FeS6
_chemical_formula_sum              "Na2 Fe1 S6"
_cell_length_a       6.192806423207711
_cell_length_b       6.192807028543068
_cell_length_c       6.192805507214487
_cell_angle_alpha    60.000000546999246
_cell_angle_beta     60.00000530007585
_cell_angle_gamma    60.000004426016154

_space_group_name_H-M_alt    "P 1"
_space_group_IT_number       1

loop_
  _space_group_symop_operation_xyz
  'x, y, z'

loop_
  _atom_site_type_symbol
  _atom_site_label
  _atom_site_symmetry_multiplicity
  _atom_site_fract_x
  _atom_site_fract_y
  _atom_site_fract_z
  _atom_site_occupancy
  Na  Na1       1.0  0.24999998761145487  0.2500000036658557  0.2500000112199588  1.0000
  Na  Na2       1.0  0.7499999748878989  0.7500000307744693  0.7499999176284821  1.0000
  Fe  Fe1       1.0  1.8852640500499514e-08  2.1754586710181377e-08  0.9999999393269597  1.0000
  S   S1        1.0  0.24882043759630984  0.24882035919127582  0.7511796822260177  1.0000
  S   S2        1.0  0.7511795536829468  0.7511796000968399  0.2488204361306135  1.0000
  S   S3        1.0  0.7511795925883297  0.2488203589268868  0.2488203885583949  1.0000
  S   S4        1.0  0.2488203726416448  0.7511796952903298  0.7511795500283898  1.0000
  S   S5        1.0  0.2488205448267834  0.7511795137702745  0.24882043710759558  1.0000
  S   S6        1.0  0.7511795200178589  0.24882049891546248  0.7511795321843473  1.0000
