data_image0
_chemical_formula_structural       Na2FeTe6
_chemical_formula_sum              "Na2 Fe1 Te6"
_cell_length_a       7.287340472457827
_cell_length_b       7.287341585405778
_cell_length_c       7.287340458323069
_cell_angle_alpha    60.00000663388399
_cell_angle_beta     59.99999906314689
_cell_angle_gamma    60.00000294679117

_space_group_name_H-M_alt    "P 1"
_space_group_IT_number       1

loop_
  _space_group_symop_operation_xyz
  'x, y, z'

loop_
  _atom_site_type_symbol
  _atom_site_label
  _atom_site_symmetry_multiplicity
  _atom_site_fract_x
  _atom_site_fract_y
  _atom_site_fract_z
  _atom_site_occupancy
  Na  Na1       1.0  0.24999994252198102  0.2500001357090819  0.24999999902623907  1.0000
  Na  Na2       1.0  0.7500000377895877  0.7499998525137758  0.7500000128379504  1.0000
  Fe  Fe1       1.0  1.0484841466073493e-08  0.9999999210095983  5.895314835787768e-08  1.0000
  Te  Te1       1.0  0.23198639683148578  0.23198691333385135  0.7680133350753318  1.0000
  Te  Te2       1.0  0.7680135831121024  0.7680130664857722  0.23198667842997936  1.0000
  Te  Te3       1.0  0.7680135140046568  0.23198675324602647  0.23198629510772428  1.0000
  Te  Te4       1.0  0.2319866847632514  0.7680132736317025  0.7680136046677714  1.0000
  Te  Te5       1.0  0.23198650233753967  0.7680131716270376  0.2319866239099127  1.0000
  Te  Te6       1.0  0.7680133271059101  0.231986917434635  0.7680133772906199  1.0000
