data_image0
_chemical_formula_structural       Na2GeO6
_chemical_formula_sum              "Na2 Ge1 O6"
_cell_length_a       5.1629995148688925
_cell_length_b       5.163007169249714
_cell_length_c       5.1629945602887
_cell_angle_alpha    60.00003143868604
_cell_angle_beta     60.00011676615865
_cell_angle_gamma    59.99999533511318

_space_group_name_H-M_alt    "P 1"
_space_group_IT_number       1

loop_
  _space_group_symop_operation_xyz
  'x, y, z'

loop_
  _atom_site_type_symbol
  _atom_site_label
  _atom_site_symmetry_multiplicity
  _atom_site_fract_x
  _atom_site_fract_y
  _atom_site_fract_z
  _atom_site_occupancy
  Na  Na1       1.0  0.24999933899627116  0.2499997935904549  0.25000113249648  1.0000
  Na  Na2       1.0  0.7500003422294373  0.7500010602556154  0.7500001613477598  1.0000
  Ge  Ge1       1.0  0.9999978186729217  2.894028238318299e-06  7.089201900487942e-07  1.0000
  O   O1        1.0  0.2581671494616985  0.25816902585051843  0.7418314802442324  1.0000
  O   O2        1.0  0.7418336378179373  0.7418299255293703  0.2581680095972161  1.0000
  O   O3        1.0  0.7418305407485386  0.25816778048802186  0.25817294826203185  1.0000
  O   O4        1.0  0.2581680866364159  0.7418306727385866  0.7418307855771821  1.0000
  O   O5        1.0  0.25817022532640205  0.7418307428695982  0.25817027753276944  1.0000
  O   O6        1.0  0.741830899191408  0.2581678811551797  0.7418265345000562  1.0000
