data_image0
_chemical_formula_structural       Na2HfO6
_chemical_formula_sum              "Na2 Hf1 O6"
_cell_length_a       5.803815534615456
_cell_length_b       5.803817474447177
_cell_length_c       5.803823350543645
_cell_angle_alpha    59.99995320678968
_cell_angle_beta     59.99995681421444
_cell_angle_gamma    60.0000277996271

_space_group_name_H-M_alt    "P 1"
_space_group_IT_number       1

loop_
  _space_group_symop_operation_xyz
  'x, y, z'

loop_
  _atom_site_type_symbol
  _atom_site_label
  _atom_site_symmetry_multiplicity
  _atom_site_fract_x
  _atom_site_fract_y
  _atom_site_fract_z
  _atom_site_occupancy
  Na  Na1       1.0  0.25000016999835584  0.2499996048136724  0.25000015460216546  1.0000
  Na  Na2       1.0  0.7500001410242938  0.7499999750731741  0.7499999525345415  1.0000
  Hf  Hf1       1.0  7.683743485841355e-08  0.999999482990974  9.368547348072982e-07  1.0000
  O   O1        1.0  0.2481796953528692  0.24818126854784897  0.7518193422152673  1.0000
  O   O2        1.0  0.751819081202695  0.7518194171042529  0.2481805175076566  1.0000
  O   O3        1.0  0.7518202727602942  0.24818006284060548  0.24818019846110945  1.0000
  O   O4        1.0  0.2481805601978925  0.7518189599431163  0.7518193145936966  1.0000
  O   O5        1.0  0.2481809094347765  0.7518194731886599  0.24818091343968324  1.0000
  O   O6        1.0  0.7518192428237875  0.24818144248036736  0.7518189790793025  1.0000
