data_image0
_chemical_formula_structural       Na2HfTe6
_chemical_formula_sum              "Na2 Hf1 Te6"
_cell_length_a       7.516742728375421
_cell_length_b       7.516742890983748
_cell_length_c       7.516742567351389
_cell_angle_alpha    60.000002296644055
_cell_angle_beta     60.00000050329934
_cell_angle_gamma    59.99999884757706

_space_group_name_H-M_alt    "P 1"
_space_group_IT_number       1

loop_
  _space_group_symop_operation_xyz
  'x, y, z'

loop_
  _atom_site_type_symbol
  _atom_site_label
  _atom_site_symmetry_multiplicity
  _atom_site_fract_x
  _atom_site_fract_y
  _atom_site_fract_z
  _atom_site_occupancy
  Na  Na1       1.0  0.25000002695059315  0.24999999678284318  0.2500000168422485  1.0000
  Na  Na2       1.0  0.7499999715040547  0.7500000050127336  0.7499999754750634  1.0000
  Hf  Hf1       1.0  3.073941703336025e-08  0.9999999723009507  0.9999999958190889  1.0000
  Te  Te1       1.0  0.26902925222611546  0.2690292428223521  0.7309707528540311  1.0000
  Te  Te2       1.0  0.7309707578975891  0.7309707377915992  0.26902925486247303  1.0000
  Te  Te3       1.0  0.7309707627242493  0.26902923088571723  0.26902926726932974  1.0000
  Te  Te4       1.0  0.2690292104061794  0.7309708100143998  0.7309707633901812  1.0000
  Te  Te5       1.0  0.26902921329983165  0.7309707627242364  0.26902923459243044  1.0000
  Te  Te6       1.0  0.7309707645482847  0.26902924558876395  0.730970742153256  1.0000
