data_image0
_chemical_formula_structural       Na2HfS6
_chemical_formula_sum              "Na2 Hf1 S6"
_cell_length_a       6.521671999445231
_cell_length_b       6.521672792936939
_cell_length_c       6.521672330943725
_cell_angle_alpha    60.00000001935026
_cell_angle_beta     60.0000003728861
_cell_angle_gamma    59.99999919792134

_space_group_name_H-M_alt    "P 1"
_space_group_IT_number       1

loop_
  _space_group_symop_operation_xyz
  'x, y, z'

loop_
  _atom_site_type_symbol
  _atom_site_label
  _atom_site_symmetry_multiplicity
  _atom_site_fract_x
  _atom_site_fract_y
  _atom_site_fract_z
  _atom_site_occupancy
  Na  Na1       1.0  0.24999993644643087  0.25000007810359026  0.2500000143766907  1.0000
  Na  Na2       1.0  0.7500000951911303  0.7499999451047332  0.7500000080068047  1.0000
  Hf  Hf1       1.0  1.772402085042152e-08  0.9999999680746551  1.0830169944789151e-07  1.0000
  S   S1        1.0  0.2683583282071002  0.26835834276358556  0.7316416684230792  1.0000
  S   S2        1.0  0.7316416405158591  0.7316415133061904  0.26835846898699284  1.0000
  S   S3        1.0  0.7316415937651671  0.26835838996680084  0.2683585163599258  1.0000
  S   S4        1.0  0.2683584589748446  0.7316417027260897  0.7316413917293533  1.0000
  S   S5        1.0  0.2683583390835099  0.7316416246298569  0.26835832397090714  1.0000
  S   S6        1.0  0.7316415917211524  0.2683584248699355  0.7316414934141532  1.0000
