data_image0
_chemical_formula_structural       Na2IrO6
_chemical_formula_sum              "Na2 Ir1 O6"
_cell_length_a       5.807373854290218
_cell_length_b       5.807374471347047
_cell_length_c       5.807374857546632
_cell_angle_alpha    59.99999959834899
_cell_angle_beta     59.99999432916683
_cell_angle_gamma    59.99999705096242

_space_group_name_H-M_alt    "P 1"
_space_group_IT_number       1

loop_
  _space_group_symop_operation_xyz
  'x, y, z'

loop_
  _atom_site_type_symbol
  _atom_site_label
  _atom_site_symmetry_multiplicity
  _atom_site_fract_x
  _atom_site_fract_y
  _atom_site_fract_z
  _atom_site_occupancy
  Na  Na1       1.0  0.24999999082508392  0.2499999635613116  0.250000000669178  1.0000
  Na  Na2       1.0  0.7500000437520159  0.7500000108939484  0.7499999544787025  1.0000
  Ir  Ir1       1.0  0.9999998710786594  5.272369706699392e-08  8.11475331060066e-08  1.0000
  O   O1        1.0  0.228412685455397  0.22841278228411982  0.7715872507911138  1.0000
  O   O2        1.0  0.7715873678024756  0.7715870466537522  0.22841276433117547  1.0000
  O   O3        1.0  0.7715874409738306  0.2284127147988663  0.2284126978130645  1.0000
  O   O4        1.0  0.22841255473938452  0.7715873165979852  0.7715874342663935  1.0000
  O   O5        1.0  0.22841255580988376  0.7715873245960154  0.22841269116658586  1.0000
  O   O6        1.0  0.7715874149164085  0.22841283544664182  0.7715873202054954  1.0000
