data_image0
_chemical_formula_structural       Na2MnO6
_chemical_formula_sum              "Na2 Mn1 O6"
_cell_length_a       5.130514277851653
_cell_length_b       5.130513885227424
_cell_length_c       5.130514270170273
_cell_angle_alpha    59.999999834699175
_cell_angle_beta     60.000015747970934
_cell_angle_gamma    60.00000948971841

_space_group_name_H-M_alt    "P 1"
_space_group_IT_number       1

loop_
  _space_group_symop_operation_xyz
  'x, y, z'

loop_
  _atom_site_type_symbol
  _atom_site_label
  _atom_site_symmetry_multiplicity
  _atom_site_fract_x
  _atom_site_fract_y
  _atom_site_fract_z
  _atom_site_occupancy
  Na  Na1       1.0  0.25000005355380245  0.24999998020961808  0.25000002785918024  1.0000
  Na  Na2       1.0  0.7499999091772764  0.7500000671492558  0.7500000563997499  1.0000
  Mn  Mn1       1.0  1.597672227234579e-08  3.031715841541962e-07  0.9999996786486994  1.0000
  O   O1        1.0  0.2472084225089036  0.24720725188621603  0.752792032700194  1.0000
  O   O2        1.0  0.7527923881217148  0.752791764211949  0.24720782163421653  1.0000
  O   O3        1.0  0.7527916155169547  0.24720850806817588  0.2472083209442165  1.0000
  O   O4        1.0  0.24720758139159227  0.7527921217619656  0.7527930108198152  1.0000
  O   O5        1.0  0.2472077765854346  0.7527920119552536  0.24720738675843357  1.0000
  O   O6        1.0  0.7527922688541022  0.24720786830121672  0.7527917495433256  1.0000
