data_image0
_chemical_formula_structural       Na2MnSe6
_chemical_formula_sum              "Na2 Mn1 Se6"
_cell_length_a       6.6607447077279955
_cell_length_b       6.660745028688493
_cell_length_c       6.660744413840513
_cell_angle_alpha    60.0000012701218
_cell_angle_beta     60.000002608111586
_cell_angle_gamma    60.00000066390466

_space_group_name_H-M_alt    "P 1"
_space_group_IT_number       1

loop_
  _space_group_symop_operation_xyz
  'x, y, z'

loop_
  _atom_site_type_symbol
  _atom_site_label
  _atom_site_symmetry_multiplicity
  _atom_site_fract_x
  _atom_site_fract_y
  _atom_site_fract_z
  _atom_site_occupancy
  Na  Na1       1.0  0.24999997220452763  0.2500000003629968  0.25000001448040904  1.0000
  Na  Na2       1.0  0.7499999770789376  0.750000012121493  0.7500000046896311  1.0000
  Mn  Mn1       1.0  0.9999999846409922  1.0848628335787999e-07  0.9999999159030183  1.0000
  Se  Se1       1.0  0.24840327445306354  0.24840307922532376  0.7515968379070173  1.0000
  Se  Se2       1.0  0.7515967562071013  0.751596756739112  0.24840324985337495  1.0000
  Se  Se3       1.0  0.7515968674588358  0.2484030767037729  0.24840328608845325  1.0000
  Se  Se4       1.0  0.24840321953245761  0.7515968659081941  0.7515967081719386  1.0000
  Se  Se5       1.0  0.24840313693498509  0.7515969610092158  0.24840316501825896  1.0000
  Se  Se6       1.0  0.7515968148511797  0.24840313238029815  0.7515968064425836  1.0000
