data_image0
_chemical_formula_structural       Na2MoS6
_chemical_formula_sum              "Na2 Mo1 S6"
_cell_length_a       6.4409195548867535
_cell_length_b       6.440919295678589
_cell_length_c       6.440919068031711
_cell_angle_alpha    60.00000305920438
_cell_angle_beta     60.00000483744347
_cell_angle_gamma    60.000001310149585

_space_group_name_H-M_alt    "P 1"
_space_group_IT_number       1

loop_
  _space_group_symop_operation_xyz
  'x, y, z'

loop_
  _atom_site_type_symbol
  _atom_site_label
  _atom_site_symmetry_multiplicity
  _atom_site_fract_x
  _atom_site_fract_y
  _atom_site_fract_z
  _atom_site_occupancy
  Na  Na1       1.0  0.2499999604623899  0.2500000328640988  0.2500000184626289  1.0000
  Na  Na2       1.0  0.7500000260413032  0.7499999711913752  0.7500000296829733  1.0000
  Mo  Mo1       1.0  3.0983298250276494e-08  3.612861834906518e-08  0.9999999105513983  1.0000
  S   S1        1.0  0.25118086485045266  0.2511806767953853  0.74881934929218  1.0000
  S   S2        1.0  0.7488192627746338  0.7488192911314706  0.251180779878354  1.0000
  S   S3        1.0  0.7488190920381949  0.2511808389628286  0.25118073669282254  1.0000
  S   S4        1.0  0.2511805871395666  0.7488193932733979  0.7488192345823578  1.0000
  S   S5        1.0  0.2511807793519322  0.7488192063625733  0.251180651762392  1.0000
  S   S6        1.0  0.7488194055358359  0.2511805790196767  0.7488192559281595  1.0000
