data_image0
_chemical_formula_structural       Na2MnS6
_chemical_formula_sum              "Na2 Mn1 S6"
_cell_length_a       6.292387970420569
_cell_length_b       6.292388884700996
_cell_length_c       6.292388161158207
_cell_angle_alpha    60.000000579415264
_cell_angle_beta     59.999998793787086
_cell_angle_gamma    60.000003678555586

_space_group_name_H-M_alt    "P 1"
_space_group_IT_number       1

loop_
  _space_group_symop_operation_xyz
  'x, y, z'

loop_
  _atom_site_type_symbol
  _atom_site_label
  _atom_site_symmetry_multiplicity
  _atom_site_fract_x
  _atom_site_fract_y
  _atom_site_fract_z
  _atom_site_occupancy
  Na  Na1       1.0  0.24999987084979827  0.2499999792368688  0.2500001828121851  1.0000
  Na  Na2       1.0  0.7500000398229107  0.7500000817435462  0.750000016453955  1.0000
  Mn  Mn1       1.0  1.9645086332118924e-08  1.8879990713423088e-07  1.3257153642237487e-07  1.0000
  S   S1        1.0  0.2479991921387665  0.24799896638898386  0.7520009506795836  1.0000
  S   S2        1.0  0.7520009910537966  0.7520009817007672  0.2479990702402167  1.0000
  S   S3        1.0  0.7520011079489096  0.24799891600889604  0.24799918548806502  1.0000
  S   S4        1.0  0.24799930713754947  0.7520006116604447  0.7520004656422572  1.0000
  S   S5        1.0  0.2479990948467112  0.752000915814478  0.24799930458932096  1.0000
  S   S6        1.0  0.7520006079408428  0.2479993008772175  0.7520005552427551  1.0000
