data_image0
_chemical_formula_structural       Na2MoSe6
_chemical_formula_sum              "Na2 Mo1 Se6"
_cell_length_a       6.822365220716859
_cell_length_b       6.822365288219
_cell_length_c       6.822365403706337
_cell_angle_alpha    59.999998116495846
_cell_angle_beta     59.999998442629526
_cell_angle_gamma    59.99999938547822

_space_group_name_H-M_alt    "P 1"
_space_group_IT_number       1

loop_
  _space_group_symop_operation_xyz
  'x, y, z'

loop_
  _atom_site_type_symbol
  _atom_site_label
  _atom_site_symmetry_multiplicity
  _atom_site_fract_x
  _atom_site_fract_y
  _atom_site_fract_z
  _atom_site_occupancy
  Na  Na1       1.0  0.24999999630629394  0.25000000037334247  0.2500000093479475  1.0000
  Na  Na2       1.0  0.7499999978772219  0.7500000047104097  0.7500000027145066  1.0000
  Mo  Mo1       1.0  4.033014503966026e-08  0.9999999856384716  2.0728339126714912e-08  1.0000
  Se  Se1       1.0  0.250868538105953  0.2508685326909004  0.7491314353604394  1.0000
  Se  Se2       1.0  0.7491314973639348  0.7491315262485837  0.25086845730836516  1.0000
  Se  Se3       1.0  0.74913141765887  0.2508685274169608  0.25086859926481103  1.0000
  Se  Se4       1.0  0.25086858712568444  0.7491313950880045  0.7491314341288451  1.0000
  Se  Se5       1.0  0.25086852466607357  0.7491314605435434  0.25086855475083203  1.0000
  Se  Se6       1.0  0.7491314195278915  0.2508685624921187  0.7491314747962097  1.0000
