data_image0
_chemical_formula_structural       Na2MoO6
_chemical_formula_sum              "Na2 Mo1 O6"
_cell_length_a       5.768102235290377
_cell_length_b       5.76810386537347
_cell_length_c       5.768102710194148
_cell_angle_alpha    59.999992657866784
_cell_angle_beta     59.999998836793324
_cell_angle_gamma    59.9999898444212

_space_group_name_H-M_alt    "P 1"
_space_group_IT_number       1

loop_
  _space_group_symop_operation_xyz
  'x, y, z'

loop_
  _atom_site_type_symbol
  _atom_site_label
  _atom_site_symmetry_multiplicity
  _atom_site_fract_x
  _atom_site_fract_y
  _atom_site_fract_z
  _atom_site_occupancy
  Na  Na1       1.0  0.24999994579324947  0.249999923402426  0.25000006361538346  1.0000
  Na  Na2       1.0  0.7500000308708749  0.7499999464416618  0.7499999678425878  1.0000
  Mo  Mo1       1.0  0.9999998026170882  0.9999979977225434  3.890247425973826e-07  1.0000
  O   O1        1.0  0.23314158966343637  0.2331420482807734  0.766858455592001  1.0000
  O   O2        1.0  0.7668582713010094  0.7668587452013642  0.23314173707386174  1.0000
  O   O3        1.0  0.7668583553753175  0.23314205973858498  0.23314155372569756  1.0000
  O   O4        1.0  0.23314193415296058  0.7668586551812162  0.7668582177579611  1.0000
  O   O5        1.0  0.2331418444988457  0.7668585326260127  0.23314185855780276  1.0000
  O   O6        1.0  0.7668583125207206  0.23314223749971427  0.7668582428341914  1.0000
