data_image0
_chemical_formula_structural       Na2MnTe6
_chemical_formula_sum              "Na2 Mn1 Te6"
_cell_length_a       7.05851511452076
_cell_length_b       7.058515805104853
_cell_length_c       7.058515204994122
_cell_angle_alpha    59.99999987694819
_cell_angle_beta     60.000001392978255
_cell_angle_gamma    60.000013613956

_space_group_name_H-M_alt    "P 1"
_space_group_IT_number       1

loop_
  _space_group_symop_operation_xyz
  'x, y, z'

loop_
  _atom_site_type_symbol
  _atom_site_label
  _atom_site_symmetry_multiplicity
  _atom_site_fract_x
  _atom_site_fract_y
  _atom_site_fract_z
  _atom_site_occupancy
  Na  Na1       1.0  0.25000000089443775  0.2499999574337076  0.24999997020014655  1.0000
  Na  Na2       1.0  0.7500000409014583  0.7500000128467138  0.7500000124769232  1.0000
  Mn  Mn1       1.0  5.038107690567425e-08  7.461062251575324e-08  1.3442941754894582e-07  1.0000
  Te  Te1       1.0  0.25667870856936453  0.2566790309693457  0.7433211046857494  1.0000
  Te  Te2       1.0  0.743321379522027  0.7433212568400199  0.25667857424043883  1.0000
  Te  Te3       1.0  0.74332080208237  0.25667911638329727  0.2566789508125234  1.0000
  Te  Te4       1.0  0.25667901526676895  0.7433207567297712  0.7433211615035725  1.0000
  Te  Te5       1.0  0.25667907921011035  0.7433208179082486  0.25667896667529105  1.0000
  Te  Te6       1.0  0.7433209173619357  0.25667897885908797  0.7433211338706205  1.0000
