data_image0
_chemical_formula_structural       Na2NbO6
_chemical_formula_sum              "Na2 Nb1 O6"
_cell_length_a       5.604799593920439
_cell_length_b       5.604799680789794
_cell_length_c       5.604799682002578
_cell_angle_alpha    59.99999989250746
_cell_angle_beta     59.99999959887683
_cell_angle_gamma    59.999999924452766

_space_group_name_H-M_alt    "P 1"
_space_group_IT_number       1

loop_
  _space_group_symop_operation_xyz
  'x, y, z'

loop_
  _atom_site_type_symbol
  _atom_site_label
  _atom_site_symmetry_multiplicity
  _atom_site_fract_x
  _atom_site_fract_y
  _atom_site_fract_z
  _atom_site_occupancy
  Na  Na1       1.0  0.2499999979447668  0.24999999980462773  0.25000000276561546  1.0000
  Na  Na2       1.0  0.7499999979546993  0.7499999994138832  0.7500000026682767  1.0000
  Nb  Nb1       1.0  0.999999994672764  0.9999999912593138  1.4170701412508077e-08  1.0000
  O   O1        1.0  0.2492706646375245  0.2492706477553505  0.7507293452651254  1.0000
  O   O2        1.0  0.7507293598547907  0.7507293645741896  0.2492706375326426  1.0000
  O   O3        1.0  0.7507293435383339  0.24927065569255152  0.24927066499036807  1.0000
  O   O4        1.0  0.24927064412033412  0.7507293435259593  0.7507293392113679  1.0000
  O   O5        1.0  0.2492706410700384  0.7507293508768427  0.24927065531282827  1.0000
  O   O6        1.0  0.7507293492522477  0.24927065271201132  0.7507293364510015  1.0000
