data_image0
_chemical_formula_structural       Na2NbSe6
_chemical_formula_sum              "Na2 Nb1 Se6"
_cell_length_a       6.7905676273578965
_cell_length_b       6.790567122010303
_cell_length_c       6.790567310825743
_cell_angle_alpha    59.99999900835126
_cell_angle_beta     60.0000023357361
_cell_angle_gamma    59.99999651947295

_space_group_name_H-M_alt    "P 1"
_space_group_IT_number       1

loop_
  _space_group_symop_operation_xyz
  'x, y, z'

loop_
  _atom_site_type_symbol
  _atom_site_label
  _atom_site_symmetry_multiplicity
  _atom_site_fract_x
  _atom_site_fract_y
  _atom_site_fract_z
  _atom_site_occupancy
  Na  Na1       1.0  0.24999998640905355  0.24999998559114386  0.2500000234025546  1.0000
  Na  Na2       1.0  0.749999983325178  0.7499999712022103  0.7500000052927047  1.0000
  Nb  Nb1       1.0  0.999999949637819  8.476907815048757e-08  2.1084957358462348e-08  1.0000
  Se  Se1       1.0  0.2612425821442291  0.2612426355636125  0.7387573733055969  1.0000
  Se  Se2       1.0  0.7387574788630304  0.7387574096060114  0.2612425434755486  1.0000
  Se  Se3       1.0  0.7387574553509615  0.2612425040320526  0.26124251486264866  1.0000
  Se  Se4       1.0  0.2612425293100991  0.7387574130821588  0.738757489392992  1.0000
  Se  Se5       1.0  0.26124255196989127  0.7387574509753251  0.2612424987934563  1.0000
  Se  Se6       1.0  0.738757472143268  0.26124256714033883  0.7387575191753767  1.0000
