data_image0
_chemical_formula_structural       Na2NiO6
_chemical_formula_sum              "Na2 Ni1 O6"
_cell_length_a       5.231116860469226
_cell_length_b       5.231119551600373
_cell_length_c       5.231117429418024
_cell_angle_alpha    60.000017792248244
_cell_angle_beta     59.99998214599565
_cell_angle_gamma    59.99999680827094

_space_group_name_H-M_alt    "P 1"
_space_group_IT_number       1

loop_
  _space_group_symop_operation_xyz
  'x, y, z'

loop_
  _atom_site_type_symbol
  _atom_site_label
  _atom_site_symmetry_multiplicity
  _atom_site_fract_x
  _atom_site_fract_y
  _atom_site_fract_z
  _atom_site_occupancy
  Na  Na1       1.0  0.24999886829306464  0.25000023730418125  0.25000081760106196  1.0000
  Na  Na2       1.0  0.7500004652518332  0.7499996864367355  0.749998873292361  1.0000
  Ni  Ni1       1.0  3.7449122779371483e-07  1.943251973122985e-07  1.0327099587535366e-06  1.0000
  O   O1        1.0  0.24940822259748174  0.24940867445836748  0.750591158272319  1.0000
  O   O2        1.0  0.750593084713862  0.7505926189232791  0.24940788555502347  1.0000
  O   O3        1.0  0.7505932019639328  0.24940612989467323  0.24940874498236681  1.0000
  O   O4        1.0  0.2494073497775532  0.7505926887682438  0.7505920936831897  1.0000
  O   O5        1.0  0.24940620938219724  0.7505920281986015  0.24940878536631206  1.0000
  O   O6        1.0  0.750591853157783  0.2494082584388187  0.7505905031678878  1.0000
