data_image0
_chemical_formula_structural       Na2NiTe6
_chemical_formula_sum              "Na2 Ni1 Te6"
_cell_length_a       7.042497949284329
_cell_length_b       7.042505265097854
_cell_length_c       7.042503088796742
_cell_angle_alpha    59.99998488979489
_cell_angle_beta     60.00002701719853
_cell_angle_gamma    59.9999716376765

_space_group_name_H-M_alt    "P 1"
_space_group_IT_number       1

loop_
  _space_group_symop_operation_xyz
  'x, y, z'

loop_
  _atom_site_type_symbol
  _atom_site_label
  _atom_site_symmetry_multiplicity
  _atom_site_fract_x
  _atom_site_fract_y
  _atom_site_fract_z
  _atom_site_occupancy
  Na  Na1       1.0  0.2499997472049656  0.25000004136722076  0.25000001614854583  1.0000
  Na  Na2       1.0  0.7500001663253559  0.7500001832296316  0.7499999058343904  1.0000
  Ni  Ni1       1.0  7.461672559955974e-07  0.9999994191491964  0.9999979890505094  1.0000
  Te  Te1       1.0  0.26097312834822256  0.26097518595574304  0.7390260444693495  1.0000
  Te  Te2       1.0  0.7390270634347376  0.739025207330748  0.26097489365859294  1.0000
  Te  Te3       1.0  0.7390259678258059  0.26097407403769834  0.2609751867185525  1.0000
  Te  Te4       1.0  0.26097374425694764  0.739025594054589  0.7390258526143119  1.0000
  Te  Te5       1.0  0.260971711837125  0.7390271054545049  0.26097391668804243  1.0000
  Te  Te6       1.0  0.739027789978371  0.26097341478550884  0.7390259596741836  1.0000
