data_image0
_chemical_formula_structural       Na2NbS6
_chemical_formula_sum              "Na2 Nb1 S6"
_cell_length_a       6.3767617046777785
_cell_length_b       6.376762361732701
_cell_length_c       6.376760968599235
_cell_angle_alpha    60.000005211493445
_cell_angle_beta     60.00000439613457
_cell_angle_gamma    60.00000214321114

_space_group_name_H-M_alt    "P 1"
_space_group_IT_number       1

loop_
  _space_group_symop_operation_xyz
  'x, y, z'

loop_
  _atom_site_type_symbol
  _atom_site_label
  _atom_site_symmetry_multiplicity
  _atom_site_fract_x
  _atom_site_fract_y
  _atom_site_fract_z
  _atom_site_occupancy
  Na  Na1       1.0  0.24999997929731135  0.24999994303809447  0.24999994762270208  1.0000
  Na  Na2       1.0  0.7500000259052729  0.7499999616382509  0.7500000336927509  1.0000
  Nb  Nb1       1.0  2.198373408779852e-07  2.4968283649413017e-08  0.999999670595545  1.0000
  S   S1        1.0  0.2620804181444866  0.2620800976339933  0.7379198257334002  1.0000
  S   S2        1.0  0.7379194920368879  0.7379198204868122  0.26208037984915655  1.0000
  S   S3        1.0  0.7379199787297102  0.2620801686155797  0.262080217405902  1.0000
  S   S4        1.0  0.2620798591421106  0.7379200913786771  0.7379199035769172  1.0000
  S   S5        1.0  0.262080073394273  0.7379199726858608  0.2620801787352194  1.0000
  S   S6        1.0  0.7379200112635855  0.2620799435143018  0.7379199295920578  1.0000
