data_image0
_chemical_formula_structural       Na2NiS6
_chemical_formula_sum              "Na2 Ni1 S6"
_cell_length_a       6.141980496164936
_cell_length_b       6.141980096719289
_cell_length_c       6.141980313502196
_cell_angle_alpha    60.00000101562595
_cell_angle_beta     60.000001201304045
_cell_angle_gamma    60.00000180489772

_space_group_name_H-M_alt    "P 1"
_space_group_IT_number       1

loop_
  _space_group_symop_operation_xyz
  'x, y, z'

loop_
  _atom_site_type_symbol
  _atom_site_label
  _atom_site_symmetry_multiplicity
  _atom_site_fract_x
  _atom_site_fract_y
  _atom_site_fract_z
  _atom_site_occupancy
  Na  Na1       1.0  0.2500000354278175  0.25000001614414424  0.24999996462554633  1.0000
  Na  Na2       1.0  0.7500000011558816  0.7499999746523811  0.750000027290212  1.0000
  Ni  Ni1       1.0  0.9999999634065445  0.9999999800594451  2.9895144198672256e-08  1.0000
  S   S1        1.0  0.25003852299050194  0.2500384395978953  0.7499614966218775  1.0000
  S   S2        1.0  0.7499614876542694  0.7499614654542471  0.2500385478792559  1.0000
  S   S3        1.0  0.7499614976671748  0.2500385476261902  0.2500385297048236  1.0000
  S   S4        1.0  0.25003856166563465  0.7499614990038876  0.749961452226113  1.0000
  S   S5        1.0  0.2500385372301637  0.7499615069826885  0.2500384953400953  1.0000
  S   S6        1.0  0.7499613652632471  0.2500385815225472  0.7499614659222723  1.0000
