data_image0
_chemical_formula_structural       Na2OsS6
_chemical_formula_sum              "Na2 Os1 S6"
_cell_length_a       6.303423598043036
_cell_length_b       6.303424130181399
_cell_length_c       6.303424272146515
_cell_angle_alpha    60.00000121390982
_cell_angle_beta     60.000001823635486
_cell_angle_gamma    60.0000041017046

_space_group_name_H-M_alt    "P 1"
_space_group_IT_number       1

loop_
  _space_group_symop_operation_xyz
  'x, y, z'

loop_
  _atom_site_type_symbol
  _atom_site_label
  _atom_site_symmetry_multiplicity
  _atom_site_fract_x
  _atom_site_fract_y
  _atom_site_fract_z
  _atom_site_occupancy
  Na  Na1       1.0  0.25000001616291595  0.2500000741300271  0.24999996930706497  1.0000
  Na  Na2       1.0  0.7500000458664918  0.7499999115127394  0.7499999266507701  1.0000
  Os  Os1       1.0  0.9999994977140192  2.428729138780197e-07  5.501129316164879e-07  1.0000
  S   S1        1.0  0.2581077088535801  0.2581076106192279  0.7418923018496847  1.0000
  S   S2        1.0  0.7418924003407058  0.7418924313700579  0.2581075629761654  1.0000
  S   S3        1.0  0.7418923606470735  0.2581076413624426  0.25810764449866747  1.0000
  S   S4        1.0  0.2581079276856946  0.7418921324951391  0.74189209824767  1.0000
  S   S5        1.0  0.2581077982415321  0.7418922500746946  0.2581077548581128  1.0000
  S   S6        1.0  0.7418922186389747  0.25810773362508743  0.7418921614727844  1.0000
