data_image0
_chemical_formula_structural       Na2OsO6
_chemical_formula_sum              "Na2 Os1 O6"
_cell_length_a       5.547677400028026
_cell_length_b       5.547677668767788
_cell_length_c       5.547678902994216
_cell_angle_alpha    59.999992142662244
_cell_angle_beta     59.9999915104834
_cell_angle_gamma    60.000000596403616

_space_group_name_H-M_alt    "P 1"
_space_group_IT_number       1

loop_
  _space_group_symop_operation_xyz
  'x, y, z'

loop_
  _atom_site_type_symbol
  _atom_site_label
  _atom_site_symmetry_multiplicity
  _atom_site_fract_x
  _atom_site_fract_y
  _atom_site_fract_z
  _atom_site_occupancy
  Na  Na1       1.0  0.2500000127969588  0.2500000368448319  0.25000003434540197  1.0000
  Na  Na2       1.0  0.7500001066807589  0.7499999493744882  0.7499999872412599  1.0000
  Os  Os1       1.0  2.2351202764357718e-07  0.9999998852010994  5.1277744296988815e-09  1.0000
  O   O1        1.0  0.23649252571047477  0.23649242133470258  0.763507549325337  1.0000
  O   O2        1.0  0.7635073998963269  0.7635078717509325  0.23649234185884171  1.0000
  O   O3        1.0  0.763507447472641  0.23649222881078336  0.23649249525193225  1.0000
  O   O4        1.0  0.23649242688545194  0.763507549887411  0.7635076931707683  1.0000
  O   O5        1.0  0.2364922769074472  0.7635077237933773  0.23649233458641822  1.0000
  O   O6        1.0  0.763507325579053  0.23649237722482697  0.7635077655226234  1.0000
