data_image0
_chemical_formula_structural       Na2PtO6
_chemical_formula_sum              "Na2 Pt1 O6"
_cell_length_a       5.826484042299124
_cell_length_b       5.8264842727281705
_cell_length_c       5.826483500878356
_cell_angle_alpha    60.00000187935495
_cell_angle_beta     60.000001902006645
_cell_angle_gamma    59.999997354857484

_space_group_name_H-M_alt    "P 1"
_space_group_IT_number       1

loop_
  _space_group_symop_operation_xyz
  'x, y, z'

loop_
  _atom_site_type_symbol
  _atom_site_label
  _atom_site_symmetry_multiplicity
  _atom_site_fract_x
  _atom_site_fract_y
  _atom_site_fract_z
  _atom_site_occupancy
  Na  Na1       1.0  0.25000003852319874  0.24999996465401833  0.249999993109427  1.0000
  Na  Na2       1.0  0.7499999924944258  0.750000043206239  0.7499999525133638  1.0000
  Pt  Pt1       1.0  4.374074416735893e-08  0.9999999579593849  0.9999999768380217  1.0000
  O   O1        1.0  0.23014544064215917  0.23014555094191508  0.7698544908005067  1.0000
  O   O2        1.0  0.7698544039647689  0.7698544632244441  0.23014554144198093  1.0000
  O   O3        1.0  0.7698545810203264  0.23014547487599554  0.2301453323310099  1.0000
  O   O4        1.0  0.2301453558903198  0.7698545834330047  0.769854554454747  1.0000
  O   O5        1.0  0.230145505231948  0.769854529090863  0.23014555909203543  1.0000
  O   O6        1.0  0.7698546125252325  0.23014546825923263  0.7698545131809627  1.0000
