data_image0
_chemical_formula_structural       Na2PdSe6
_chemical_formula_sum              "Na2 Pd1 Se6"
_cell_length_a       6.65104752117974
_cell_length_b       6.651047666374621
_cell_length_c       6.651047256889316
_cell_angle_alpha    59.999999691383714
_cell_angle_beta     59.99999879298958
_cell_angle_gamma    59.99999564384937

_space_group_name_H-M_alt    "P 1"
_space_group_IT_number       1

loop_
  _space_group_symop_operation_xyz
  'x, y, z'

loop_
  _atom_site_type_symbol
  _atom_site_label
  _atom_site_symmetry_multiplicity
  _atom_site_fract_x
  _atom_site_fract_y
  _atom_site_fract_z
  _atom_site_occupancy
  Na  Na1       1.0  0.2499999788135795  0.25000001070145017  0.25000000981297077  1.0000
  Na  Na2       1.0  0.749999999467567  0.7500000044828746  0.7499999921904412  1.0000
  Pd  Pd1       1.0  1.607249263425946e-07  0.9999998563683375  0.9999996892453208  1.0000
  Se  Se1       1.0  0.26812912637895625  0.26812920408809365  0.7318708614568534  1.0000
  Se  Se2       1.0  0.7318708338399517  0.731870787157621  0.268129227701979  1.0000
  Se  Se3       1.0  0.7318709487149866  0.2681290875174131  0.26812908972320615  1.0000
  Se  Se4       1.0  0.26812889772336773  0.7318711044443427  0.731871059710942  1.0000
  Se  Se5       1.0  0.26812907455681945  0.7318709374189045  0.2681290859305091  1.0000
  Se  Se6       1.0  0.7318709718722654  0.26812902436390124  0.7318709898899145  1.0000
