data_image0
_chemical_formula_structural       Na2PtS6
_chemical_formula_sum              "Na2 Pt1 S6"
_cell_length_a       6.284667322012333
_cell_length_b       6.2846681666568305
_cell_length_c       6.284667268234892
_cell_angle_alpha    60.00000153953091
_cell_angle_beta     60.000001048874694
_cell_angle_gamma    60.000004396932106

_space_group_name_H-M_alt    "P 1"
_space_group_IT_number       1

loop_
  _space_group_symop_operation_xyz
  'x, y, z'

loop_
  _atom_site_type_symbol
  _atom_site_label
  _atom_site_symmetry_multiplicity
  _atom_site_fract_x
  _atom_site_fract_y
  _atom_site_fract_z
  _atom_site_occupancy
  Na  Na1       1.0  0.24999997210863883  0.2500000140117018  0.2500000032968453  1.0000
  Na  Na2       1.0  0.7499999982638219  0.7500000167009399  0.7499999975004085  1.0000
  Pt  Pt1       1.0  2.345477176409501e-07  0.9999999688194826  1.1789843254644376e-07  1.0000
  S   S1        1.0  0.2581434717986401  0.2581435395242612  0.7418564994382957  1.0000
  S   S2        1.0  0.741856376994831  0.7418564755981226  0.2581435715347555  1.0000
  S   S3        1.0  0.7418564219029592  0.2581435342735727  0.2581435933243161  1.0000
  S   S4        1.0  0.25814367133182586  0.7418563483316404  0.7418563612220509  1.0000
  S   S5        1.0  0.2581435375139585  0.7418564354276425  0.25814360389764673  1.0000
  S   S6        1.0  0.7418563100344139  0.2581436771338476  0.7418562709992039  1.0000
