data_image0
_chemical_formula_structural       Na2PtSe6
_chemical_formula_sum              "Na2 Pt1 Se6"
_cell_length_a       6.623533907437283
_cell_length_b       6.623534382893363
_cell_length_c       6.623533768145366
_cell_angle_alpha    60.00000032711367
_cell_angle_beta     60.000000172014886
_cell_angle_gamma    59.999996303722625

_space_group_name_H-M_alt    "P 1"
_space_group_IT_number       1

loop_
  _space_group_symop_operation_xyz
  'x, y, z'

loop_
  _atom_site_type_symbol
  _atom_site_label
  _atom_site_symmetry_multiplicity
  _atom_site_fract_x
  _atom_site_fract_y
  _atom_site_fract_z
  _atom_site_occupancy
  Na  Na1       1.0  0.24999998319028716  0.25000002740811694  0.24999999546263993  1.0000
  Na  Na2       1.0  0.7500000226336558  0.7499999990157201  0.7500000095780567  1.0000
  Pt  Pt1       1.0  2.5523015272225024e-07  2.403802207918034e-08  2.302590958713179e-07  1.0000
  Se  Se1       1.0  0.26290500375642784  0.262904726981359  0.7370951072836436  1.0000
  Se  Se2       1.0  0.7370949591913486  0.737095140421553  0.26290491868789284  1.0000
  Se  Se3       1.0  0.7370951593706748  0.2629048119975866  0.26290481279080447  1.0000
  Se  Se4       1.0  0.2629048290049412  0.7370950628016453  0.7370952299835504  1.0000
  Se  Se5       1.0  0.26290471680887395  0.7370951820066219  0.26290467503883874  1.0000
  Se  Se6       1.0  0.7370950741774965  0.2629050182308116  0.737095018364861  1.0000
