data_image0
_chemical_formula_structural       Na2PS6
_chemical_formula_sum              "Na2 P1 S6"
_cell_length_a       6.4415749965891695
_cell_length_b       6.4415755600699365
_cell_length_c       6.441574626271939
_cell_angle_alpha    60.000001745386236
_cell_angle_beta     60.00000193477486
_cell_angle_gamma    59.99999933121129

_space_group_name_H-M_alt    "P 1"
_space_group_IT_number       1

loop_
  _space_group_symop_operation_xyz
  'x, y, z'

loop_
  _atom_site_type_symbol
  _atom_site_label
  _atom_site_symmetry_multiplicity
  _atom_site_fract_x
  _atom_site_fract_y
  _atom_site_fract_z
  _atom_site_occupancy
  Na  Na1       1.0  0.2500000117123232  0.25000002348321976  0.25000001036843283  1.0000
  Na  Na2       1.0  0.7499999535111161  0.75000008946279  0.7499999987626259  1.0000
  P   P1        1.0  6.337388964275723e-08  0.9999999980986876  0.999999896300185  1.0000
  S   S1        1.0  0.23861832720587983  0.23861830656817665  0.7613816829083732  1.0000
  S   S2        1.0  0.7613817073347222  0.7613815554045746  0.23861835340170548  1.0000
  S   S3        1.0  0.7613817039593551  0.23861825989302768  0.23861847735402603  1.0000
  S   S4        1.0  0.2386183241875705  0.7613817180597816  0.7613817432348392  1.0000
  S   S5        1.0  0.23861823310054703  0.7613817057788891  0.23861822772111438  1.0000
  S   S6        1.0  0.7613816721353299  0.23861838815400424  0.7613816144390286  1.0000
