data_image0
_chemical_formula_structural       Na2PSe6
_chemical_formula_sum              "Na2 P1 Se6"
_cell_length_a       6.5471456292848895
_cell_length_b       6.54714562154721
_cell_length_c       6.547145388659978
_cell_angle_alpha    60.000001087666085
_cell_angle_beta     60.00000042245622
_cell_angle_gamma    60.00000196476129

_space_group_name_H-M_alt    "P 1"
_space_group_IT_number       1

loop_
  _space_group_symop_operation_xyz
  'x, y, z'

loop_
  _atom_site_type_symbol
  _atom_site_label
  _atom_site_symmetry_multiplicity
  _atom_site_fract_x
  _atom_site_fract_y
  _atom_site_fract_z
  _atom_site_occupancy
  Na  Na1       1.0  0.24999999277196577  0.2500000074594897  0.2499999945011205  1.0000
  Na  Na2       1.0  0.7500000085306139  0.7499999793534122  0.7499999776894658  1.0000
  P   P1        1.0  0.9999999599337991  3.5542437946088956e-08  0.9999999564403851  1.0000
  Se  Se1       1.0  0.24860958014895468  0.24860942361428717  0.7513905058295925  1.0000
  Se  Se2       1.0  0.7513904392916847  0.7513904135462417  0.248609529063384  1.0000
  Se  Se3       1.0  0.7513905659983279  0.24860948517222248  0.24860953452926818  1.0000
  Se  Se4       1.0  0.24860965882885686  0.751390402495986  0.7513905404287485  1.0000
  Se  Se5       1.0  0.24860951743548987  0.751390553019118  0.24860948785146939  1.0000
  Se  Se6       1.0  0.7513902759281254  0.24860967136692322  0.7513905000696949  1.0000
