data_image0
_chemical_formula_structural       Na2PdS6
_chemical_formula_sum              "Na2 Pd1 S6"
_cell_length_a       6.373385130462196
_cell_length_b       6.373385345619987
_cell_length_c       6.373385970443118
_cell_angle_alpha    59.99999526725023
_cell_angle_beta     59.9999976729328
_cell_angle_gamma    59.999999040313675

_space_group_name_H-M_alt    "P 1"
_space_group_IT_number       1

loop_
  _space_group_symop_operation_xyz
  'x, y, z'

loop_
  _atom_site_type_symbol
  _atom_site_label
  _atom_site_symmetry_multiplicity
  _atom_site_fract_x
  _atom_site_fract_y
  _atom_site_fract_z
  _atom_site_occupancy
  Na  Na1       1.0  0.25000005631971584  0.24999998132430096  0.24999993745185498  1.0000
  Na  Na2       1.0  0.7500000390246643  0.7499999804843457  0.7500000426429722  1.0000
  Pd  Pd1       1.0  2.5914060278237074e-08  0.9999999711751728  0.999999971643915  1.0000
  S   S1        1.0  0.2605589087002582  0.26055897268460143  0.7394409928391371  1.0000
  S   S2        1.0  0.7394409195658368  0.7394409968106654  0.260558988291493  1.0000
  S   S3        1.0  0.7394410193877319  0.26055895261010265  0.26055898472405137  1.0000
  S   S4        1.0  0.2605589838491922  0.7394410572399215  0.7394410942860236  1.0000
  S   S5        1.0  0.26055898217912504  0.7394410382590945  0.26055896972206266  1.0000
  S   S6        1.0  0.7394410104792672  0.26055901963231065  0.7394410623141423  1.0000
