data_image0
_chemical_formula_structural       Na2PO6
_chemical_formula_sum              "Na2 P1 O6"
_cell_length_a       5.119564960219178
_cell_length_b       5.119564748529401
_cell_length_c       5.11956467924006
_cell_angle_alpha    60.00000211837721
_cell_angle_beta     60.00000050071142
_cell_angle_gamma    59.9999966105675

_space_group_name_H-M_alt    "P 1"
_space_group_IT_number       1

loop_
  _space_group_symop_operation_xyz
  'x, y, z'

loop_
  _atom_site_type_symbol
  _atom_site_label
  _atom_site_symmetry_multiplicity
  _atom_site_fract_x
  _atom_site_fract_y
  _atom_site_fract_z
  _atom_site_occupancy
  Na  Na1       1.0  0.25000002418866474  0.24999997901670085  0.24999998547083588  1.0000
  Na  Na2       1.0  0.7499999842822261  0.7500000327414347  0.749999989821258  1.0000
  P   P1        1.0  5.1262063081104877e-08  0.9999999138778036  3.891626691072898e-08  1.0000
  O   O1        1.0  0.23192747185262189  0.23192761043460744  0.7680724576752688  1.0000
  O   O2        1.0  0.7680724417283971  0.7680724491691958  0.23192753527905563  1.0000
  O   O3        1.0  0.7680724700771425  0.23192743710003724  0.23192745444151236  1.0000
  O   O4        1.0  0.23192751759423788  0.7680725220278672  0.7680724735739357  1.0000
  O   O5        1.0  0.2319274736546396  0.7680724924640129  0.2319275054328948  1.0000
  O   O6        1.0  0.7680724281722082  0.23192747384074633  0.7680725244217076  1.0000
