data_image0
_chemical_formula_structural       Na2PbO6
_chemical_formula_sum              "Na2 Pb1 O6"
_cell_length_a       5.630675256514482
_cell_length_b       5.6306752336135375
_cell_length_c       5.630675479139226
_cell_angle_alpha    59.999999075748526
_cell_angle_beta     59.99999909891934
_cell_angle_gamma    59.999999893783944

_space_group_name_H-M_alt    "P 1"
_space_group_IT_number       1

loop_
  _space_group_symop_operation_xyz
  'x, y, z'

loop_
  _atom_site_type_symbol
  _atom_site_label
  _atom_site_symmetry_multiplicity
  _atom_site_fract_x
  _atom_site_fract_y
  _atom_site_fract_z
  _atom_site_occupancy
  Na  Na1       1.0  0.24999998927535008  0.24999997327468587  0.2500000507408703  1.0000
  Na  Na2       1.0  0.7499999988961925  0.750000011179504  0.750000041282213  1.0000
  Pb  Pb1       1.0  0.9999999893944906  0.9999999825989629  1.1701045264491905e-07  1.0000
  O   O1        1.0  0.294644832356611  0.29464481906842643  0.7053551214445865  1.0000
  O   O2        1.0  0.7053552186412344  0.7053552045380973  0.2946447455425649  1.0000
  O   O3        1.0  0.7053552384181591  0.2946448143219136  0.2946447538672659  1.0000
  O   O4        1.0  0.2946448031754679  0.7053552005840917  0.7053551967636598  1.0000
  O   O5        1.0  0.29464474804149016  0.7053552009779422  0.2946447598976404  1.0000
  O   O6        1.0  0.7053551808862789  0.29464480740267296  0.7053551810654606  1.0000
