data_image0
_chemical_formula_structural       Na2RhO6
_chemical_formula_sum              "Na2 Rh1 O6"
_cell_length_a       5.854604909116678
_cell_length_b       5.854605524685569
_cell_length_c       5.854605095894268
_cell_angle_alpha    60.00000230506288
_cell_angle_beta     59.999993614693686
_cell_angle_gamma    60.00000052452983

_space_group_name_H-M_alt    "P 1"
_space_group_IT_number       1

loop_
  _space_group_symop_operation_xyz
  'x, y, z'

loop_
  _atom_site_type_symbol
  _atom_site_label
  _atom_site_symmetry_multiplicity
  _atom_site_fract_x
  _atom_site_fract_y
  _atom_site_fract_z
  _atom_site_occupancy
  Na  Na1       1.0  0.2500001511420097  0.25000003519471126  0.2499999054298783  1.0000
  Na  Na2       1.0  0.749999977108358  0.7500000198148465  0.7499999255947336  1.0000
  Rh  Rh1       1.0  9.584601660835833e-08  0.9999999728048561  0.9999999229731314  1.0000
  O   O1        1.0  0.2319246718534054  0.23192482744011184  0.7680753098283021  1.0000
  O   O2        1.0  0.768075318773825  0.7680752735920005  0.23192484199380514  1.0000
  O   O3        1.0  0.7680751346378604  0.2319246847801721  0.23192466717858942  1.0000
  O   O4        1.0  0.23192459128491566  0.7680753346665138  0.7680753725429278  1.0000
  O   O5        1.0  0.23192463726829873  0.7680752890205927  0.23192461095028685  1.0000
  O   O6        1.0  0.7680754964649409  0.2319245128649587  0.7680755813148337  1.0000
