data_image0
_chemical_formula_structural       Na2ReS6
_chemical_formula_sum              "Na2 Re1 S6"
_cell_length_a       6.346422450239819
_cell_length_b       6.346422295277956
_cell_length_c       6.346422909840946
_cell_angle_alpha    59.99999580359937
_cell_angle_beta     59.999996512431395
_cell_angle_gamma    59.99999745297265

_space_group_name_H-M_alt    "P 1"
_space_group_IT_number       1

loop_
  _space_group_symop_operation_xyz
  'x, y, z'

loop_
  _atom_site_type_symbol
  _atom_site_label
  _atom_site_symmetry_multiplicity
  _atom_site_fract_x
  _atom_site_fract_y
  _atom_site_fract_z
  _atom_site_occupancy
  Na  Na1       1.0  0.25000002226784673  0.24999997498155133  0.2499999761765533  1.0000
  Na  Na2       1.0  0.7499999960467444  0.7499999461726674  0.749999984807867  1.0000
  Re  Re1       1.0  3.204317058901517e-07  0.9999996391237622  9.11283506720168e-08  1.0000
  S   S1        1.0  0.25712891753678496  0.25712876507549104  0.7428710947908864  1.0000
  S   S2        1.0  0.7428712779235294  0.7428713123941053  0.2571286821303821  1.0000
  S   S3        1.0  0.7428710292514724  0.25712892607600935  0.25712894001276737  1.0000
  S   S4        1.0  0.2571286279791465  0.7428713250773323  0.7428714162555535  1.0000
  S   S5        1.0  0.2571287063285421  0.7428711606471586  0.2571288143770497  1.0000
  S   S6        1.0  0.7428711222648456  0.2571288820856857  0.7428710861372138  1.0000
