data_image0
_chemical_formula_structural       Na2ReSe6
_chemical_formula_sum              "Na2 Re1 Se6"
_cell_length_a       6.697786190963189
_cell_length_b       6.6977858908476815
_cell_length_c       6.697786401159453
_cell_angle_alpha    59.999998308508346
_cell_angle_beta     59.99999798164432
_cell_angle_gamma    59.999999079050006

_space_group_name_H-M_alt    "P 1"
_space_group_IT_number       1

loop_
  _space_group_symop_operation_xyz
  'x, y, z'

loop_
  _atom_site_type_symbol
  _atom_site_label
  _atom_site_symmetry_multiplicity
  _atom_site_fract_x
  _atom_site_fract_y
  _atom_site_fract_z
  _atom_site_occupancy
  Na  Na1       1.0  0.24999998719654629  0.2500000048749515  0.25000001105693803  1.0000
  Na  Na2       1.0  0.7500000177855858  0.7499999908532922  0.7499999870980092  1.0000
  Re  Re1       1.0  0.9999999009997628  3.840021519630708e-08  2.2834859005854616e-08  1.0000
  Se  Se1       1.0  0.2590543346962874  0.25905431992849637  0.7409456766973236  1.0000
  Se  Se2       1.0  0.7409456292234999  0.7409456593425116  0.2590543651477198  1.0000
  Se  Se3       1.0  0.7409456889842327  0.25905440453362105  0.25905431980396487  1.0000
  Se  Se4       1.0  0.2590544708803491  0.7409455454800804  0.7409455521015587  1.0000
  Se  Se5       1.0  0.25905444935967964  0.7409455208812512  0.2590544925431358  1.0000
  Se  Se6       1.0  0.740945548098968  0.25905450776146466  0.7409455615957252  1.0000
