data_image0
_chemical_formula_structural       Na2ReO6
_chemical_formula_sum              "Na2 Re1 O6"
_cell_length_a       5.5830243078225585
_cell_length_b       5.58302339855012
_cell_length_c       5.583023311754776
_cell_angle_alpha    59.99999393488282
_cell_angle_beta     60.00000439211546
_cell_angle_gamma    59.99999124495019

_space_group_name_H-M_alt    "P 1"
_space_group_IT_number       1

loop_
  _space_group_symop_operation_xyz
  'x, y, z'

loop_
  _atom_site_type_symbol
  _atom_site_label
  _atom_site_symmetry_multiplicity
  _atom_site_fract_x
  _atom_site_fract_y
  _atom_site_fract_z
  _atom_site_occupancy
  Na  Na1       1.0  0.2500000957139565  0.24999999987588112  0.24999998423004846  1.0000
  Na  Na2       1.0  0.7500000096220271  0.7500000193709158  0.7499999902300765  1.0000
  Re  Re1       1.0  0.9999999520186041  0.9999996599773053  0.999999971900178  1.0000
  O   O1        1.0  0.24027160290825705  0.24027183489224505  0.7597282929641191  1.0000
  O   O2        1.0  0.7597284606220575  0.7597283159762485  0.24027163837913024  1.0000
  O   O3        1.0  0.7597284527460594  0.2402714708706169  0.2402718809052976  1.0000
  O   O4        1.0  0.24027162957061488  0.7597283816553627  0.7597282529060918  1.0000
  O   O5        1.0  0.24027140492909863  0.7597287070037783  0.24027151429307783  1.0000
  O   O6        1.0  0.7597283907737148  0.2402715338062244  0.7597284146448102  1.0000
