data_image0
_chemical_formula_structural       Na2RuSe6
_chemical_formula_sum              "Na2 Ru1 Se6"
_cell_length_a       6.592043946850281
_cell_length_b       6.592043607908082
_cell_length_c       6.592043753510264
_cell_angle_alpha    60.00000106668285
_cell_angle_beta     59.9999979631242
_cell_angle_gamma    59.999997464299405

_space_group_name_H-M_alt    "P 1"
_space_group_IT_number       1

loop_
  _space_group_symop_operation_xyz
  'x, y, z'

loop_
  _atom_site_type_symbol
  _atom_site_label
  _atom_site_symmetry_multiplicity
  _atom_site_fract_x
  _atom_site_fract_y
  _atom_site_fract_z
  _atom_site_occupancy
  Na  Na1       1.0  0.24999999073840778  0.25000001828790575  0.2499999997613385  1.0000
  Na  Na2       1.0  0.7500000017111024  0.7500000084158718  0.7500000016920766  1.0000
  Ru  Ru1       1.0  1.4866331351423948e-07  0.9999998587985457  0.9999998885634693  1.0000
  Se  Se1       1.0  0.2631370416457236  0.2631370208420379  0.736862976436707  1.0000
  Se  Se2       1.0  0.7368629440976897  0.7368630207250517  0.2631370725154284  1.0000
  Se  Se3       1.0  0.7368629102319103  0.2631370441071133  0.26313709249768275  1.0000
  Se  Se4       1.0  0.26313704483171235  0.7368629528700438  0.7368629243082242  1.0000
  Se  Se5       1.0  0.26313705388228203  0.736862958271975  0.2631370443832223  1.0000
  Se  Se6       1.0  0.7368628521864795  0.2631371278850464  0.7368630008735525  1.0000
