data_image0
_chemical_formula_structural       Na2RhS6
_chemical_formula_sum              "Na2 Rh1 S6"
_cell_length_a       6.240091298781682
_cell_length_b       6.240090831091209
_cell_length_c       6.240091245978116
_cell_angle_alpha    59.99999776324188
_cell_angle_beta     59.99999788052015
_cell_angle_gamma    59.999998470958424

_space_group_name_H-M_alt    "P 1"
_space_group_IT_number       1

loop_
  _space_group_symop_operation_xyz
  'x, y, z'

loop_
  _atom_site_type_symbol
  _atom_site_label
  _atom_site_symmetry_multiplicity
  _atom_site_fract_x
  _atom_site_fract_y
  _atom_site_fract_z
  _atom_site_occupancy
  Na  Na1       1.0  0.24999995200701022  0.24999997392812184  0.2500000527824746  1.0000
  Na  Na2       1.0  0.7500000447288816  0.7499999885162918  0.7499999745386086  1.0000
  Rh  Rh1       1.0  0.9999998740953567  0.9999999391561855  1.3023266659089043e-07  1.0000
  S   S1        1.0  0.25848089552138764  0.2584809974791693  0.741519006115483  1.0000
  S   S2        1.0  0.7415190295695037  0.7415190022566119  0.2584809534477621  1.0000
  S   S3        1.0  0.7415190433309639  0.2584810470076271  0.25848090632139875  1.0000
  S   S4        1.0  0.25848102727234185  0.741518988056823  0.7415191166652063  1.0000
  S   S5        1.0  0.2584810283421343  0.7415190309867947  0.2584808599371503  1.0000
  S   S6        1.0  0.7415190905782318  0.2584810256673954  0.7415190303410731  1.0000
