data_image0
_chemical_formula_structural       Na2ReTe6
_chemical_formula_sum              "Na2 Re1 Te6"
_cell_length_a       7.270338167515975
_cell_length_b       7.27033806184858
_cell_length_c       7.270338738832533
_cell_angle_alpha    59.99999678300626
_cell_angle_beta     59.99999653404348
_cell_angle_gamma    60.00001184537825

_space_group_name_H-M_alt    "P 1"
_space_group_IT_number       1

loop_
  _space_group_symop_operation_xyz
  'x, y, z'

loop_
  _atom_site_type_symbol
  _atom_site_label
  _atom_site_symmetry_multiplicity
  _atom_site_fract_x
  _atom_site_fract_y
  _atom_site_fract_z
  _atom_site_occupancy
  Na  Na1       1.0  0.24999999297591516  0.2499999415626293  0.25000001441011027  1.0000
  Na  Na2       1.0  0.7500000207309931  0.7500000756899539  0.7499999958601979  1.0000
  Re  Re1       1.0  0.9999999026194344  5.3906466576804664e-08  0.9999999639680774  1.0000
  Te  Te1       1.0  0.26030984055357276  0.26030973236923155  0.7396902419854603  1.0000
  Te  Te2       1.0  0.7396902179129397  0.7396902697221607  0.2603097369802205  1.0000
  Te  Te3       1.0  0.7396898430569881  0.26031008241648007  0.26031003262880686  1.0000
  Te  Te4       1.0  0.26031017159681336  0.7396899129365946  0.7396899592333229  1.0000
  Te  Te5       1.0  0.260310193096383  0.7396898514653206  0.26031003762381805  1.0000
  Te  Te6       1.0  0.7396898135529522  0.26031009166584806  0.7396900146114359  1.0000
