data_image0
_chemical_formula_structural       Na2RuO6
_chemical_formula_sum              "Na2 Ru1 O6"
_cell_length_a       5.721115056173268
_cell_length_b       5.7211148403973295
_cell_length_c       5.721114326545362
_cell_angle_alpha    60.00000537879746
_cell_angle_beta     60.00000302664623
_cell_angle_gamma    60.000006949331386

_space_group_name_H-M_alt    "P 1"
_space_group_IT_number       1

loop_
  _space_group_symop_operation_xyz
  'x, y, z'

loop_
  _atom_site_type_symbol
  _atom_site_label
  _atom_site_symmetry_multiplicity
  _atom_site_fract_x
  _atom_site_fract_y
  _atom_site_fract_z
  _atom_site_occupancy
  Na  Na1       1.0  0.2500000290346379  0.2500000010919371  0.24999993771986861  1.0000
  Na  Na2       1.0  0.7500000106738571  0.7499999540386766  0.7499999878595204  1.0000
  Ru  Ru1       1.0  0.9999998264460278  0.9999999636073256  6.651927710971267e-08  1.0000
  O   O1        1.0  0.22670299154480059  0.22670306531864665  0.7732969620194203  1.0000
  O   O2        1.0  0.7732967551829238  0.7732968362933299  0.22670319623865642  1.0000
  O   O3        1.0  0.7732971250343473  0.22670313086014948  0.2267030187547194  1.0000
  O   O4        1.0  0.22670322553645866  0.7732967514851588  0.7732970517207592  1.0000
  O   O5        1.0  0.22670309828245705  0.7732969289119667  0.2267029941588225  1.0000
  O   O6        1.0  0.7732968336962279  0.2267033130784687  0.7732968383597446  1.0000
