data_image0
_chemical_formula_structural       Na2RuS6
_chemical_formula_sum              "Na2 Ru1 S6"
_cell_length_a       6.233949395447978
_cell_length_b       6.233949920017993
_cell_length_c       6.233950071671824
_cell_angle_alpha    60.000002027015164
_cell_angle_beta     60.0000004814916
_cell_angle_gamma    60.00000609257553

_space_group_name_H-M_alt    "P 1"
_space_group_IT_number       1

loop_
  _space_group_symop_operation_xyz
  'x, y, z'

loop_
  _atom_site_type_symbol
  _atom_site_label
  _atom_site_symmetry_multiplicity
  _atom_site_fract_x
  _atom_site_fract_y
  _atom_site_fract_z
  _atom_site_occupancy
  Na  Na1       1.0  0.2500000030019348  0.2499999855701343  0.250000008192701  1.0000
  Na  Na2       1.0  0.7499999990702625  0.7499999920738671  0.7500000214888585  1.0000
  Ru  Ru1       1.0  5.613342407974096e-08  0.9999997760313972  2.812242675920282e-07  1.0000
  S   S1        1.0  0.2609006784810434  0.26090069586052567  0.7390993373980351  1.0000
  S   S2        1.0  0.7390993279858445  0.7390994075202378  0.2609005839065782  1.0000
  S   S3        1.0  0.7390993363612998  0.26090062104249867  0.26090064321318496  1.0000
  S   S4        1.0  0.2609006155484886  0.7390994292930653  0.7390992966019492  1.0000
  S   S5        1.0  0.2609006722448353  0.739099444871953  0.2609005203835464  1.0000
  S   S6        1.0  0.7390993242126985  0.2609006329685286  0.7390993288651999  1.0000
