data_image0
_chemical_formula_structural       Na2SnS6
_chemical_formula_sum              "Na2 Sn1 S6"
_cell_length_a       6.59129385373001
_cell_length_b       6.591293807349152
_cell_length_c       6.591293813523814
_cell_angle_alpha    59.99999766090705
_cell_angle_beta     59.999999461751955
_cell_angle_gamma    59.999994179540984

_space_group_name_H-M_alt    "P 1"
_space_group_IT_number       1

loop_
  _space_group_symop_operation_xyz
  'x, y, z'

loop_
  _atom_site_type_symbol
  _atom_site_label
  _atom_site_symmetry_multiplicity
  _atom_site_fract_x
  _atom_site_fract_y
  _atom_site_fract_z
  _atom_site_occupancy
  Na  Na1       1.0  0.24999996860545398  0.24999993375254134  0.2500000420360516  1.0000
  Na  Na2       1.0  0.7500000665954816  0.7499999443332575  0.7499999878351503  1.0000
  Sn  Sn1       1.0  0.9999999578824886  1.2635251642194063e-07  0.9999999821569406  1.0000
  S   S1        1.0  0.2676382024859003  0.26763838106913945  0.7323616605593487  1.0000
  S   S2        1.0  0.7323617806328174  0.7323617478635667  0.26763826082658754  1.0000
  S   S3        1.0  0.7323617581904874  0.26763832220412187  0.26763821799250836  1.0000
  S   S4        1.0  0.26763848114582955  0.7323615688885453  0.7323616107612454  1.0000
  S   S5        1.0  0.2676381648948659  0.732361650357369  0.2676383420220891  1.0000
  S   S6        1.0  0.7323616492167876  0.26763830762782265  0.7323618737476717  1.0000
