data_image0
_chemical_formula_structural       Na2SeO6
_chemical_formula_sum              "Na2 Se1 O6"
_cell_length_a       5.7230961034016286
_cell_length_b       5.723098338957945
_cell_length_c       5.723095722537769
_cell_angle_alpha    59.99999976526152
_cell_angle_beta     59.99999186817031
_cell_angle_gamma    59.99997256434014

_space_group_name_H-M_alt    "P 1"
_space_group_IT_number       1

loop_
  _space_group_symop_operation_xyz
  'x, y, z'

loop_
  _atom_site_type_symbol
  _atom_site_label
  _atom_site_symmetry_multiplicity
  _atom_site_fract_x
  _atom_site_fract_y
  _atom_site_fract_z
  _atom_site_occupancy
  Na  Na1       1.0  0.2499999579581606  0.2499996930756996  0.25000012572149477  1.0000
  Na  Na2       1.0  0.7500000471930812  0.7499998303682007  0.7499999481333487  1.0000
  Se  Se1       1.0  8.426478195429152e-07  0.9999882899019933  1.4044385472971337e-06  1.0000
  O   O1        1.0  0.22569160976110886  0.22569409722269032  0.7743079706553236  1.0000
  O   O2        1.0  0.7743059860293281  0.7743090770675425  0.2256932612141185  1.0000
  O   O3        1.0  0.7743086719035177  0.22569387697683674  0.22569050067011748  1.0000
  O   O4        1.0  0.22569353113454693  0.774309772392667  0.7743065283473705  1.0000
  O   O5        1.0  0.2256922100347316  0.7743105719461194  0.22569161960042466  1.0000
  O   O6        1.0  0.7743076314477403  0.22569471452648796  0.7743081008023179  1.0000
