data_image0
_chemical_formula_structural       Na2SiTe6
_chemical_formula_sum              "Na2 Si1 Te6"
_cell_length_a       7.266741293120181
_cell_length_b       7.266741288188473
_cell_length_c       7.26674118978637
_cell_angle_alpha    60.00000118763294
_cell_angle_beta     59.99999965242506
_cell_angle_gamma    59.99999965109476

_space_group_name_H-M_alt    "P 1"
_space_group_IT_number       1

loop_
  _space_group_symop_operation_xyz
  'x, y, z'

loop_
  _atom_site_type_symbol
  _atom_site_label
  _atom_site_symmetry_multiplicity
  _atom_site_fract_x
  _atom_site_fract_y
  _atom_site_fract_z
  _atom_site_occupancy
  Na  Na1       1.0  0.24999999613981913  0.24999998140751573  0.25000002279024813  1.0000
  Na  Na2       1.0  0.7500000154961312  0.7499999964702998  0.7499999956813469  1.0000
  Si  Si1       1.0  7.810159172603972e-08  7.078727822624e-08  0.9999999544543511  1.0000
  Te  Te1       1.0  0.2612436995738156  0.2612438704006978  0.7387562162637119  1.0000
  Te  Te2       1.0  0.738756284294191  0.7387561192749977  0.2612438294587728  1.0000
  Te  Te3       1.0  0.7387562238047107  0.26124387135895205  0.26124365890949247  1.0000
  Te  Te4       1.0  0.26124380548671516  0.7387561250583881  0.7387562877954282  1.0000
  Te  Te5       1.0  0.2612437301293183  0.738756095982617  0.2612438073134298  1.0000
  Te  Te6       1.0  0.7387561651390671  0.26124387346814193  0.7387562363998944  1.0000
