data_image0
_chemical_formula_structural       Na2SiO6
_chemical_formula_sum              "Na2 Si1 O6"
_cell_length_a       5.252665730199643
_cell_length_b       5.252665585349191
_cell_length_c       5.25266567696887
_cell_angle_alpha    60.000001620843804
_cell_angle_beta     60.000005579775696
_cell_angle_gamma    60.000004030197495

_space_group_name_H-M_alt    "P 1"
_space_group_IT_number       1

loop_
  _space_group_symop_operation_xyz
  'x, y, z'

loop_
  _atom_site_type_symbol
  _atom_site_label
  _atom_site_symmetry_multiplicity
  _atom_site_fract_x
  _atom_site_fract_y
  _atom_site_fract_z
  _atom_site_occupancy
  Na  Na1       1.0  0.24999999422564245  0.25000002376280295  0.24999997299123736  1.0000
  Na  Na2       1.0  0.7499999920264632  0.7500000036701686  0.7500000185484879  1.0000
  Si  Si1       1.0  0.9999998712519287  1.422314684235447e-07  8.654426626616112e-08  1.0000
  O   O1        1.0  0.23295656869112338  0.2329566126979294  0.7670433925246413  1.0000
  O   O2        1.0  0.7670437599454947  0.7670432515186099  0.23295655321834566  1.0000
  O   O3        1.0  0.7670432560367623  0.23295670957023124  0.23295671895244463  1.0000
  O   O4        1.0  0.23295659351987755  0.7670433388477078  0.7670434313436734  1.0000
  O   O5        1.0  0.23295653480483405  0.7670432918236382  0.23295658766836808  1.0000
  O   O6        1.0  0.7670432800245826  0.23295665633276844  0.7670432474592782  1.0000
