data_image0
_chemical_formula_structural       Na2SeS6
_chemical_formula_sum              "Na2 Se1 S6"
_cell_length_a       6.5684766066721725
_cell_length_b       6.568476773506916
_cell_length_c       6.568476625012823
_cell_angle_alpha    60.000000067057805
_cell_angle_beta     60.0000016867545
_cell_angle_gamma    60.00000078569453

_space_group_name_H-M_alt    "P 1"
_space_group_IT_number       1

loop_
  _space_group_symop_operation_xyz
  'x, y, z'

loop_
  _atom_site_type_symbol
  _atom_site_label
  _atom_site_symmetry_multiplicity
  _atom_site_fract_x
  _atom_site_fract_y
  _atom_site_fract_z
  _atom_site_occupancy
  Na  Na1       1.0  0.2500000456164642  0.25000000605952133  0.24999994540714576  1.0000
  Na  Na2       1.0  0.7499999566161027  0.7500000051265043  0.7500000424785671  1.0000
  Se  Se1       1.0  6.600361095133668e-08  0.9999999496563478  0.9999999525870233  1.0000
  S   S1        1.0  0.2396770629979075  0.2396771018005027  0.7603229112150083  1.0000
  S   S2        1.0  0.7603229388081113  0.7603229317604797  0.23967707026376922  1.0000
  S   S3        1.0  0.7603229473410029  0.2396769678813984  0.239677099402111  1.0000
  S   S4        1.0  0.23967700343292953  0.7603229761797569  0.760322947775354  1.0000
  S   S5        1.0  0.23967700295706193  0.7603230023438501  0.23967704620611754  1.0000
  S   S6        1.0  0.7603229648082251  0.23967706477956696  0.7603229827069213  1.0000
