data_image0
_chemical_formula_structural       Na2SnO6
_chemical_formula_sum              "Na2 Sn1 O6"
_cell_length_a       5.739110552174998
_cell_length_b       5.739111404382544
_cell_length_c       5.73910690422976
_cell_angle_alpha    59.99998008850851
_cell_angle_beta     60.000027365158914
_cell_angle_gamma    59.99996903436426

_space_group_name_H-M_alt    "P 1"
_space_group_IT_number       1

loop_
  _space_group_symop_operation_xyz
  'x, y, z'

loop_
  _atom_site_type_symbol
  _atom_site_label
  _atom_site_symmetry_multiplicity
  _atom_site_fract_x
  _atom_site_fract_y
  _atom_site_fract_z
  _atom_site_occupancy
  Na  Na1       1.0  0.24999945523313352  0.2499997932539653  0.25000046452502955  1.0000
  Na  Na2       1.0  0.7500002669683158  0.7500002973956974  0.7499995659399707  1.0000
  Sn  Sn1       1.0  0.9999996089898394  2.0059906002441887e-06  1.4561903473963144e-07  1.0000
  O   O1        1.0  0.2532257150912237  0.25322574074726095  0.7467741016377651  1.0000
  O   O2        1.0  0.7467750963544848  0.7467738526727453  0.25322494804462353  1.0000
  O   O3        1.0  0.746775904307768  0.25322405570225803  0.25322400133415063  1.0000
  O   O4        1.0  0.25322342444790974  0.746775495038026  0.746774953756816  1.0000
  O   O5        1.0  0.2532246288897634  0.7467753664595698  0.25322543559753125  1.0000
  O   O6        1.0  0.7467763731551121  0.25322372759528855  0.7467762915086776  1.0000
