data_image0
_chemical_formula_structural       Na2TeS6
_chemical_formula_sum              "Na2 Te1 S6"
_cell_length_a       6.7681833587714735
_cell_length_b       6.768183364971449
_cell_length_c       6.768183661593458
_cell_angle_alpha    59.99999999322774
_cell_angle_beta     59.99999825857303
_cell_angle_gamma    60.00000217797536

_space_group_name_H-M_alt    "P 1"
_space_group_IT_number       1

loop_
  _space_group_symop_operation_xyz
  'x, y, z'

loop_
  _atom_site_type_symbol
  _atom_site_label
  _atom_site_symmetry_multiplicity
  _atom_site_fract_x
  _atom_site_fract_y
  _atom_site_fract_z
  _atom_site_occupancy
  Na  Na1       1.0  0.2500000322872844  0.24999996495698146  0.2500000330426666  1.0000
  Na  Na2       1.0  0.7500000093672198  0.7500000396359141  0.7499999995727722  1.0000
  Te  Te1       1.0  0.99999993783619  2.4791002337203675e-07  3.6219728932601934e-07  1.0000
  S   S1        1.0  0.2486670020340816  0.24866691076239772  0.7513330352444043  1.0000
  S   S2        1.0  0.7513329264342646  0.7513330648774988  0.24866700490805788  1.0000
  S   S3        1.0  0.7513330507753976  0.24866685163719393  0.2486669588042419  1.0000
  S   S4        1.0  0.24866716499022976  0.7513328199962611  0.7513327956800427  1.0000
  S   S5        1.0  0.24866703214628794  0.7513329614708631  0.24866700093918934  1.0000
  S   S6        1.0  0.751332838451585  0.24866712636188384  0.7513328643019579  1.0000
