data_image0
_chemical_formula_structural       Na2TeO6
_chemical_formula_sum              "Na2 Te1 O6"
_cell_length_a       5.781725780912313
_cell_length_b       5.78172741477686
_cell_length_c       5.781725203798684
_cell_angle_alpha    60.00000749339513
_cell_angle_beta     60.0000031615246
_cell_angle_gamma    60.00000244315347

_space_group_name_H-M_alt    "P 1"
_space_group_IT_number       1

loop_
  _space_group_symop_operation_xyz
  'x, y, z'

loop_
  _atom_site_type_symbol
  _atom_site_label
  _atom_site_symmetry_multiplicity
  _atom_site_fract_x
  _atom_site_fract_y
  _atom_site_fract_z
  _atom_site_occupancy
  Na  Na1       1.0  0.2500000572891071  0.2499999918467464  0.24999996336606728  1.0000
  Na  Na2       1.0  0.7499999640420049  0.74999998189516  0.7500000254251511  1.0000
  Te  Te1       1.0  1.225325885981434e-07  0.9999999978816767  1.421546120442754e-07  1.0000
  O   O1        1.0  0.23666657035543484  0.2366668468802058  0.763333238011313  1.0000
  O   O2        1.0  0.7633334781881829  0.7633332010022928  0.23666657903222402  1.0000
  O   O3        1.0  0.7633334008506688  0.2366667618686219  0.23666652451672882  1.0000
  O   O4        1.0  0.2366667409190666  0.7633329703867876  0.7633335939819379  1.0000
  O   O5        1.0  0.2366664760942648  0.7633334076083131  0.2366666077379878  1.0000
  O   O6        1.0  0.7633330852158815  0.23666712536550163  0.7633330477953776  1.0000
