data_image0
_chemical_formula_structural       Na2TaTe6
_chemical_formula_sum              "Na2 Ta1 Te6"
_cell_length_a       7.384886796672628
_cell_length_b       7.384886803089526
_cell_length_c       7.384884487625924
_cell_angle_alpha    60.00001604570328
_cell_angle_beta     59.99999902675524
_cell_angle_gamma    60.00000630302089

_space_group_name_H-M_alt    "P 1"
_space_group_IT_number       1

loop_
  _space_group_symop_operation_xyz
  'x, y, z'

loop_
  _atom_site_type_symbol
  _atom_site_label
  _atom_site_symmetry_multiplicity
  _atom_site_fract_x
  _atom_site_fract_y
  _atom_site_fract_z
  _atom_site_occupancy
  Na  Na1       1.0  0.24999975629306603  0.25000029062680307  0.25000021452058946  1.0000
  Na  Na2       1.0  0.7500000401109693  0.7500000592410412  0.7499996066998381  1.0000
  Ta  Ta1       1.0  0.9999996994933348  0.999999714747267  2.3443674542541644e-06  1.0000
  Te  Te1       1.0  0.2649915107125465  0.2649912741144628  0.7350081186044914  1.0000
  Te  Te2       1.0  0.7350088964602408  0.7350089978062119  0.2649902269783216  1.0000
  Te  Te3       1.0  0.735008591886238  0.2649914196856878  0.2649908968020462  1.0000
  Te  Te4       1.0  0.2649919173299448  0.7350079832086462  0.7350089020248771  1.0000
  Te  Te5       1.0  0.26499161113580477  0.7350084387047293  0.2649908188572214  1.0000
  Te  Te6       1.0  0.7350079176867803  0.26499194930738335  0.7350088611536478  1.0000
