data_image0
_chemical_formula_structural       Na2TiO6
_chemical_formula_sum              "Na2 Ti1 O6"
_cell_length_a       5.611573430450895
_cell_length_b       5.611572696253707
_cell_length_c       5.611574220337327
_cell_angle_alpha    59.99998773594861
_cell_angle_beta     59.9999911708827
_cell_angle_gamma    60.00000109263367

_space_group_name_H-M_alt    "P 1"
_space_group_IT_number       1

loop_
  _space_group_symop_operation_xyz
  'x, y, z'

loop_
  _atom_site_type_symbol
  _atom_site_label
  _atom_site_symmetry_multiplicity
  _atom_site_fract_x
  _atom_site_fract_y
  _atom_site_fract_z
  _atom_site_occupancy
  Na  Na1       1.0  0.2500000361909255  0.2500000393245664  0.24999996773394903  1.0000
  Na  Na2       1.0  0.7499999972708917  0.7500000197596423  0.7499999527168586  1.0000
  Ti  Ti1       1.0  1.1712198040392483e-07  8.075378683258016e-08  0.9999997745378998  1.0000
  O   O1        1.0  0.23902964932922174  0.23902956436034373  0.7609704402214527  1.0000
  O   O2        1.0  0.7609703596505134  0.7609703397639221  0.2390297178589564  1.0000
  O   O3        1.0  0.7609703514868325  0.23902974115046077  0.23902943440302554  1.0000
  O   O4        1.0  0.23902945755947846  0.7609703244813227  0.7609706145840972  1.0000
  O   O5        1.0  0.23902959005700966  0.7609703138315974  0.23902963031195787  1.0000
  O   O6        1.0  0.7609704795521338  0.23902961211801987  0.7609704544645084  1.0000
