data_image0
_chemical_formula_structural       Na2TiTe6
_chemical_formula_sum              "Na2 Ti1 Te6"
_cell_length_a       7.292168849112555
_cell_length_b       7.292168888072262
_cell_length_c       7.292168740342342
_cell_angle_alpha    60.00000265816372
_cell_angle_beta     59.99999975140961
_cell_angle_gamma    59.99999797050305

_space_group_name_H-M_alt    "P 1"
_space_group_IT_number       1

loop_
  _space_group_symop_operation_xyz
  'x, y, z'

loop_
  _atom_site_type_symbol
  _atom_site_label
  _atom_site_symmetry_multiplicity
  _atom_site_fract_x
  _atom_site_fract_y
  _atom_site_fract_z
  _atom_site_occupancy
  Na  Na1       1.0  0.2499999899500169  0.25000000330029215  0.24999999884886837  1.0000
  Na  Na2       1.0  0.7500000227607992  0.7500000031827366  0.7499999665936294  1.0000
  Ti  Ti1       1.0  1.837990784476667e-07  0.9999998001354011  7.38567952543188e-08  1.0000
  Te  Te1       1.0  0.26524276883617853  0.26524280113220894  0.7347572846619363  1.0000
  Te  Te2       1.0  0.7347571035678281  0.7347572557368603  0.265242850532355  1.0000
  Te  Te3       1.0  0.7347573921169155  0.26524263933557113  0.2652426202734361  1.0000
  Te  Te4       1.0  0.265242629534938  0.7347573688269907  0.7347573042040889  1.0000
  Te  Te5       1.0  0.26524262480733884  0.7347573602883519  0.26524267919426703  1.0000
  Te  Te6       1.0  0.7347572753143999  0.265242765441622  0.7347572280659335  1.0000
