data_image0
_chemical_formula_structural       Na2TaO6
_chemical_formula_sum              "Na2 Ta1 O6"
_cell_length_a       5.701446479195675
_cell_length_b       5.701446034896474
_cell_length_c       5.701446998499143
_cell_angle_alpha    59.9999988724668
_cell_angle_beta     59.99999717840423
_cell_angle_gamma    59.9999963649148

_space_group_name_H-M_alt    "P 1"
_space_group_IT_number       1

loop_
  _space_group_symop_operation_xyz
  'x, y, z'

loop_
  _atom_site_type_symbol
  _atom_site_label
  _atom_site_symmetry_multiplicity
  _atom_site_fract_x
  _atom_site_fract_y
  _atom_site_fract_z
  _atom_site_occupancy
  Na  Na1       1.0  0.2499999458407106  0.2500000017533112  0.24999999478840174  1.0000
  Na  Na2       1.0  0.7500000417275793  0.7499999880748914  0.7499999575047493  1.0000
  Ta  Ta1       1.0  0.9999999800351027  0.999999914074785  0.9999999898031876  1.0000
  O   O1        1.0  0.24170102130827967  0.2417006695307846  0.758299187901357  1.0000
  O   O2        1.0  0.7582991371625205  0.7582992085946436  0.24170081722713604  1.0000
  O   O3        1.0  0.7582992261000019  0.2417007370375435  0.24170099256113636  1.0000
  O   O4        1.0  0.24170084716524945  0.758299184050495  0.7582990915688704  1.0000
  O   O5        1.0  0.2417008416226277  0.75829920984101  0.24170091070417377  1.0000
  O   O6        1.0  0.7582989519436661  0.24170107642917887  0.7582990184320433  1.0000
