data_image0
_chemical_formula_structural       Na2TaS6
_chemical_formula_sum              "Na2 Ta1 S6"
_cell_length_a       6.327831970177595
_cell_length_b       6.327832265196763
_cell_length_c       6.327832071353424
_cell_angle_alpha    60.00000515772549
_cell_angle_beta     59.99999619473139
_cell_angle_gamma    59.999996834958154

_space_group_name_H-M_alt    "P 1"
_space_group_IT_number       1

loop_
  _space_group_symop_operation_xyz
  'x, y, z'

loop_
  _atom_site_type_symbol
  _atom_site_label
  _atom_site_symmetry_multiplicity
  _atom_site_fract_x
  _atom_site_fract_y
  _atom_site_fract_z
  _atom_site_occupancy
  Na  Na1       1.0  0.2500000121179954  0.25000001439993835  0.250000057018036  1.0000
  Na  Na2       1.0  0.7500000334255382  0.7499999096510773  0.7499999943430864  1.0000
  Ta  Ta1       1.0  0.9999999764800461  2.129036793082475e-08  0.9999998351811872  1.0000
  S   S1        1.0  0.26617870718082  0.2661785960157768  0.7338214811005357  1.0000
  S   S2        1.0  0.7338213368699837  0.7338213106158525  0.2661787883188929  1.0000
  S   S3        1.0  0.7338213916406748  0.266178452249603  0.26617862279306725  1.0000
  S   S4        1.0  0.2661784832699996  0.7338217756731478  0.7338212007559841  1.0000
  S   S5        1.0  0.2661786687155724  0.7338214517830457  0.2661785802494143  1.0000
  S   S6        1.0  0.7338213978969543  0.26617842000977515  0.7338215309552687  1.0000
