data_image0
_chemical_formula_structural       Na2TiS6
_chemical_formula_sum              "Na2 Ti1 S6"
_cell_length_a       6.318936128757851
_cell_length_b       6.318937623455236
_cell_length_c       6.318936727260924
_cell_angle_alpha    60.000001584595225
_cell_angle_beta     60.00000380478488
_cell_angle_gamma    60.000005143955434

_space_group_name_H-M_alt    "P 1"
_space_group_IT_number       1

loop_
  _space_group_symop_operation_xyz
  'x, y, z'

loop_
  _atom_site_type_symbol
  _atom_site_label
  _atom_site_symmetry_multiplicity
  _atom_site_fract_x
  _atom_site_fract_y
  _atom_site_fract_z
  _atom_site_occupancy
  Na  Na1       1.0  0.24999989768864653  0.250000159576951  0.2500000096816764  1.0000
  Na  Na2       1.0  0.7500000102993402  0.7499998778847742  0.7500000347525525  1.0000
  Ti  Ti1       1.0  0.9999996783804503  1.9188310536265118e-07  7.1198379678688e-08  1.0000
  S   S1        1.0  0.25858715334384497  0.2585871458806383  0.7414129026192297  1.0000
  S   S2        1.0  0.7414128405683541  0.7414128256818325  0.25858722833775477  1.0000
  S   S3        1.0  0.741412825677887  0.2585871460786629  0.25858706193952546  1.0000
  S   S4        1.0  0.25858739673101555  0.7414126936853308  0.7414126978292365  1.0000
  S   S5        1.0  0.25858707571151596  0.7414129908228074  0.25858704911156655  1.0000
  S   S6        1.0  0.7414130429049163  0.2585869574811064  0.7414130073844157  1.0000
