data_image0
_chemical_formula_structural       Na2TiSe6
_chemical_formula_sum              "Na2 Ti1 Se6"
_cell_length_a       6.703535913038445
_cell_length_b       6.703534620218268
_cell_length_c       6.703535164891915
_cell_angle_alpha    59.99999833591916
_cell_angle_beta     59.99999785358879
_cell_angle_gamma    59.999998929599734

_space_group_name_H-M_alt    "P 1"
_space_group_IT_number       1

loop_
  _space_group_symop_operation_xyz
  'x, y, z'

loop_
  _atom_site_type_symbol
  _atom_site_label
  _atom_site_symmetry_multiplicity
  _atom_site_fract_x
  _atom_site_fract_y
  _atom_site_fract_z
  _atom_site_occupancy
  Na  Na1       1.0  0.24999998423149827  0.2500000305243346  0.24999999211119942  1.0000
  Na  Na2       1.0  0.7499999957934652  0.7500000294545431  0.7500000067278442  1.0000
  Ti  Ti1       1.0  1.882535078678764e-08  3.654027431351705e-08  8.119191977831434e-09  1.0000
  Se  Se1       1.0  0.2602235338824591  0.26022348429812764  0.7397765135299557  1.0000
  Se  Se2       1.0  0.7397764830679515  0.7397763253798864  0.26022360840604497  1.0000
  Se  Se3       1.0  0.7397765266367771  0.260223583739289  0.26022347304470106  1.0000
  Se  Se4       1.0  0.26022358076844637  0.739776450661403  0.739776470418049  1.0000
  Se  Se5       1.0  0.26022345197629004  0.7397763687441279  0.2602235994810675  1.0000
  Se  Se6       1.0  0.7397764356413575  0.26022368940772916  0.7397763345938827  1.0000
