data_image0
_chemical_formula_structural       Na2TeSe6
_chemical_formula_sum              "Na2 Te1 Se6"
_cell_length_a       6.833427073699094
_cell_length_b       6.833427178836064
_cell_length_c       6.833427422560603
_cell_angle_alpha    60.00000050153222
_cell_angle_beta     59.99999793995248
_cell_angle_gamma    60.00000224295133

_space_group_name_H-M_alt    "P 1"
_space_group_IT_number       1

loop_
  _space_group_symop_operation_xyz
  'x, y, z'

loop_
  _atom_site_type_symbol
  _atom_site_label
  _atom_site_symmetry_multiplicity
  _atom_site_fract_x
  _atom_site_fract_y
  _atom_site_fract_z
  _atom_site_occupancy
  Na  Na1       1.0  0.25000002291244644  0.24999997722147865  0.2500000197817136  1.0000
  Na  Na2       1.0  0.7499999521745069  0.7500000481629531  0.7500000564505115  1.0000
  Te  Te1       1.0  0.9999999503491339  0.9999999157626059  0.999999987920827  1.0000
  Se  Se1       1.0  0.2972017718361526  0.2972016956575187  0.702798265894313  1.0000
  Se  Se2       1.0  0.7027981389541492  0.7027983046349212  0.2972017921062706  1.0000
  Se  Se3       1.0  0.7027983459303364  0.2972016258001725  0.2972016957310978  1.0000
  Se  Se4       1.0  0.2972018081213157  0.7027983189314395  0.7027982201272053  1.0000
  Se  Se5       1.0  0.2972017153349784  0.7027984092072604  0.29720161976356185  1.0000
  Se  Se6       1.0  0.702798294689726  0.2972017039991315  0.7027983233824788  1.0000
