data_image0
_chemical_formula_structural       Na2VS6
_chemical_formula_sum              "Na2 V1 S6"
_cell_length_a       6.233749215789801
_cell_length_b       6.233748838257715
_cell_length_c       6.233749196358623
_cell_angle_alpha    60.00000248535639
_cell_angle_beta     60.000007362498486
_cell_angle_gamma    60.000003916918786

_space_group_name_H-M_alt    "P 1"
_space_group_IT_number       1

loop_
  _space_group_symop_operation_xyz
  'x, y, z'

loop_
  _atom_site_type_symbol
  _atom_site_label
  _atom_site_symmetry_multiplicity
  _atom_site_fract_x
  _atom_site_fract_y
  _atom_site_fract_z
  _atom_site_occupancy
  Na  Na1       1.0  0.2500000282330586  0.25000000051990434  0.25000003839665397  1.0000
  Na  Na2       1.0  0.7499998989229224  0.7499999976303019  0.7499999806463234  1.0000
  V   V1        1.0  5.0462555761215566e-08  0.9999999764235986  4.270291160528525e-08  1.0000
  S   S1        1.0  0.2529988326347013  0.25299911699125344  0.7470010255785109  1.0000
  S   S2        1.0  0.7470009904692887  0.7470010599466819  0.252998997805045  1.0000
  S   S3        1.0  0.7470010571762652  0.25299896998934834  0.2529990388157389  1.0000
  S   S4        1.0  0.25299913346432934  0.7470008100791256  0.7470008725047395  1.0000
  S   S5        1.0  0.25299897308992003  0.7470009660696826  0.25299906406898165  1.0000
  S   S6        1.0  0.7470009068394515  0.25299911263323627  0.7470009383109444  1.0000
