data_image0
_chemical_formula_structural       Na2VSe6
_chemical_formula_sum              "Na2 V1 Se6"
_cell_length_a       6.617804374711935
_cell_length_b       6.617805011721617
_cell_length_c       6.617805077534746
_cell_angle_alpha    59.99999691142328
_cell_angle_beta     59.9999961897004
_cell_angle_gamma    59.99999532674061

_space_group_name_H-M_alt    "P 1"
_space_group_IT_number       1

loop_
  _space_group_symop_operation_xyz
  'x, y, z'

loop_
  _atom_site_type_symbol
  _atom_site_label
  _atom_site_symmetry_multiplicity
  _atom_site_fract_x
  _atom_site_fract_y
  _atom_site_fract_z
  _atom_site_occupancy
  Na  Na1       1.0  0.2500000098698668  0.2500000055579089  0.24999997007515373  1.0000
  Na  Na2       1.0  0.7500000138183639  0.7499999907641841  0.7500000202292784  1.0000
  V   V1        1.0  0.9999999509691304  0.9999999481809243  0.9999999416275718  1.0000
  Se  Se1       1.0  0.2571134407595361  0.25711342306346463  0.7428865685655948  1.0000
  Se  Se2       1.0  0.7428866002017241  0.7428865214395466  0.2571134329675643  1.0000
  Se  Se3       1.0  0.7428865820604311  0.2571134134401648  0.25711339479746415  1.0000
  Se  Se4       1.0  0.2571133420811528  0.7428867401898571  0.7428865968478244  1.0000
  Se  Se5       1.0  0.2571134037252888  0.7428865753249687  0.25711343024828415  1.0000
  Se  Se6       1.0  0.7428866287234596  0.2571133580739512  0.7428866762909037  1.0000
