data_image0
_chemical_formula_structural       Na2VO6
_chemical_formula_sum              "Na2 V1 O6"
_cell_length_a       5.708106617546117
_cell_length_b       5.708106879734968
_cell_length_c       5.708106346504616
_cell_angle_alpha    60.00000692091082
_cell_angle_beta     60.00000391177112
_cell_angle_gamma    60.00000173914269

_space_group_name_H-M_alt    "P 1"
_space_group_IT_number       1

loop_
  _space_group_symop_operation_xyz
  'x, y, z'

loop_
  _atom_site_type_symbol
  _atom_site_label
  _atom_site_symmetry_multiplicity
  _atom_site_fract_x
  _atom_site_fract_y
  _atom_site_fract_z
  _atom_site_occupancy
  Na  Na1       1.0  0.24999995644208278  0.2500000628477714  0.2499999839271038  1.0000
  Na  Na2       1.0  0.7500000638766205  0.7499999932915753  0.7499999714028317  1.0000
  V   V1        1.0  2.606989143587316e-08  1.8881485634631436e-07  0.9999997489022847  1.0000
  O   O1        1.0  0.22749214730648162  0.2274921499546235  0.7725078888711309  1.0000
  O   O2        1.0  0.7725077552170756  0.7725076830398946  0.22749236832086953  1.0000
  O   O3        1.0  0.7725079029342443  0.22749216623242033  0.2274921079118657  1.0000
  O   O4        1.0  0.22749228040613634  0.7725076860726955  0.7725079046141277  1.0000
  O   O5        1.0  0.22749207423623202  0.7725077380316999  0.22749228103890393  1.0000
  O   O6        1.0  0.7725077138751153  0.22749240178696806  0.7725077205247356  1.0000
