data_image0
_chemical_formula_structural       Na2VTe6
_chemical_formula_sum              "Na2 V1 Te6"
_cell_length_a       7.180834152313498
_cell_length_b       7.180834661046596
_cell_length_c       7.180834757601224
_cell_angle_alpha    59.999994585524426
_cell_angle_beta     59.99999801891426
_cell_angle_gamma    59.99999973614446

_space_group_name_H-M_alt    "P 1"
_space_group_IT_number       1

loop_
  _space_group_symop_operation_xyz
  'x, y, z'

loop_
  _atom_site_type_symbol
  _atom_site_label
  _atom_site_symmetry_multiplicity
  _atom_site_fract_x
  _atom_site_fract_y
  _atom_site_fract_z
  _atom_site_occupancy
  Na  Na1       1.0  0.2499999916799347  0.24999998460505163  0.2499999637749203  1.0000
  Na  Na2       1.0  0.7499999082493733  0.7499999708708905  0.7500000693776403  1.0000
  V   V1        1.0  1.6959015371912573e-07  1.7055752371490904e-08  0.9999998523658129  1.0000
  Te  Te1       1.0  0.26556068199452504  0.2655607088334917  0.7344394288628062  1.0000
  Te  Te2       1.0  0.7344392018879444  0.7344391886529056  0.2655607791749282  1.0000
  Te  Te3       1.0  0.7344393216012398  0.26556085407173463  0.2655606437671629  1.0000
  Te  Te4       1.0  0.2655608601849159  0.7344393026620107  0.734439242524578  1.0000
  Te  Te5       1.0  0.265560808593629  0.7344393253910667  0.26556050488080973  1.0000
  Te  Te6       1.0  0.7344390795917436  0.2655606556684953  0.7344395060333546  1.0000
