data_image0
_chemical_formula_structural       Na2WS6
_chemical_formula_sum              "Na2 W1 S6"
_cell_length_a       6.483606256326861
_cell_length_b       6.483606522494185
_cell_length_c       6.483606458944587
_cell_angle_alpha    59.999993766038116
_cell_angle_beta     59.999999708870725
_cell_angle_gamma    60.00000249421843

_space_group_name_H-M_alt    "P 1"
_space_group_IT_number       1

loop_
  _space_group_symop_operation_xyz
  'x, y, z'

loop_
  _atom_site_type_symbol
  _atom_site_label
  _atom_site_symmetry_multiplicity
  _atom_site_fract_x
  _atom_site_fract_y
  _atom_site_fract_z
  _atom_site_occupancy
  Na  Na1       1.0  0.24999998055546507  0.25000003068299054  0.2499999927285023  1.0000
  Na  Na2       1.0  0.7500000528603118  0.7500000202674691  0.7499999307169772  1.0000
  W   W1        1.0  0.9999999311909975  0.999999965998201  3.984344844401308e-07  1.0000
  S   S1        1.0  0.24683872852017133  0.24683867940510787  0.7531612437078289  1.0000
  S   S2        1.0  0.7531613640992221  0.7531613488775095  0.2468386645544681  1.0000
  S   S3        1.0  0.7531612074738497  0.24683887675519478  0.2468386746932943  1.0000
  S   S4        1.0  0.2468390102290904  0.7531609739626596  0.7531609960675175  1.0000
  S   S5        1.0  0.24683874856079568  0.7531612453716032  0.2468388445975549  1.0000
  S   S6        1.0  0.7531610062699132  0.2468388452475663  0.7531612538307534  1.0000
