data_image0
_chemical_formula_structural       Na2WO6
_chemical_formula_sum              "Na2 W1 O6"
_cell_length_a       5.7765204521405975
_cell_length_b       5.776519506672228
_cell_length_c       5.77652078606357
_cell_angle_alpha    59.999990630903866
_cell_angle_beta     59.9999905418241
_cell_angle_gamma    59.99998964969042

_space_group_name_H-M_alt    "P 1"
_space_group_IT_number       1

loop_
  _space_group_symop_operation_xyz
  'x, y, z'

loop_
  _atom_site_type_symbol
  _atom_site_label
  _atom_site_symmetry_multiplicity
  _atom_site_fract_x
  _atom_site_fract_y
  _atom_site_fract_z
  _atom_site_occupancy
  Na  Na1       1.0  0.2500000198195651  0.25000000189088684  0.24999995838566583  1.0000
  Na  Na2       1.0  0.7499999825699407  0.7499999844705348  0.7499999934482763  1.0000
  W   W1        1.0  0.9999998873933837  0.9999999300329813  0.9999999960738032  1.0000
  O   O1        1.0  0.2297519041453715  0.22975198393356158  0.7702480919274  1.0000
  O   O2        1.0  0.7702479861017167  0.7702479430619066  0.22975216032282084  1.0000
  O   O3        1.0  0.7702482754719436  0.2297519358520926  0.229752063834827  1.0000
  O   O4        1.0  0.22975206985104163  0.7702479572199645  0.7702479224424582  1.0000
  O   O5        1.0  0.22975181398718514  0.7702480984977408  0.22975218899368768  1.0000
  O   O6        1.0  0.7702480160623734  0.22975222497750783  0.7702477652794663  1.0000
