data_image0
_chemical_formula_structural       Na2WTe6
_chemical_formula_sum              "Na2 W1 Te6"
_cell_length_a       7.279192351816612
_cell_length_b       7.2791921193529765
_cell_length_c       7.27919421905968
_cell_angle_alpha    59.99999204787665
_cell_angle_beta     59.999989495903755
_cell_angle_gamma    60.00001744905419

_space_group_name_H-M_alt    "P 1"
_space_group_IT_number       1

loop_
  _space_group_symop_operation_xyz
  'x, y, z'

loop_
  _atom_site_type_symbol
  _atom_site_label
  _atom_site_symmetry_multiplicity
  _atom_site_fract_x
  _atom_site_fract_y
  _atom_site_fract_z
  _atom_site_occupancy
  Na  Na1       1.0  0.2500000096714256  0.2500000342029909  0.2500000020453887  1.0000
  Na  Na2       1.0  0.7499999326044684  0.7499999730542463  0.7500000518032903  1.0000
  W   W1        1.0  0.9999998105619344  0.9999997021923962  3.0406908491412675e-07  1.0000
  Te  Te1       1.0  0.2633240612467883  0.26332400770631736  0.7366759895274627  1.0000
  Te  Te2       1.0  0.7366760864457145  0.736676097137632  0.26332394441645773  1.0000
  Te  Te3       1.0  0.736675297308601  0.263324729494531  0.26332457913058077  1.0000
  Te  Te4       1.0  0.26332474746665036  0.7366753652542162  0.7366752890532877  1.0000
  Te  Te5       1.0  0.2633247617192748  0.7366753228271048  0.2633246043807571  1.0000
  Te  Te6       1.0  0.7366752841776623  0.26332476855658477  0.7366752319541149  1.0000
