data_image0
_chemical_formula_structural       Na2ZrS6
_chemical_formula_sum              "Na2 Zr1 S6"
_cell_length_a       6.541406400161508
_cell_length_b       6.541406267037468
_cell_length_c       6.541405736064925
_cell_angle_alpha    60.000000802764056
_cell_angle_beta     60.00000045193998
_cell_angle_gamma    59.99999868963593

_space_group_name_H-M_alt    "P 1"
_space_group_IT_number       1

loop_
  _space_group_symop_operation_xyz
  'x, y, z'

loop_
  _atom_site_type_symbol
  _atom_site_label
  _atom_site_symmetry_multiplicity
  _atom_site_fract_x
  _atom_site_fract_y
  _atom_site_fract_z
  _atom_site_occupancy
  Na  Na1       1.0  0.24999997102533902  0.24999999940798603  0.25000000297896485  1.0000
  Na  Na2       1.0  0.7499999790131637  0.7499999963516607  0.7500000258236171  1.0000
  Zr  Zr1       1.0  5.696723649921806e-08  6.740265446231858e-08  0.9999999531022863  1.0000
  S   S1        1.0  0.2690129432397014  0.26901289567860365  0.7309870209587376  1.0000
  S   S2        1.0  0.730987075660661  0.7309870682520111  0.2690128976040258  1.0000
  S   S3        1.0  0.7309870818243623  0.26901287924082967  0.26901297064432367  1.0000
  S   S4        1.0  0.2690129834183391  0.7309870303931992  0.7309870940668387  1.0000
  S   S5        1.0  0.26901296127868757  0.7309870632619866  0.26901294553929  1.0000
  S   S6        1.0  0.7309869526691692  0.26901303547394  0.7309870605215382  1.0000
