data_image0
_chemical_formula_structural       Na2ZrTe6
_chemical_formula_sum              "Na2 Zr1 Te6"
_cell_length_a       7.505929987763001
_cell_length_b       7.505930005727155
_cell_length_c       7.505930029388774
_cell_angle_alpha    59.999999622327344
_cell_angle_beta     59.99999830000001
_cell_angle_gamma    60.000000468235896

_space_group_name_H-M_alt    "P 1"
_space_group_IT_number       1

loop_
  _space_group_symop_operation_xyz
  'x, y, z'

loop_
  _atom_site_type_symbol
  _atom_site_label
  _atom_site_symmetry_multiplicity
  _atom_site_fract_x
  _atom_site_fract_y
  _atom_site_fract_z
  _atom_site_occupancy
  Na  Na1       1.0  0.24999995770850394  0.25000002198310595  0.2499999981532237  1.0000
  Na  Na2       1.0  0.7500000401269032  0.7499999941543867  0.7499999908216771  1.0000
  Zr  Zr1       1.0  3.5662796446161967e-08  0.9999999853146732  9.495463883644514e-09  1.0000
  Te  Te1       1.0  0.27008447745338293  0.2700845026568929  0.7299155263569329  1.0000
  Te  Te2       1.0  0.7299155208646273  0.729915461266103  0.270084511132674  1.0000
  Te  Te3       1.0  0.7299154359510343  0.2700845426451182  0.2700845265962262  1.0000
  Te  Te4       1.0  0.2700845560107909  0.7299154588070471  0.729915485980929  1.0000
  Te  Te5       1.0  0.2700845818084422  0.7299154624921553  0.27008448474138913  1.0000
  Te  Te6       1.0  0.7299153925779256  0.2700845732257731  0.7299154648671357  1.0000
