data_image0
_chemical_formula_structural       Nb2AuSe6
_chemical_formula_sum              "Nb2 Au1 Se6"
_cell_length_a       6.402666229759849
_cell_length_b       6.402665975226934
_cell_length_c       6.402666425723981
_cell_angle_alpha    59.99999706630209
_cell_angle_beta     59.99999887188235
_cell_angle_gamma    59.999996063266465

_space_group_name_H-M_alt    "P 1"
_space_group_IT_number       1

loop_
  _space_group_symop_operation_xyz
  'x, y, z'

loop_
  _atom_site_type_symbol
  _atom_site_label
  _atom_site_symmetry_multiplicity
  _atom_site_fract_x
  _atom_site_fract_y
  _atom_site_fract_z
  _atom_site_occupancy
  Nb  Nb1       1.0  0.24999969842022451  0.25000116414036344  0.24999905306046372  1.0000
  Nb  Nb2       1.0  0.7500001456758605  0.7499984367132595  0.7500002644933329  1.0000
  Au  Au1       1.0  2.1422821803871727e-08  1.1477202018452372e-08  3.3529165241937185e-08  1.0000
  Se  Se1       1.0  0.2768689336941197  0.2768695789598251  0.723130867778418  1.0000
  Se  Se2       1.0  0.7231308867283966  0.7231306014925291  0.27686932758126787  1.0000
  Se  Se3       1.0  0.7231309702308168  0.2768695702653397  0.2768689678318153  1.0000
  Se  Se4       1.0  0.2768694747264116  0.7231302352650458  0.7231312667156755  1.0000
  Se  Se5       1.0  0.27686920509416724  0.7231305155023705  0.27686935113769545  1.0000
  Se  Se6       1.0  0.7231306666411119  0.276869905971239  0.7231308589254569  1.0000
