data_image0
_chemical_formula_structural       Nb2BeO6
_chemical_formula_sum              "Nb2 Be1 O6"
_cell_length_a       4.761781713523293
_cell_length_b       4.761782441449925
_cell_length_c       4.7617821477991855
_cell_angle_alpha    59.999999127407754
_cell_angle_beta     59.99999901853815
_cell_angle_gamma    59.999999952944286

_space_group_name_H-M_alt    "P 1"
_space_group_IT_number       1

loop_
  _space_group_symop_operation_xyz
  'x, y, z'

loop_
  _atom_site_type_symbol
  _atom_site_label
  _atom_site_symmetry_multiplicity
  _atom_site_fract_x
  _atom_site_fract_y
  _atom_site_fract_z
  _atom_site_occupancy
  Nb  Nb1       1.0  0.24999974867515715  0.25000041809598617  0.24999963483103987  1.0000
  Nb  Nb2       1.0  0.7500000101536332  0.7499995438877556  0.7500004192560105  1.0000
  Be  Be1       1.0  1.6117194562345286e-08  2.572028476437105e-09  2.6356307933539353e-08  1.0000
  O   O1        1.0  0.2532255843197542  0.25322559505237957  0.7467744006972697  1.0000
  O   O2        1.0  0.7467743822673911  0.7467744929608404  0.2532255179966756  1.0000
  O   O3        1.0  0.7467745262905052  0.253225668633651  0.2532255241292792  1.0000
  O   O4        1.0  0.2532256741452055  0.746774321642407  0.746774467212593  1.0000
  O   O5        1.0  0.2532256143613325  0.7467743906027908  0.2532255649524389  1.0000
  O   O6        1.0  0.7467744132904515  0.25322567426215153  0.7467744250856523  1.0000
