data_image0
_chemical_formula_structural       Nb2BeS6
_chemical_formula_sum              "Nb2 Be1 S6"
_cell_length_a       5.669802963318786
_cell_length_b       5.669803029923783
_cell_length_c       5.6698032156160725
_cell_angle_alpha    60.000000002631474
_cell_angle_beta     59.99999768334848
_cell_angle_gamma    60.00000063429017

_space_group_name_H-M_alt    "P 1"
_space_group_IT_number       1

loop_
  _space_group_symop_operation_xyz
  'x, y, z'

loop_
  _atom_site_type_symbol
  _atom_site_label
  _atom_site_symmetry_multiplicity
  _atom_site_fract_x
  _atom_site_fract_y
  _atom_site_fract_z
  _atom_site_occupancy
  Nb  Nb1       1.0  0.24999965485543038  0.24999984033944933  0.2500002991021803  1.0000
  Nb  Nb2       1.0  0.749999975009601  0.7500000394468787  0.7499993533021163  1.0000
  Be  Be1       1.0  3.10216563197265e-08  1.0800595336440084e-08  1.789092620326583e-08  1.0000
  S   S1        1.0  0.24973845734863898  0.24973818424712968  0.7502617950733148  1.0000
  S   S2        1.0  0.75026146754853  0.7502619590737211  0.24973857808235952  1.0000
  S   S3        1.0  0.7502618523364267  0.24973828009236604  0.24973838022048533  1.0000
  S   S4        1.0  0.24973825659778515  0.7502616104945729  0.7502617944713074  1.0000
  S   S5        1.0  0.2497383054926072  0.7502616048949599  0.2497383450998284  1.0000
  S   S6        1.0  0.7502620167035384  0.24973845850148926  0.7502614548920892  1.0000
