data_image0
_chemical_formula_structural       Nb2BeSe6
_chemical_formula_sum              "Nb2 Be1 Se6"
_cell_length_a       6.203281714721232
_cell_length_b       6.20328160595582
_cell_length_c       6.203281461898896
_cell_angle_alpha    59.99999948067105
_cell_angle_beta     59.99999997759987
_cell_angle_gamma    60.00000025592109

_space_group_name_H-M_alt    "P 1"
_space_group_IT_number       1

loop_
  _space_group_symop_operation_xyz
  'x, y, z'

loop_
  _atom_site_type_symbol
  _atom_site_label
  _atom_site_symmetry_multiplicity
  _atom_site_fract_x
  _atom_site_fract_y
  _atom_site_fract_z
  _atom_site_occupancy
  Nb  Nb1       1.0  0.24999987173153237  0.24999996616813724  0.25000009360744974  1.0000
  Nb  Nb2       1.0  0.750000236649293  0.7499999774784164  0.7499998612898409  1.0000
  Be  Be1       1.0  0.9999999921219732  0.9999999901282499  3.4667688920396346e-08  1.0000
  Se  Se1       1.0  0.23093696426044896  0.23093693919198255  0.7690630658971161  1.0000
  Se  Se2       1.0  0.7690630181621699  0.7690630696081181  0.23093695809170503  1.0000
  Se  Se3       1.0  0.7690630642370883  0.23093695456016217  0.2309369430020039  1.0000
  Se  Se4       1.0  0.23093688740571097  0.7690630739834384  0.7690630171868265  1.0000
  Se  Se5       1.0  0.23093689525537361  0.7690630336406951  0.23093703020375472  1.0000
  Se  Se6       1.0  0.7690630792698459  0.2309369988516049  0.7690629891117666  1.0000
