data_image0
_chemical_formula_structural       Nb2CuSe6
_chemical_formula_sum              "Nb2 Cu1 Se6"
_cell_length_a       6.304170079457013
_cell_length_b       6.3041700138550265
_cell_length_c       6.304169795063445
_cell_angle_alpha    59.99999990169723
_cell_angle_beta     60.00000205265813
_cell_angle_gamma    60.000000305667584

_space_group_name_H-M_alt    "P 1"
_space_group_IT_number       1

loop_
  _space_group_symop_operation_xyz
  'x, y, z'

loop_
  _atom_site_type_symbol
  _atom_site_label
  _atom_site_symmetry_multiplicity
  _atom_site_fract_x
  _atom_site_fract_y
  _atom_site_fract_z
  _atom_site_occupancy
  Nb  Nb1       1.0  0.24999969810350056  0.24999989138924933  0.25000030428290765  1.0000
  Nb  Nb2       1.0  0.7500003882997248  0.7499998859278995  0.7499995334046212  1.0000
  Cu  Cu1       1.0  1.2062826710116473e-08  7.771013845784407e-09  1.704935845294914e-08  1.0000
  Se  Se1       1.0  0.27120519195948206  0.2712054425613476  0.7287946599090799  1.0000
  Se  Se2       1.0  0.7287947672601114  0.7287946009130337  0.2712054477495075  1.0000
  Se  Se3       1.0  0.7287947123129388  0.27120519273650984  0.2712054181110519  1.0000
  Se  Se4       1.0  0.2712052642803272  0.7287948041117881  0.7287945756873545  1.0000
  Se  Se5       1.0  0.27120522584248496  0.7287947688054628  0.27120543210003606  1.0000
  Se  Se6       1.0  0.7287947413861294  0.2712053990051467  0.7287946141446807  1.0000
