data_image0
_chemical_formula_structural       Nb2CrTe6
_chemical_formula_sum              "Nb2 Cr1 Te6"
_cell_length_a       6.871065626380807
_cell_length_b       6.87106555788707
_cell_length_c       6.871065630945894
_cell_angle_alpha    60.000000276224426
_cell_angle_beta     60.00000032675007
_cell_angle_gamma    60.0000004965524

_space_group_name_H-M_alt    "P 1"
_space_group_IT_number       1

loop_
  _space_group_symop_operation_xyz
  'x, y, z'

loop_
  _atom_site_type_symbol
  _atom_site_label
  _atom_site_symmetry_multiplicity
  _atom_site_fract_x
  _atom_site_fract_y
  _atom_site_fract_z
  _atom_site_occupancy
  Nb  Nb1       1.0  0.25000000305547154  0.2500001453314381  0.24999989338164436  1.0000
  Nb  Nb2       1.0  0.7500000538710154  0.7499998834294971  0.7499999617272273  1.0000
  Cr  Cr1       1.0  1.6211105643059644e-08  1.7824674349601388e-09  2.4476915024225533e-08  1.0000
  Te  Te1       1.0  0.25792826646344824  0.2579283607589844  0.7420716983426108  1.0000
  Te  Te2       1.0  0.7420716992399036  0.742071634135075  0.257928348839937  1.0000
  Te  Te3       1.0  0.7420716766949895  0.2579282834994638  0.25792833139988575  1.0000
  Te  Te4       1.0  0.2579283504422622  0.7420716329660411  0.7420717082708274  1.0000
  Te  Te5       1.0  0.25792829240232096  0.7420716961088585  0.25792831826319196  1.0000
  Te  Te6       1.0  0.742071640843839  0.25792835582414975  0.7420717224499904  1.0000
