data_image0
_chemical_formula_structural       Nb2CuTe6
_chemical_formula_sum              "Nb2 Cu1 Te6"
_cell_length_a       6.8348478209892285
_cell_length_b       6.834848113971589
_cell_length_c       6.834847574312266
_cell_angle_alpha    60.00000116692718
_cell_angle_beta     60.00000102550563
_cell_angle_gamma    60.000000461946584

_space_group_name_H-M_alt    "P 1"
_space_group_IT_number       1

loop_
  _space_group_symop_operation_xyz
  'x, y, z'

loop_
  _atom_site_type_symbol
  _atom_site_label
  _atom_site_symmetry_multiplicity
  _atom_site_fract_x
  _atom_site_fract_y
  _atom_site_fract_z
  _atom_site_occupancy
  Nb  Nb1       1.0  0.25000013285580613  0.25000003983890245  0.24999995637635122  1.0000
  Nb  Nb2       1.0  0.7499999914526756  0.7499998811923722  0.7500002518353031  1.0000
  Cu  Cu1       1.0  0.9999999710922897  0.9999999802889653  0.999999993584474  1.0000
  Te  Te1       1.0  0.26041662621177514  0.2604166188654983  0.7395834248634172  1.0000
  Te  Te2       1.0  0.7395833396297642  0.7395834025128716  0.26041660757550106  1.0000
  Te  Te3       1.0  0.7395833334977429  0.26041671216913886  0.2604165362225262  1.0000
  Te  Te4       1.0  0.26041657831414666  0.739583425683535  0.7395833069802988  1.0000
  Te  Te5       1.0  0.2604166641232934  0.7395833328804728  0.2604165603205006  1.0000
  Te  Te6       1.0  0.7395833638700247  0.2604166186133179  0.7395833501590428  1.0000
