data_image0
_chemical_formula_structural       Nb2CuO6
_chemical_formula_sum              "Nb2 Cu1 O6"
_cell_length_a       4.923329095283263
_cell_length_b       4.923329078354976
_cell_length_c       4.923328885707631
_cell_angle_alpha    59.99999385028406
_cell_angle_beta     59.99999623520475
_cell_angle_gamma    59.9999958411199

_space_group_name_H-M_alt    "P 1"
_space_group_IT_number       1

loop_
  _space_group_symop_operation_xyz
  'x, y, z'

loop_
  _atom_site_type_symbol
  _atom_site_label
  _atom_site_symmetry_multiplicity
  _atom_site_fract_x
  _atom_site_fract_y
  _atom_site_fract_z
  _atom_site_occupancy
  Nb  Nb1       1.0  0.25000016581170836  0.2499996075880167  0.2499999771691621  1.0000
  Nb  Nb2       1.0  0.7499995382203225  0.7500006661020746  0.7500008320333457  1.0000
  Cu  Cu1       1.0  0.999999924261365  0.9999999950247292  3.4263518000807534e-08  1.0000
  O   O1        1.0  0.26189444403791423  0.26189395430695794  0.7381057076679894  1.0000
  O   O2        1.0  0.7381056221805127  0.7381060208669151  0.2618938956970175  1.0000
  O   O3        1.0  0.738105975027303  0.2618942984438544  0.26189407802691  1.0000
  O   O4        1.0  0.2618940990564243  0.7381056742423668  0.7381057704490902  1.0000
  O   O5        1.0  0.26189447458185944  0.7381057971629468  0.26189400978180305  1.0000
  O   O6        1.0  0.7381057563365963  0.2618939864629641  0.7381057166890614  1.0000
