data_image0
_chemical_formula_structural       Nb2CN6
_chemical_formula_sum              "Nb2 C1 N6"
_cell_length_a       4.7639917810897146
_cell_length_b       4.763991983270978
_cell_length_c       4.763991920673253
_cell_angle_alpha    60.00000193604143
_cell_angle_beta     60.00000238717485
_cell_angle_gamma    60.0000041037008

_space_group_name_H-M_alt    "P 1"
_space_group_IT_number       1

loop_
  _space_group_symop_operation_xyz
  'x, y, z'

loop_
  _atom_site_type_symbol
  _atom_site_label
  _atom_site_symmetry_multiplicity
  _atom_site_fract_x
  _atom_site_fract_y
  _atom_site_fract_z
  _atom_site_occupancy
  Nb  Nb1       1.0  0.25000008074824104  0.25000008441159355  0.24999987614967642  1.0000
  Nb  Nb2       1.0  0.7499999703413791  0.7500000218594174  0.7499999997359313  1.0000
  C   C1        1.0  0.9999977104124557  0.9999996555077508  1.9845472640297962e-06  1.0000
  N   N1        1.0  0.244967021938958  0.2449668986126862  0.7550330233872925  1.0000
  N   N2        1.0  0.7550342792305963  0.755034256559975  0.24496574289008624  1.0000
  N   N3        1.0  0.7550339025930843  0.24496608403974096  0.24496600233982588  1.0000
  N   N4        1.0  0.24496684034938848  0.7550331610007848  0.7550332403492576  1.0000
  N   N5        1.0  0.24496647543711073  0.7550335495558698  0.24496643780655056  1.0000
  N   N6        1.0  0.7550337051226704  0.2449662919189019  0.7550336232905749  1.0000
