data_image0
_chemical_formula_structural       Nb2CS6
_chemical_formula_sum              "Nb2 C1 S6"
_cell_length_a       7.198923177749491
_cell_length_b       6.205627603898034
_cell_length_c       7.581303892476131
_cell_angle_alpha    52.25400369431775
_cell_angle_beta     81.16299589031824
_cell_angle_gamma    69.4711557982684

_space_group_name_H-M_alt    "P 1"
_space_group_IT_number       1

loop_
  _space_group_symop_operation_xyz
  'x, y, z'

loop_
  _atom_site_type_symbol
  _atom_site_label
  _atom_site_symmetry_multiplicity
  _atom_site_fract_x
  _atom_site_fract_y
  _atom_site_fract_z
  _atom_site_occupancy
  Nb  Nb1       1.0  0.05481913938750521  0.16412936166611672  0.34015539408328155  1.0000
  Nb  Nb2       1.0  0.00046673618405268513  0.6462814214217109  0.8319308747698422  1.0000
  C   C1        1.0  0.015935133447352146  0.1899617011935462  0.050322383949896965  1.0000
  S   S1        1.0  0.8109884230181692  0.34698458773857177  0.8831442273273298  1.0000
  S   S2        1.0  0.9920030005996258  0.6723453699020865  0.13665038820747025  1.0000
  S   S3        1.0  0.7944647691720849  0.9514530228142052  0.45240288322383876  1.0000
  S   S4        1.0  0.29686321497058715  0.7757970149485384  0.6541405870251219  1.0000
  S   S5        1.0  0.2628544940996622  0.08995194119546723  0.0670867428383377  1.0000
  S   S6        1.0  0.77160466021586  0.16309518060510916  0.5841675190279577  1.0000
