data_image0
_chemical_formula_structural       Nb2CrN6
_chemical_formula_sum              "Nb2 Cr1 N6"
_cell_length_a       4.860889307302081
_cell_length_b       4.860889227963122
_cell_length_c       4.860889249272294
_cell_angle_alpha    59.999999664201106
_cell_angle_beta     59.99999978518126
_cell_angle_gamma    60.00000005462821

_space_group_name_H-M_alt    "P 1"
_space_group_IT_number       1

loop_
  _space_group_symop_operation_xyz
  'x, y, z'

loop_
  _atom_site_type_symbol
  _atom_site_label
  _atom_site_symmetry_multiplicity
  _atom_site_fract_x
  _atom_site_fract_y
  _atom_site_fract_z
  _atom_site_occupancy
  Nb  Nb1       1.0  0.25000012458101367  0.24999999018612806  0.24999987226138404  1.0000
  Nb  Nb2       1.0  0.7499999919802951  0.7500002250369899  0.7499997627156935  1.0000
  Cr  Cr1       1.0  0.9999999917701873  0.9999999748040982  2.0827330855610702e-08  1.0000
  N   N1        1.0  0.2664378578701662  0.26643788234607146  0.7335621592882253  1.0000
  N   N2        1.0  0.7335621059433834  0.7335621212314707  0.2664379458986659  1.0000
  N   N3        1.0  0.7335621073413164  0.26643779692496866  0.2664379876449063  1.0000
  N   N4        1.0  0.2664378918905926  0.7335620932710156  0.7335621709242413  1.0000
  N   N5        1.0  0.2664378724192144  0.7335621032834014  0.2664378731735012  1.0000
  N   N6        1.0  0.7335620599859906  0.26643784486315647  0.733562189029111  1.0000
