data_image0
_chemical_formula_structural       Nb2CoTe6
_chemical_formula_sum              "Nb2 Co1 Te6"
_cell_length_a       6.779015156816665
_cell_length_b       6.7790152833143
_cell_length_c       6.779015230846219
_cell_angle_alpha    59.99999978115263
_cell_angle_beta     60.000000189693225
_cell_angle_gamma    59.99999912872914

_space_group_name_H-M_alt    "P 1"
_space_group_IT_number       1

loop_
  _space_group_symop_operation_xyz
  'x, y, z'

loop_
  _atom_site_type_symbol
  _atom_site_label
  _atom_site_symmetry_multiplicity
  _atom_site_fract_x
  _atom_site_fract_y
  _atom_site_fract_z
  _atom_site_occupancy
  Nb  Nb1       1.0  0.24999998600644766  0.24999993642862017  0.2500000587781533  1.0000
  Nb  Nb2       1.0  0.7500000242548102  0.7500001471332954  0.7499997603976337  1.0000
  Co  Co1       1.0  1.663788255793215e-08  0.9999999909666459  0.9999999917723144  1.0000
  Te  Te1       1.0  0.25135722719683584  0.25135722119597653  0.7486427861492332  1.0000
  Te  Te2       1.0  0.7486427135726873  0.7486427846790953  0.2513573249366388  1.0000
  Te  Te3       1.0  0.7486428150017836  0.2513571120523117  0.25135731353573654  1.0000
  Te  Te4       1.0  0.2513572283316333  0.7486427854225125  0.7486427783412053  1.0000
  Te  Te5       1.0  0.2513571827476133  0.7486427963615208  0.2513572408738913  1.0000
  Te  Te6       1.0  0.7486428054056091  0.25135722577358804  0.7486427454562604  1.0000
