data_image0
_chemical_formula_structural       Nb2CoN6
_chemical_formula_sum              "Nb2 Co1 N6"
_cell_length_a       4.874830019326651
_cell_length_b       4.874830157598748
_cell_length_c       4.8748302014647225
_cell_angle_alpha    59.99999861965169
_cell_angle_beta     59.99999892541432
_cell_angle_gamma    59.99999916901667

_space_group_name_H-M_alt    "P 1"
_space_group_IT_number       1

loop_
  _space_group_symop_operation_xyz
  'x, y, z'

loop_
  _atom_site_type_symbol
  _atom_site_label
  _atom_site_symmetry_multiplicity
  _atom_site_fract_x
  _atom_site_fract_y
  _atom_site_fract_z
  _atom_site_occupancy
  Nb  Nb1       1.0  0.2499999811818514  0.2500000082269109  0.2499999910965639  1.0000
  Nb  Nb2       1.0  0.7499999967817684  0.7500000070940375  0.7500000805974959  1.0000
  Co  Co1       1.0  5.7185457372628e-09  0.9999999899504605  4.729527401139199e-08  1.0000
  N   N1        1.0  0.25970549703657164  0.25970547963145285  0.740294519814011  1.0000
  N   N2        1.0  0.7402945010014734  0.7402945181028032  0.259705487044224  1.0000
  N   N3        1.0  0.7402945191900898  0.2597054828922916  0.2597054494028821  1.0000
  N   N4        1.0  0.2597054932038353  0.7402945073048108  0.7402945007107989  1.0000
  N   N5        1.0  0.2597054928462288  0.740294548669782  0.25970543132166574  1.0000
  N   N6        1.0  0.7402945203851578  0.259705439014936  0.7402945114240629  1.0000
