data_image0
_chemical_formula_structural       Nb2CO6
_chemical_formula_sum              "Nb2 C1 O6"
_cell_length_a       4.833642066586953
_cell_length_b       4.833642294003548
_cell_length_c       4.833642164360677
_cell_angle_alpha    59.999999871604224
_cell_angle_beta     59.99999946632361
_cell_angle_gamma    60.000000336750595

_space_group_name_H-M_alt    "P 1"
_space_group_IT_number       1

loop_
  _space_group_symop_operation_xyz
  'x, y, z'

loop_
  _atom_site_type_symbol
  _atom_site_label
  _atom_site_symmetry_multiplicity
  _atom_site_fract_x
  _atom_site_fract_y
  _atom_site_fract_z
  _atom_site_occupancy
  Nb  Nb1       1.0  0.24999996219289775  0.24999998669011025  0.2500000358574435  1.0000
  Nb  Nb2       1.0  0.7499999496045733  0.7500000791585985  0.7499999978957557  1.0000
  C   C1        1.0  0.9999999086676677  0.999999987331035  1.0579031513055615e-07  1.0000
  O   O1        1.0  0.23212116908597205  0.2321210868152796  0.7678788489148416  1.0000
  O   O2        1.0  0.7678789009822801  0.767878905553434  0.2321211196857989  1.0000
  O   O3        1.0  0.7678789166397414  0.23212109842086218  0.2321210938784685  1.0000
  O   O4        1.0  0.23212110803973288  0.7678788939478517  0.7678788767282273  1.0000
  O   O5        1.0  0.2321211595753314  0.7678788446470132  0.23212109049923063  1.0000
  O   O6        1.0  0.7678789206280922  0.23212111731618554  0.7678788530664152  1.0000
