data_image0
_chemical_formula_structural       Nb2CoO6
_chemical_formula_sum              "Nb2 Co1 O6"
_cell_length_a       4.899274857166622
_cell_length_b       4.899275137590858
_cell_length_c       4.899275247087092
_cell_angle_alpha    59.999998392253474
_cell_angle_beta     59.99999846834719
_cell_angle_gamma    59.99999909058528

_space_group_name_H-M_alt    "P 1"
_space_group_IT_number       1

loop_
  _space_group_symop_operation_xyz
  'x, y, z'

loop_
  _atom_site_type_symbol
  _atom_site_label
  _atom_site_symmetry_multiplicity
  _atom_site_fract_x
  _atom_site_fract_y
  _atom_site_fract_z
  _atom_site_occupancy
  Nb  Nb1       1.0  0.2499999335941161  0.2500000988414162  0.25000003248534375  1.0000
  Nb  Nb2       1.0  0.7500003062824109  0.7499997840551703  0.749999743744857  1.0000
  Co  Co1       1.0  0.9999999916671691  2.4998491812988285e-08  0.9999999855438146  1.0000
  O   O1        1.0  0.2591314100588876  0.25913150328907675  0.7408686015274947  1.0000
  O   O2        1.0  0.7408685074926791  0.7408685970943856  0.2591315537006604  1.0000
  O   O3        1.0  0.7408685028907652  0.2591315398079441  0.25913141632262476  1.0000
  O   O4        1.0  0.259131399947641  0.7408685905737105  0.7408685761380289  1.0000
  O   O5        1.0  0.25913137581068363  0.7408684348304593  0.2591315272220847  1.0000
  O   O6        1.0  0.7408685841444071  0.2591314605653732  0.7408685623376128  1.0000
