data_image0
_chemical_formula_structural       Nb2FeO6
_chemical_formula_sum              "Nb2 Fe1 O6"
_cell_length_a       4.943503655041193
_cell_length_b       4.943503807500341
_cell_length_c       4.943503711983276
_cell_angle_alpha    60.0000015397986
_cell_angle_beta     59.99999937900409
_cell_angle_gamma    60.000000766280515

_space_group_name_H-M_alt    "P 1"
_space_group_IT_number       1

loop_
  _space_group_symop_operation_xyz
  'x, y, z'

loop_
  _atom_site_type_symbol
  _atom_site_label
  _atom_site_symmetry_multiplicity
  _atom_site_fract_x
  _atom_site_fract_y
  _atom_site_fract_z
  _atom_site_occupancy
  Nb  Nb1       1.0  0.24999978117871952  0.24999967987363397  0.25000024928149533  1.0000
  Nb  Nb2       1.0  0.7499999290508481  0.7499998968301451  0.7500000810996573  1.0000
  Fe  Fe1       1.0  5.667584632311386e-10  0.999999970270199  0.9999999680558151  1.0000
  O   O1        1.0  0.2567369624488387  0.2567370502931979  0.743262887298287  1.0000
  O   O2        1.0  0.743263036443315  0.7432630268622208  0.2567371011200322  1.0000
  O   O3        1.0  0.7432632677627488  0.25673704284895826  0.2567368555124243  1.0000
  O   O4        1.0  0.2567368544771019  0.7432630987210267  0.7432629742933464  1.0000
  O   O5        1.0  0.25673721119754195  0.7432632023217518  0.25673677993254973  1.0000
  O   O6        1.0  0.7432629438364926  0.2567370160502186  0.7432631124008299  1.0000
