data_image0
_chemical_formula_structural       Nb2FeTe6
_chemical_formula_sum              "Nb2 Fe1 Te6"
_cell_length_a       6.790300609943452
_cell_length_b       6.790300660461308
_cell_length_c       6.790300545050686
_cell_angle_alpha    60.000000726049116
_cell_angle_beta     60.00000033626201
_cell_angle_gamma    60.000001074873644

_space_group_name_H-M_alt    "P 1"
_space_group_IT_number       1

loop_
  _space_group_symop_operation_xyz
  'x, y, z'

loop_
  _atom_site_type_symbol
  _atom_site_label
  _atom_site_symmetry_multiplicity
  _atom_site_fract_x
  _atom_site_fract_y
  _atom_site_fract_z
  _atom_site_occupancy
  Nb  Nb1       1.0  0.24999986043081335  0.25000000004024026  0.2500001050846367  1.0000
  Nb  Nb2       1.0  0.7499999459569997  0.7500000794821189  0.7500001742388188  1.0000
  Fe  Fe1       1.0  0.9999999901918282  9.018340447475174e-09  4.8993648235542176e-08  1.0000
  Te  Te1       1.0  0.2518432875298314  0.2518431946082815  0.748156740864966  1.0000
  Te  Te2       1.0  0.7481567987238512  0.7481567442279682  0.2518431905304141  1.0000
  Te  Te3       1.0  0.7481568136781582  0.25184324766647725  0.25184317995126315  1.0000
  Te  Te4       1.0  0.2518432178318987  0.7481567380651423  0.7481567185510231  1.0000
  Te  Te5       1.0  0.2518432875229612  0.7481567786655909  0.25184315892328824  1.0000
  Te  Te6       1.0  0.7481568002072311  0.2518432016550244  0.748156686193344  1.0000
