data_image0
_chemical_formula_structural       Nb2FeSe6
_chemical_formula_sum              "Nb2 Fe1 Se6"
_cell_length_a       6.389648109678607
_cell_length_b       6.3896480865272
_cell_length_c       6.3896480290197575
_cell_angle_alpha    60.000002137009155
_cell_angle_beta     60.000001023826066
_cell_angle_gamma    60.000000968473046

_space_group_name_H-M_alt    "P 1"
_space_group_IT_number       1

loop_
  _space_group_symop_operation_xyz
  'x, y, z'

loop_
  _atom_site_type_symbol
  _atom_site_label
  _atom_site_symmetry_multiplicity
  _atom_site_fract_x
  _atom_site_fract_y
  _atom_site_fract_z
  _atom_site_occupancy
  Nb  Nb1       1.0  0.25000007205154007  0.2500001941715576  0.25000024328066073  1.0000
  Nb  Nb2       1.0  0.7500000969305058  0.7499999480657084  0.7499996105084641  1.0000
  Fe  Fe1       1.0  0.9999999504586069  7.667056178073526e-09  0.9999999896365397  1.0000
  Se  Se1       1.0  0.2582243903163862  0.25822442891203423  0.7417753949877186  1.0000
  Se  Se2       1.0  0.7417755548744533  0.7417755714846848  0.25822466509275127  1.0000
  Se  Se3       1.0  0.7417755106986146  0.25822445202099387  0.2582243187342892  1.0000
  Se  Se4       1.0  0.25822448030971107  0.7417755464589604  0.7417756959203488  1.0000
  Se  Se5       1.0  0.2582242752287721  0.741775458897033  0.2582244688378839  1.0000
  Se  Se6       1.0  0.7417756772846779  0.25822437857473163  0.7417756299179701  1.0000
