data_image0
_chemical_formula_structural       Nb2GeTe6
_chemical_formula_sum              "Nb2 Ge1 Te6"
_cell_length_a       7.012155173344263
_cell_length_b       7.0121551812873015
_cell_length_c       7.012155075432272
_cell_angle_alpha    60.000000244395906
_cell_angle_beta     60.00000021851134
_cell_angle_gamma    60.00000038324939

_space_group_name_H-M_alt    "P 1"
_space_group_IT_number       1

loop_
  _space_group_symop_operation_xyz
  'x, y, z'

loop_
  _atom_site_type_symbol
  _atom_site_label
  _atom_site_symmetry_multiplicity
  _atom_site_fract_x
  _atom_site_fract_y
  _atom_site_fract_z
  _atom_site_occupancy
  Nb  Nb1       1.0  0.25000001922527537  0.25000002274030947  0.25000003687121763  1.0000
  Nb  Nb2       1.0  0.7500000327097419  0.7500000245558629  0.7500000650679022  1.0000
  Ge  Ge1       1.0  0.9999999846972741  0.9999999965067946  3.9345962749653574e-08  1.0000
  Te  Te1       1.0  0.2641657639336023  0.2641657411046616  0.7358342585460873  1.0000
  Te  Te2       1.0  0.7358342280548036  0.7358342834856768  0.2641657135878432  1.0000
  Te  Te3       1.0  0.7358342437023708  0.26416577585580414  0.26416569524267924  1.0000
  Te  Te4       1.0  0.26416575681926846  0.7358342330151109  0.7358342163100667  1.0000
  Te  Te5       1.0  0.26416573579376446  0.7358342007591986  0.26416574383445857  1.0000
  Te  Te6       1.0  0.7358342394963978  0.2641657207815847  0.7358342282773774  1.0000
