data_image0
_chemical_formula_structural       Nb2GeO6
_chemical_formula_sum              "Nb2 Ge1 O6"
_cell_length_a       4.942722167695523
_cell_length_b       4.94272219124754
_cell_length_c       4.942721809603691
_cell_angle_alpha    59.99999809251256
_cell_angle_beta     59.99999912985374
_cell_angle_gamma    59.99999919675243

_space_group_name_H-M_alt    "P 1"
_space_group_IT_number       1

loop_
  _space_group_symop_operation_xyz
  'x, y, z'

loop_
  _atom_site_type_symbol
  _atom_site_label
  _atom_site_symmetry_multiplicity
  _atom_site_fract_x
  _atom_site_fract_y
  _atom_site_fract_z
  _atom_site_occupancy
  Nb  Nb1       1.0  0.2500002142767709  0.2499997478026403  0.24999977679116028  1.0000
  Nb  Nb2       1.0  0.749999540290473  0.7499999719031977  0.7500006139575803  1.0000
  Ge  Ge1       1.0  2.1968825408141406e-08  3.221237890202785e-08  0.9999999547008052  1.0000
  O   O1        1.0  0.2579718309779258  0.2579716604392977  0.7420282858371874  1.0000
  O   O2        1.0  0.7420282013982273  0.7420283962575815  0.2579715992402352  1.0000
  O   O3        1.0  0.7420283796367831  0.25797187159021634  0.2579715650405256  1.0000
  O   O4        1.0  0.2579717960469668  0.7420282247526654  0.7420282771163353  1.0000
  O   O5        1.0  0.25797171521956536  0.7420282977736428  0.2579717283421796  1.0000
  O   O6        1.0  0.7420283197518602  0.25797178617986244  0.7420281903655357  1.0000
