data_image0
_chemical_formula_structural       Nb2GeN6
_chemical_formula_sum              "Nb2 Ge1 N6"
_cell_length_a       4.876074302251872
_cell_length_b       4.876074418656667
_cell_length_c       4.876074169861628
_cell_angle_alpha    60.000000703042296
_cell_angle_beta     60.00000086420391
_cell_angle_gamma    60.000001267268246

_space_group_name_H-M_alt    "P 1"
_space_group_IT_number       1

loop_
  _space_group_symop_operation_xyz
  'x, y, z'

loop_
  _atom_site_type_symbol
  _atom_site_label
  _atom_site_symmetry_multiplicity
  _atom_site_fract_x
  _atom_site_fract_y
  _atom_site_fract_z
  _atom_site_occupancy
  Nb  Nb1       1.0  0.2499999866979372  0.24999998700214734  0.2500000860946485  1.0000
  Nb  Nb2       1.0  0.7500000741440074  0.7500000238000344  0.7499999381182424  1.0000
  Ge  Ge1       1.0  0.9999999635223297  0.9999999673473339  0.999999991497735  1.0000
  N   N1        1.0  0.26916383335980204  0.26916381140035167  0.7308361755759557  1.0000
  N   N2        1.0  0.7308361546211595  0.7308362119605482  0.2691638398222944  1.0000
  N   N3        1.0  0.7308361053720187  0.26916385861979947  0.2691638286161093  1.0000
  N   N4        1.0  0.2691637534389933  0.7308362325581769  0.730836145679521  1.0000
  N   N5        1.0  0.26916399818466924  0.730835988990459  0.2691638936891911  1.0000
  N   N6        1.0  0.7308361491071641  0.2691638761305964  0.7308361170718861  1.0000
