data_image0
_chemical_formula_structural       Nb2GeSe6
_chemical_formula_sum              "Nb2 Ge1 Se6"
_cell_length_a       6.475204856455733
_cell_length_b       6.4752047277510885
_cell_length_c       6.475204684989817
_cell_angle_alpha    60.00000231832951
_cell_angle_beta     60.00000215260205
_cell_angle_gamma    60.000000992833854

_space_group_name_H-M_alt    "P 1"
_space_group_IT_number       1

loop_
  _space_group_symop_operation_xyz
  'x, y, z'

loop_
  _atom_site_type_symbol
  _atom_site_label
  _atom_site_symmetry_multiplicity
  _atom_site_fract_x
  _atom_site_fract_y
  _atom_site_fract_z
  _atom_site_occupancy
  Nb  Nb1       1.0  0.24999990269269384  0.2499997030613543  0.2499998386499245  1.0000
  Nb  Nb2       1.0  0.7500000054129532  0.7500002875499904  0.7500006915524217  1.0000
  Ge  Ge1       1.0  0.9999999773398633  3.782876517930038e-09  3.1059568038747075e-08  1.0000
  Se  Se1       1.0  0.2649390576364449  0.26493873455590095  0.7350611824785104  1.0000
  Se  Se2       1.0  0.7350610108919794  0.7350611974208505  0.26493856017349454  1.0000
  Se  Se3       1.0  0.735061270255331  0.264939061940995  0.2649387021092455  1.0000
  Se  Se4       1.0  0.2649386377389529  0.7350611215970168  0.7350611062225981  1.0000
  Se  Se5       1.0  0.26493895840689546  0.7350612488573489  0.26493884008478463  1.0000
  Se  Se6       1.0  0.7350611703569612  0.26493864150776886  0.7350610523236515  1.0000
