data_image0
_chemical_formula_structural       Nb2HfN6
_chemical_formula_sum              "Nb2 Hf1 N6"
_cell_length_a       5.05129182040103
_cell_length_b       5.051291743769905
_cell_length_c       5.051291806786883
_cell_angle_alpha    60.000000440880825
_cell_angle_beta     60.00000081898214
_cell_angle_gamma    60.00000022115868

_space_group_name_H-M_alt    "P 1"
_space_group_IT_number       1

loop_
  _space_group_symop_operation_xyz
  'x, y, z'

loop_
  _atom_site_type_symbol
  _atom_site_label
  _atom_site_symmetry_multiplicity
  _atom_site_fract_x
  _atom_site_fract_y
  _atom_site_fract_z
  _atom_site_occupancy
  Nb  Nb1       1.0  0.250000065315922  0.24999994751083585  0.25000001372366637  1.0000
  Nb  Nb2       1.0  0.7500000169937612  0.7500000365018804  0.7499999881304082  1.0000
  Hf  Hf1       1.0  0.999999994873433  2.9095405778166608e-08  0.9999999543608233  1.0000
  N   N1        1.0  0.28233927340176235  0.28233934447464254  0.7176606297466775  1.0000
  N   N2        1.0  0.7176606281315465  0.7176607292489079  0.2823392790617542  1.0000
  N   N3        1.0  0.7176607090674446  0.28233924170307206  0.2823393351026552  1.0000
  N   N4        1.0  0.28233936146786004  0.7176606404757231  0.7176607057383442  1.0000
  N   N5        1.0  0.28233926995577635  0.7176606859563451  0.2823393606546262  1.0000
  N   N6        1.0  0.7176606685925389  0.28233932472716  0.7176607472573359  1.0000
