data_image0
_chemical_formula_structural       Nb2IrN6
_chemical_formula_sum              "Nb2 Ir1 N6"
_cell_length_a       5.016497763519368
_cell_length_b       5.016497710877272
_cell_length_c       5.016497849551856
_cell_angle_alpha    59.99999953419147
_cell_angle_beta     60.00000009922787
_cell_angle_gamma    60.00000160250664

_space_group_name_H-M_alt    "P 1"
_space_group_IT_number       1

loop_
  _space_group_symop_operation_xyz
  'x, y, z'

loop_
  _atom_site_type_symbol
  _atom_site_label
  _atom_site_symmetry_multiplicity
  _atom_site_fract_x
  _atom_site_fract_y
  _atom_site_fract_z
  _atom_site_occupancy
  Nb  Nb1       1.0  0.24999999609311868  0.25000001715453574  0.25000008423513725  1.0000
  Nb  Nb2       1.0  0.7499998803059622  0.7499999196261617  0.7500002569923215  1.0000
  Ir  Ir1       1.0  0.9999999856546072  0.999999987792829  0.9999999594538725  1.0000
  N   N1        1.0  0.2709278994959209  0.27092790922950966  0.7290720800691889  1.0000
  N   N2        1.0  0.7290721107549303  0.7290721300914235  0.27092786388310935  1.0000
  N   N3        1.0  0.729072130172835  0.27092797270099356  0.27092781477902805  1.0000
  N   N4        1.0  0.27092792488144385  0.7290720910342817  0.7290720865906951  1.0000
  N   N5        1.0  0.2709280087115474  0.7290720996238841  0.27092776943187485  1.0000
  N   N6        1.0  0.7290720939387156  0.2709278420396859  0.72907212332699  1.0000
