data_image0
_chemical_formula_structural       Nb2MgO6
_chemical_formula_sum              "Nb2 Mg1 O6"
_cell_length_a       4.896579937710194
_cell_length_b       4.896580064288907
_cell_length_c       4.8965801333149575
_cell_angle_alpha    60.00000146296229
_cell_angle_beta     60.00000145119169
_cell_angle_gamma    60.00000037405966

_space_group_name_H-M_alt    "P 1"
_space_group_IT_number       1

loop_
  _space_group_symop_operation_xyz
  'x, y, z'

loop_
  _atom_site_type_symbol
  _atom_site_label
  _atom_site_symmetry_multiplicity
  _atom_site_fract_x
  _atom_site_fract_y
  _atom_site_fract_z
  _atom_site_occupancy
  Nb  Nb1       1.0  0.2499999975239105  0.24999958651195342  0.2500005565604822  1.0000
  Nb  Nb2       1.0  0.7500004470821808  0.7500000701777422  0.7499990144395379  1.0000
  Mg  Mg1       1.0  9.408168399934499e-09  4.252082562156751e-08  1.692257892461388e-08  1.0000
  O   O1        1.0  0.2616510843525417  0.261651168615908  0.7383487841088787  1.0000
  O   O2        1.0  0.7383488199609147  0.7383489558028793  0.2616514971126603  1.0000
  O   O3        1.0  0.7383487268851754  0.26165109031687805  0.2616512811882609  1.0000
  O   O4        1.0  0.26165102198068296  0.7383489415565816  0.7383487788908938  1.0000
  O   O5        1.0  0.2616509972759062  0.7383489686411578  0.2616513242847115  1.0000
  O   O6        1.0  0.7383489367170657  0.26165116578252695  0.7383487492083881  1.0000
