data_image0
_chemical_formula_structural       Nb2MnTe6
_chemical_formula_sum              "Nb2 Mn1 Te6"
_cell_length_a       6.834324196824573
_cell_length_b       6.834324268357152
_cell_length_c       6.8343241661641665
_cell_angle_alpha    60.00000011348473
_cell_angle_beta     60.00000072998372
_cell_angle_gamma    60.00000035523682

_space_group_name_H-M_alt    "P 1"
_space_group_IT_number       1

loop_
  _space_group_symop_operation_xyz
  'x, y, z'

loop_
  _atom_site_type_symbol
  _atom_site_label
  _atom_site_symmetry_multiplicity
  _atom_site_fract_x
  _atom_site_fract_y
  _atom_site_fract_z
  _atom_site_occupancy
  Nb  Nb1       1.0  0.24999999715838586  0.2499999910394744  0.25000002338720917  1.0000
  Nb  Nb2       1.0  0.7500000927287239  0.7500000089594169  0.7500000191727777  1.0000
  Mn  Mn1       1.0  0.9999999812098543  1.0752298421738902e-08  0.9999999615860519  1.0000
  Te  Te1       1.0  0.2555829343475202  0.25558293938776966  0.74441706847036  1.0000
  Te  Te2       1.0  0.7444170600369591  0.7444170480667746  0.25558290520410765  1.0000
  Te  Te3       1.0  0.7444170468370971  0.25558295175387596  0.25558292913738007  1.0000
  Te  Te4       1.0  0.25558291344870204  0.7444170518291153  0.7444170740070386  1.0000
  Te  Te5       1.0  0.25558290643255227  0.7444170693519737  0.25558294868953657  1.0000
  Te  Te6       1.0  0.7444170713462036  0.2555829324389677  0.7444170641628581  1.0000
