data_image0
_chemical_formula_structural       Nb2MgS6
_chemical_formula_sum              "Nb2 Mg1 S6"
_cell_length_a       5.963478635683589
_cell_length_b       5.963478448837392
_cell_length_c       5.963478608851067
_cell_angle_alpha    59.99999811377427
_cell_angle_beta     59.99999873208962
_cell_angle_gamma    59.999998132924325

_space_group_name_H-M_alt    "P 1"
_space_group_IT_number       1

loop_
  _space_group_symop_operation_xyz
  'x, y, z'

loop_
  _atom_site_type_symbol
  _atom_site_label
  _atom_site_symmetry_multiplicity
  _atom_site_fract_x
  _atom_site_fract_y
  _atom_site_fract_z
  _atom_site_occupancy
  Nb  Nb1       1.0  0.2500000874403234  0.2500002981127325  0.24999962919983554  1.0000
  Nb  Nb2       1.0  0.7500003535786607  0.7499998654132107  0.7500001127031669  1.0000
  Mg  Mg1       1.0  0.9999999792881217  0.9999999691938626  6.600397536240793e-08  1.0000
  S   S1        1.0  0.2674916502365365  0.26749201978460946  0.7325081770679828  1.0000
  S   S2        1.0  0.7325081956007929  0.7325080472154389  0.26749184361385653  1.0000
  S   S3        1.0  0.7325081225339982  0.2674919729110246  0.2674917706259483  1.0000
  S   S4        1.0  0.26749175330743263  0.7325080098855822  0.7325082452949625  1.0000
  S   S5        1.0  0.26749186479202863  0.7325080845413546  0.26749189713431454  1.0000
  S   S6        1.0  0.732507990965107  0.26749176681573333  0.7325082532390813  1.0000
