data_image0
_chemical_formula_structural       Nb2MnS6
_chemical_formula_sum              "Nb2 Mn1 S6"
_cell_length_a       5.928435697150484
_cell_length_b       5.928435466790792
_cell_length_c       5.92843555852707
_cell_angle_alpha    59.999999710983055
_cell_angle_beta     60.00000012698532
_cell_angle_gamma    59.999998784066996

_space_group_name_H-M_alt    "P 1"
_space_group_IT_number       1

loop_
  _space_group_symop_operation_xyz
  'x, y, z'

loop_
  _atom_site_type_symbol
  _atom_site_label
  _atom_site_symmetry_multiplicity
  _atom_site_fract_x
  _atom_site_fract_y
  _atom_site_fract_z
  _atom_site_occupancy
  Nb  Nb1       1.0  0.25000058802856  0.2500008667878173  0.24999859045419298  1.0000
  Nb  Nb2       1.0  0.7499996789408463  0.7499985016533468  0.7500013276838797  1.0000
  Mn  Mn1       1.0  0.999999821966376  1.7766586440319785e-07  2.1946601486010982e-07  1.0000
  S   S1        1.0  0.2666844024352776  0.2666848030459894  0.7333157120828729  1.0000
  S   S2        1.0  0.7333154663760411  0.7333153917480264  0.2666843073867368  1.0000
  S   S3        1.0  0.7333150650491559  0.2666847995066389  0.26668438376965825  1.0000
  S   S4        1.0  0.2666847123641351  0.7333149449250742  0.7333157328411949  1.0000
  S   S5        1.0  0.2666851289138291  0.7333152586861746  0.2666841185662872  1.0000
  S   S6        1.0  0.7333151541094094  0.26668527697838956  0.7333156279427968  1.0000
