data_image0
_chemical_formula_structural       Nb2MgTe6
_chemical_formula_sum              "Nb2 Mg1 Te6"
_cell_length_a       6.910515105027476
_cell_length_b       6.910514982161844
_cell_length_c       6.9105151583186375
_cell_angle_alpha    59.999999651889595
_cell_angle_beta     59.99999883332408
_cell_angle_gamma    60.00000045134605

_space_group_name_H-M_alt    "P 1"
_space_group_IT_number       1

loop_
  _space_group_symop_operation_xyz
  'x, y, z'

loop_
  _atom_site_type_symbol
  _atom_site_label
  _atom_site_symmetry_multiplicity
  _atom_site_fract_x
  _atom_site_fract_y
  _atom_site_fract_z
  _atom_site_occupancy
  Nb  Nb1       1.0  0.24999998154934697  0.2499999273733729  0.25000009696798947  1.0000
  Nb  Nb2       1.0  0.7500000080391453  0.7499999628938755  0.7499998345483403  1.0000
  Mg  Mg1       1.0  0.9999999104269782  5.316875153316339e-08  2.254334632430693e-08  1.0000
  Te  Te1       1.0  0.26622441473551633  0.26622445849593496  0.733775562789689  1.0000
  Te  Te2       1.0  0.733775608471363  0.7337755965944487  0.2662244720956969  1.0000
  Te  Te3       1.0  0.7337755834656596  0.2662243949354906  0.26622440227283173  1.0000
  Te  Te4       1.0  0.2662244841990609  0.7337756069861396  0.7337755038375585  1.0000
  Te  Te5       1.0  0.2662243753206074  0.7337755655331537  0.2662245200767077  1.0000
  Te  Te6       1.0  0.733775636224523  0.2662244292993106  0.7337756014159662  1.0000
