data_image0
_chemical_formula_structural       Nb2MnO6
_chemical_formula_sum              "Nb2 Mn1 O6"
_cell_length_a       4.928204306650488
_cell_length_b       4.9282039355879
_cell_length_c       4.928204261004306
_cell_angle_alpha    59.99999965683349
_cell_angle_beta     60.00000050563729
_cell_angle_gamma    60.00000086763525

_space_group_name_H-M_alt    "P 1"
_space_group_IT_number       1

loop_
  _space_group_symop_operation_xyz
  'x, y, z'

loop_
  _atom_site_type_symbol
  _atom_site_label
  _atom_site_symmetry_multiplicity
  _atom_site_fract_x
  _atom_site_fract_y
  _atom_site_fract_z
  _atom_site_occupancy
  Nb  Nb1       1.0  0.2499998329997819  0.25000024736106735  0.24999986414503148  1.0000
  Nb  Nb2       1.0  0.7499998413117824  0.7499998697868155  0.7499998209025978  1.0000
  Mn  Mn1       1.0  3.048397274106345e-08  0.9999999577520279  3.428991260262236e-08  1.0000
  O   O1        1.0  0.25790042579627487  0.257900559078375  0.7420995011900757  1.0000
  O   O2        1.0  0.7420995451358865  0.7420995257622517  0.2579005488393679  1.0000
  O   O3        1.0  0.7420995756408999  0.25790030285652354  0.2579005525687333  1.0000
  O   O4        1.0  0.2579006400158212  0.7420993992671752  0.7420996963216365  1.0000
  O   O5        1.0  0.2579004792196192  0.7420996678653163  0.2579004608076673  1.0000
  O   O6        1.0  0.7420996314424742  0.2579004617084625  0.7420995193107387  1.0000
