data_image0
_chemical_formula_structural       Nb2MgSe6
_chemical_formula_sum              "Nb2 Mg1 Se6"
_cell_length_a       6.25067361443927
_cell_length_b       6.250673313824417
_cell_length_c       6.250673471234224
_cell_angle_alpha    59.999996819593264
_cell_angle_beta     59.99999819372751
_cell_angle_gamma    59.99999785417712

_space_group_name_H-M_alt    "P 1"
_space_group_IT_number       1

loop_
  _space_group_symop_operation_xyz
  'x, y, z'

loop_
  _atom_site_type_symbol
  _atom_site_label
  _atom_site_symmetry_multiplicity
  _atom_site_fract_x
  _atom_site_fract_y
  _atom_site_fract_z
  _atom_site_occupancy
  Nb  Nb1       1.0  0.24999987374149327  0.2500000481021217  0.25000015688609023  1.0000
  Nb  Nb2       1.0  0.7500000611721835  0.7499998386429797  0.7499995508079922  1.0000
  Mg  Mg1       1.0  3.694642643004739e-09  0.9999999999999992  4.4547679676360364e-08  1.0000
  Se  Se1       1.0  0.27452413932584074  0.27452427864182694  0.7254757950271823  1.0000
  Se  Se2       1.0  0.7254758929355819  0.7254756374939749  0.27452455002216775  1.0000
  Se  Se3       1.0  0.7254757588238918  0.27452422644072977  0.27452419807488865  1.0000
  Se  Se4       1.0  0.2745242539717139  0.7254759032675832  0.7254757107576576  1.0000
  Se  Se5       1.0  0.27452414677549863  0.7254757776602679  0.27452425962482896  1.0000
  Se  Se6       1.0  0.7254758766014225  0.27452428151033587  0.7254757367797091  1.0000
