data_image0
_chemical_formula_structural       Nb2NiSe6
_chemical_formula_sum              "Nb2 Ni1 Se6"
_cell_length_a       6.303034165200142
_cell_length_b       6.303034038340475
_cell_length_c       6.303034287699299
_cell_angle_alpha    59.9999999689455
_cell_angle_beta     60.00000079638842
_cell_angle_gamma    59.99999974113837

_space_group_name_H-M_alt    "P 1"
_space_group_IT_number       1

loop_
  _space_group_symop_operation_xyz
  'x, y, z'

loop_
  _atom_site_type_symbol
  _atom_site_label
  _atom_site_symmetry_multiplicity
  _atom_site_fract_x
  _atom_site_fract_y
  _atom_site_fract_z
  _atom_site_occupancy
  Nb  Nb1       1.0  0.2499996682138063  0.2500004998422368  0.24999979357151458  1.0000
  Nb  Nb2       1.0  0.7499999501321178  0.7500000480282505  0.750000144583482  1.0000
  Ni  Ni1       1.0  3.449322015204242e-08  0.9999999844551699  0.9999999397566065  1.0000
  Se  Se1       1.0  0.2622585374090073  0.26225875087476574  0.73774135526198  1.0000
  Se  Se2       1.0  0.7377414622390004  0.7377411752025365  0.2622586063597805  1.0000
  Se  Se3       1.0  0.7377414924038271  0.26225856778307594  0.2622587054996071  1.0000
  Se  Se4       1.0  0.2622587194613858  0.7377411173493701  0.7377415735146335  1.0000
  Se  Se5       1.0  0.26225872585743465  0.7377412918142245  0.2622585833879574  1.0000
  Se  Se6       1.0  0.7377414135033701  0.26225854488030703  0.737741316578429  1.0000
