data_image0
_chemical_formula_structural       Nb2NiTe6
_chemical_formula_sum              "Nb2 Ni1 Te6"
_cell_length_a       6.801327904393577
_cell_length_b       6.801327714012263
_cell_length_c       6.801327916614096
_cell_angle_alpha    59.99999965672558
_cell_angle_beta     59.99999929367732
_cell_angle_gamma    60.000001461987246

_space_group_name_H-M_alt    "P 1"
_space_group_IT_number       1

loop_
  _space_group_symop_operation_xyz
  'x, y, z'

loop_
  _atom_site_type_symbol
  _atom_site_label
  _atom_site_symmetry_multiplicity
  _atom_site_fract_x
  _atom_site_fract_y
  _atom_site_fract_z
  _atom_site_occupancy
  Nb  Nb1       1.0  0.2500000799499596  0.24999991774063654  0.25000002786003894  1.0000
  Nb  Nb2       1.0  0.7499999377136664  0.7499999873185943  0.7499999911539875  1.0000
  Ni  Ni1       1.0  0.9999999773289046  1.8007434421645552e-09  3.248969279584515e-08  1.0000
  Te  Te1       1.0  0.2564108267482252  0.2564108281863962  0.7435891730212913  1.0000
  Te  Te2       1.0  0.7435891345097682  0.7435892155301058  0.25641083574324025  1.0000
  Te  Te3       1.0  0.7435891192753842  0.2564108578552098  0.2564108516136032  1.0000
  Te  Te4       1.0  0.25641089842055137  0.7435891642523678  0.7435891147413003  1.0000
  Te  Te5       1.0  0.25641087193005313  0.743589136105529  0.2564108570803586  1.0000
  Te  Te6       1.0  0.7435891513564163  0.2564108896035367  0.7435891282033517  1.0000
