data_image0
_chemical_formula_structural       Nb2NiO6
_chemical_formula_sum              "Nb2 Ni1 O6"
_cell_length_a       4.9280844262998285
_cell_length_b       4.92808416694705
_cell_length_c       4.928084464962505
_cell_angle_alpha    59.999998875506414
_cell_angle_beta     59.99999915821686
_cell_angle_gamma    59.99999867152878

_space_group_name_H-M_alt    "P 1"
_space_group_IT_number       1

loop_
  _space_group_symop_operation_xyz
  'x, y, z'

loop_
  _atom_site_type_symbol
  _atom_site_label
  _atom_site_symmetry_multiplicity
  _atom_site_fract_x
  _atom_site_fract_y
  _atom_site_fract_z
  _atom_site_occupancy
  Nb  Nb1       1.0  0.249999845926488  0.2499997853820901  0.2500000220621966  1.0000
  Nb  Nb2       1.0  0.7500003604312536  0.7500001638477708  0.7500003082158524  1.0000
  Ni  Ni1       1.0  0.9999999995979877  0.9999999801181172  0.9999999999960174  1.0000
  O   O1        1.0  0.2539015817981209  0.25390171034988895  0.7460983697160174  1.0000
  O   O2        1.0  0.7460983295398541  0.7460983507155549  0.2539014981863478  1.0000
  O   O3        1.0  0.7460983799212695  0.2539017087290786  0.2539015859164071  1.0000
  O   O4        1.0  0.2539015149662165  0.7460984368343664  0.7460982276703427  1.0000
  O   O5        1.0  0.2539016665378361  0.7460983563069574  0.2539016201849641  1.0000
  O   O6        1.0  0.7460983164455636  0.2539015109101306  0.746098353460957  1.0000
