data_image0
_chemical_formula_structural       Nb2NiN6
_chemical_formula_sum              "Nb2 Ni1 N6"
_cell_length_a       4.8475422956688865
_cell_length_b       4.8475423855440924
_cell_length_c       4.847542382069822
_cell_angle_alpha    59.99999977581661
_cell_angle_beta     59.99999923321826
_cell_angle_gamma    60.000000616442165

_space_group_name_H-M_alt    "P 1"
_space_group_IT_number       1

loop_
  _space_group_symop_operation_xyz
  'x, y, z'

loop_
  _atom_site_type_symbol
  _atom_site_label
  _atom_site_symmetry_multiplicity
  _atom_site_fract_x
  _atom_site_fract_y
  _atom_site_fract_z
  _atom_site_occupancy
  Nb  Nb1       1.0  0.24999998708166848  0.2500000589224819  0.2500000151764319  1.0000
  Nb  Nb2       1.0  0.7500000009965526  0.75000000749011  0.7500000236503486  1.0000
  Ni  Ni1       1.0  0.9999999929983956  0.9999999924204177  1.34792963553375e-08  1.0000
  N   N1        1.0  0.2631009760960184  0.26310096154313195  0.7368990464114424  1.0000
  N   N2        1.0  0.7368990462224212  0.736899016441001  0.2631009988804481  1.0000
  N   N3        1.0  0.7368990363306122  0.2631009447903872  0.26310093177695554  1.0000
  N   N4        1.0  0.2631009283855533  0.7368990559324922  0.7368990443048573  1.0000
  N   N5        1.0  0.26310097025491286  0.7368990114692323  0.2631009085302709  1.0000
  N   N6        1.0  0.7368990673423945  0.2631009564087914  0.7368990186527847  1.0000
