data_image0
_chemical_formula_structural       Nb2OsN6
_chemical_formula_sum              "Nb2 Os1 N6"
_cell_length_a       4.99154516938728
_cell_length_b       4.991545151070321
_cell_length_c       4.991545135046102
_cell_angle_alpha    60.00000147335798
_cell_angle_beta     60.00000109686897
_cell_angle_gamma    60.000001143750815

_space_group_name_H-M_alt    "P 1"
_space_group_IT_number       1

loop_
  _space_group_symop_operation_xyz
  'x, y, z'

loop_
  _atom_site_type_symbol
  _atom_site_label
  _atom_site_symmetry_multiplicity
  _atom_site_fract_x
  _atom_site_fract_y
  _atom_site_fract_z
  _atom_site_occupancy
  Nb  Nb1       1.0  0.2500000572419569  0.24999996186836357  0.2499999791394538  1.0000
  Nb  Nb2       1.0  0.7500000296315092  0.749999937131503  0.7499999286108683  1.0000
  Os  Os1       1.0  0.9999999914243027  4.907277902611683e-09  3.98985755114146e-08  1.0000
  N   N1        1.0  0.26315941184899266  0.2631596226128799  0.7368404942195931  1.0000
  N   N2        1.0  0.736840498017867  0.7368404604098931  0.2631595622800431  1.0000
  N   N3        1.0  0.7368404266732566  0.2631595231047759  0.2631595628239386  1.0000
  N   N4        1.0  0.26315957997991407  0.7368404985770284  0.7368404258683344  1.0000
  N   N5        1.0  0.2631595943492656  0.7368405124207463  0.26315945605946056  1.0000
  N   N6        1.0  0.7368404174918342  0.263159479817393  0.7368405247268035  1.0000
