data_image0
_chemical_formula_structural       Nb2PdN6
_chemical_formula_sum              "Nb2 Pd1 N6"
_cell_length_a       4.941870641369281
_cell_length_b       4.94187081438989
_cell_length_c       4.94187077357897
_cell_angle_alpha    59.99999850817067
_cell_angle_beta     60.000000122012814
_cell_angle_gamma    59.99999906877859

_space_group_name_H-M_alt    "P 1"
_space_group_IT_number       1

loop_
  _space_group_symop_operation_xyz
  'x, y, z'

loop_
  _atom_site_type_symbol
  _atom_site_label
  _atom_site_symmetry_multiplicity
  _atom_site_fract_x
  _atom_site_fract_y
  _atom_site_fract_z
  _atom_site_occupancy
  Nb  Nb1       1.0  0.24999994756522292  0.24999998833692097  0.2500000211487849  1.0000
  Nb  Nb2       1.0  0.7500001657086824  0.749999935271132  0.7500000220329761  1.0000
  Pd  Pd1       1.0  9.062790416883545e-09  1.4869811807528022e-08  2.2433627001963447e-08  1.0000
  N   N1        1.0  0.2740265821794915  0.27402659976241495  0.7259734208996957  1.0000
  N   N2        1.0  0.7259733249541495  0.7259735146749042  0.2740265692318044  1.0000
  N   N3        1.0  0.7259734906091905  0.2740266308628842  0.2740265021781939  1.0000
  N   N4        1.0  0.2740264737359181  0.7259734240951852  0.7259734324284934  1.0000
  N   N5        1.0  0.2740265286740278  0.725973392726595  0.27402658262828045  1.0000
  N   N6        1.0  0.7259734901694106  0.27402654079466987  0.7259733894946964  1.0000
