data_image0
_chemical_formula_structural       Nb2PdSe6
_chemical_formula_sum              "Nb2 Pd1 Se6"
_cell_length_a       6.400054539339007
_cell_length_b       6.400054246826598
_cell_length_c       6.400054151994583
_cell_angle_alpha    59.99999963321101
_cell_angle_beta     60.00000022079324
_cell_angle_gamma    60.000000531667396

_space_group_name_H-M_alt    "P 1"
_space_group_IT_number       1

loop_
  _space_group_symop_operation_xyz
  'x, y, z'

loop_
  _atom_site_type_symbol
  _atom_site_label
  _atom_site_symmetry_multiplicity
  _atom_site_fract_x
  _atom_site_fract_y
  _atom_site_fract_z
  _atom_site_occupancy
  Nb  Nb1       1.0  0.25000002357547507  0.24999975640263009  0.2500000994018658  1.0000
  Nb  Nb2       1.0  0.7499994978741534  0.7499997591016807  0.7499999287508196  1.0000
  Pd  Pd1       1.0  3.41516584584025e-08  3.8272953488574754e-08  0.9999999887874818  1.0000
  Se  Se1       1.0  0.27303368086854723  0.2730336852402289  0.7269663252525378  1.0000
  Se  Se2       1.0  0.726966227161987  0.7269664675087539  0.27303382223200817  1.0000
  Se  Se3       1.0  0.7269664119657947  0.2730336990386508  0.27303364367486016  1.0000
  Se  Se4       1.0  0.2730340130896863  0.7269663369778337  0.7269663333507043  1.0000
  Se  Se5       1.0  0.273033739730311  0.7269663804324301  0.2730335953920646  1.0000
  Se  Se6       1.0  0.7269663790074544  0.27303388713541554  0.7269662424556735  1.0000
