data_image0
_chemical_formula_structural       Nb2PbN6
_chemical_formula_sum              "Nb2 Pb1 N6"
_cell_length_a       5.094928130742455
_cell_length_b       5.094928350168756
_cell_length_c       5.094928001674147
_cell_angle_alpha    59.99999834867558
_cell_angle_beta     59.999997344678384
_cell_angle_gamma    59.99999777406985

_space_group_name_H-M_alt    "P 1"
_space_group_IT_number       1

loop_
  _space_group_symop_operation_xyz
  'x, y, z'

loop_
  _atom_site_type_symbol
  _atom_site_label
  _atom_site_symmetry_multiplicity
  _atom_site_fract_x
  _atom_site_fract_y
  _atom_site_fract_z
  _atom_site_occupancy
  Nb  Nb1       1.0  0.249999713424161  0.24999989373455594  0.2499995659619885  1.0000
  Nb  Nb2       1.0  0.7500005154497771  0.7500001042813386  0.7500006761298113  1.0000
  Pb  Pb1       1.0  0.9999999982835428  0.9999999711537888  0.9999999662129283  1.0000
  N   N1        1.0  0.29535566684600945  0.29535595543182114  0.7046446940861134  1.0000
  N   N2        1.0  0.704644418217413  0.7046439776801315  0.29535456108155267  1.0000
  N   N3        1.0  0.7046448632523076  0.295355660791977  0.2953558763520037  1.0000
  N   N4        1.0  0.2953548798051598  0.7046436665494903  0.7046446495748365  1.0000
  N   N5        1.0  0.2953558769508424  0.7046452057522066  0.295355740963881  1.0000
  N   N6        1.0  0.7046440537788312  0.2953555711114365  0.7046442745153152  1.0000
