data_image0
_chemical_formula_structural       Nb2PN6
_chemical_formula_sum              "Nb2 P1 N6"
_cell_length_a       4.792926599194757
_cell_length_b       4.79292618362556
_cell_length_c       4.792926342333192
_cell_angle_alpha    60.00000002129569
_cell_angle_beta     59.99999852082053
_cell_angle_gamma    59.99999800676533

_space_group_name_H-M_alt    "P 1"
_space_group_IT_number       1

loop_
  _space_group_symop_operation_xyz
  'x, y, z'

loop_
  _atom_site_type_symbol
  _atom_site_label
  _atom_site_symmetry_multiplicity
  _atom_site_fract_x
  _atom_site_fract_y
  _atom_site_fract_z
  _atom_site_occupancy
  Nb  Nb1       1.0  0.24999993527575312  0.2499999398417328  0.2500000790275189  1.0000
  Nb  Nb2       1.0  0.7499999800143575  0.7500000341718785  0.7499999988510966  1.0000
  P   P1        1.0  3.358232902296017e-08  7.665952231645892e-09  0.9999999564253703  1.0000
  N   N1        1.0  0.2535341624437262  0.253534097144303  0.7464658072083081  1.0000
  N   N2        1.0  0.7464658485078144  0.7464658717586692  0.25353408977838776  1.0000
  N   N3        1.0  0.7464659468269932  0.2535341837360095  0.2535340940953194  1.0000
  N   N4        1.0  0.2535341078529142  0.7464658924903075  0.7464658838461224  1.0000
  N   N5        1.0  0.25353406787552957  0.7464658801930563  0.2535342037035786  1.0000
  N   N6        1.0  0.7464659290342955  0.25353410915246066  0.746465829872041  1.0000
