data_image0
_chemical_formula_structural       Nb2PdO6
_chemical_formula_sum              "Nb2 Pd1 O6"
_cell_length_a       5.179427887252164
_cell_length_b       5.179427971187916
_cell_length_c       5.1794279443910805
_cell_angle_alpha    59.99999943860963
_cell_angle_beta     59.99999922930566
_cell_angle_gamma    60.00000004882206

_space_group_name_H-M_alt    "P 1"
_space_group_IT_number       1

loop_
  _space_group_symop_operation_xyz
  'x, y, z'

loop_
  _atom_site_type_symbol
  _atom_site_label
  _atom_site_symmetry_multiplicity
  _atom_site_fract_x
  _atom_site_fract_y
  _atom_site_fract_z
  _atom_site_occupancy
  Nb  Nb1       1.0  0.2500000926240283  0.25000006463767505  0.24999985894241245  1.0000
  Nb  Nb2       1.0  0.7500005765689719  0.7500000402118479  0.749999822897382  1.0000
  Pd  Pd1       1.0  1.6799702940354676e-08  0.9999999763536652  2.2730467515284585e-08  1.0000
  O   O1        1.0  0.26036883578953296  0.26036916349057054  0.7396309914801393  1.0000
  O   O2        1.0  0.7396310398730637  0.739630934265051  0.2603689786903312  1.0000
  O   O3        1.0  0.7396308317814503  0.26036898879746717  0.2603690750637419  1.0000
  O   O4        1.0  0.26036890048107947  0.7396309907264811  0.7396309313175576  1.0000
  O   O5        1.0  0.26036888822985027  0.7396310199824954  0.2603692076892425  1.0000
  O   O6        1.0  0.7396308421433597  0.26036882475734346  0.7396310909917296  1.0000
