data_image0
_chemical_formula_structural       Nb2RhN6
_chemical_formula_sum              "Nb2 Rh1 N6"
_cell_length_a       4.915359605524651
_cell_length_b       4.915359701861672
_cell_length_c       4.915359392518081
_cell_angle_alpha    59.99999907608801
_cell_angle_beta     59.99999900672394
_cell_angle_gamma    59.9999977742853

_space_group_name_H-M_alt    "P 1"
_space_group_IT_number       1

loop_
  _space_group_symop_operation_xyz
  'x, y, z'

loop_
  _atom_site_type_symbol
  _atom_site_label
  _atom_site_symmetry_multiplicity
  _atom_site_fract_x
  _atom_site_fract_y
  _atom_site_fract_z
  _atom_site_occupancy
  Nb  Nb1       1.0  0.25000005321581076  0.250000013603096  0.2499997475402838  1.0000
  Nb  Nb2       1.0  0.7499999881826053  0.7499999984509023  0.7500000819305864  1.0000
  Rh  Rh1       1.0  0.9999999889422159  4.9833390985952624e-09  0.9999999603139986  1.0000
  N   N1        1.0  0.275239399049868  0.2752392510581244  0.7247607180632442  1.0000
  N   N2        1.0  0.7247607229816619  0.7247606389040908  0.27523934371864217  1.0000
  N   N3        1.0  0.7247607131492338  0.2752393540010478  0.27523928254300056  1.0000
  N   N4        1.0  0.27523933558168584  0.7247606431029335  0.7247606850096159  1.0000
  N   N5        1.0  0.27523926911451585  0.7247607838644912  0.27523936700485285  1.0000
  N   N6        1.0  0.7247605602643202  0.27523930044790335  0.7247607846170765  1.0000
