data_image0
_chemical_formula_structural       Nb2ReN6
_chemical_formula_sum              "Nb2 Re1 N6"
_cell_length_a       5.067811762355677
_cell_length_b       5.0678117892074415
_cell_length_c       5.067811719176369
_cell_angle_alpha    59.99999958674961
_cell_angle_beta     59.9999998713683
_cell_angle_gamma    59.99999882172445

_space_group_name_H-M_alt    "P 1"
_space_group_IT_number       1

loop_
  _space_group_symop_operation_xyz
  'x, y, z'

loop_
  _atom_site_type_symbol
  _atom_site_label
  _atom_site_symmetry_multiplicity
  _atom_site_fract_x
  _atom_site_fract_y
  _atom_site_fract_z
  _atom_site_occupancy
  Nb  Nb1       1.0  0.24999996798598098  0.2500000746780961  0.25000002171368985  1.0000
  Nb  Nb2       1.0  0.7500000043067683  0.7500000596977746  0.7500000103124309  1.0000
  Re  Re1       1.0  2.6789134364255917e-08  2.900056064208128e-08  0.9999999957840114  1.0000
  N   N1        1.0  0.2638222048908263  0.26382215831186134  0.7361778179806048  1.0000
  N   N2        1.0  0.7361778344025445  0.7361777682266545  0.2638221779090175  1.0000
  N   N3        1.0  0.7361778111180923  0.263822222386404  0.26382214439559515  1.0000
  N   N4        1.0  0.26382217344386716  0.736177786320369  0.7361778298826506  1.0000
  N   N5        1.0  0.2638221889795573  0.7361777660811796  0.2638221721095513  1.0000
  N   N6        1.0  0.7361777845137629  0.2638221459570567  0.7361778126260415  1.0000
