data_image0
_chemical_formula_structural       Nb2SeN6
_chemical_formula_sum              "Nb2 Se1 N6"
_cell_length_a       4.930148028072043
_cell_length_b       4.930147849010447
_cell_length_c       4.930148009248427
_cell_angle_alpha    59.99999908531237
_cell_angle_beta     59.99999835330497
_cell_angle_gamma    59.9999992257271

_space_group_name_H-M_alt    "P 1"
_space_group_IT_number       1

loop_
  _space_group_symop_operation_xyz
  'x, y, z'

loop_
  _atom_site_type_symbol
  _atom_site_label
  _atom_site_symmetry_multiplicity
  _atom_site_fract_x
  _atom_site_fract_y
  _atom_site_fract_z
  _atom_site_occupancy
  Nb  Nb1       1.0  0.250000017713623  0.2500000493763242  0.24999997058374052  1.0000
  Nb  Nb2       1.0  0.7500000444138064  0.7499999916246847  0.7499999598851732  1.0000
  Se  Se1       1.0  0.9999999673523731  0.9999999925474147  1.5993433262736973e-08  1.0000
  N   N1        1.0  0.2577733740014615  0.2577734924756503  0.7422265495741137  1.0000
  N   N2        1.0  0.7422265994094989  0.7422265336201878  0.25777343676229464  1.0000
  N   N3        1.0  0.74222655079981  0.25777340156278405  0.2577734751432137  1.0000
  N   N4        1.0  0.2577734581691923  0.7422266021752991  0.7422265390747739  1.0000
  N   N5        1.0  0.25777344936971813  0.7422265210383396  0.257773438717623  1.0000
  N   N6        1.0  0.742226504809104  0.257773408173892  0.7422266462433911  1.0000
