data_image0
_chemical_formula_structural       Nb2SnN6
_chemical_formula_sum              "Nb2 Sn1 N6"
_cell_length_a       4.936719436934184
_cell_length_b       4.9367193693033045
_cell_length_c       4.936719711470029
_cell_angle_alpha    60.00000405963437
_cell_angle_beta     60.00000235130741
_cell_angle_gamma    60.000001820515

_space_group_name_H-M_alt    "P 1"
_space_group_IT_number       1

loop_
  _space_group_symop_operation_xyz
  'x, y, z'

loop_
  _atom_site_type_symbol
  _atom_site_label
  _atom_site_symmetry_multiplicity
  _atom_site_fract_x
  _atom_site_fract_y
  _atom_site_fract_z
  _atom_site_occupancy
  Nb  Nb1       1.0  0.24999976519732064  0.2500002374682451  0.24999992424649853  1.0000
  Nb  Nb2       1.0  0.7500000149110926  0.7499997473392865  0.7500001852786612  1.0000
  Sn  Sn1       1.0  0.9999999309406189  0.9999999826337814  2.700065306195662e-09  1.0000
  N   N1        1.0  0.2812070156458035  0.2812068479675499  0.7187931368920562  1.0000
  N   N2        1.0  0.7187932846499475  0.7187927200507762  0.2812068095240223  1.0000
  N   N3        1.0  0.7187932452283301  0.28120723572224743  0.2812066589313743  1.0000
  N   N4        1.0  0.28120679053673253  0.7187929574798804  0.718793198311815  1.0000
  N   N5        1.0  0.2812069378846934  0.7187930073246376  0.28120687520673154  1.0000
  N   N6        1.0  0.7187930174785967  0.2812072727085825  0.7187931408727254  1.0000
