data_image0
_chemical_formula_structural       Nb2SiN6
_chemical_formula_sum              "Nb2 Si1 N6"
_cell_length_a       4.730373495444786
_cell_length_b       4.730373404478342
_cell_length_c       4.730373478050008
_cell_angle_alpha    60.00000089704334
_cell_angle_beta     60.00000160977248
_cell_angle_gamma    60.000000817416044

_space_group_name_H-M_alt    "P 1"
_space_group_IT_number       1

loop_
  _space_group_symop_operation_xyz
  'x, y, z'

loop_
  _atom_site_type_symbol
  _atom_site_label
  _atom_site_symmetry_multiplicity
  _atom_site_fract_x
  _atom_site_fract_y
  _atom_site_fract_z
  _atom_site_occupancy
  Nb  Nb1       1.0  0.2500001683151568  0.24999988860104225  0.24999998779655502  1.0000
  Nb  Nb2       1.0  0.7500000201101265  0.7500000438129238  0.7500000590823968  1.0000
  Si  Si1       1.0  0.9999999710037318  0.99999998446535  0.9999999588455191  1.0000
  N   N1        1.0  0.26628745701948475  0.266287590437018  0.7337124106435232  1.0000
  N   N2        1.0  0.7337125612483397  0.7337123471551614  0.2662875200092391  1.0000
  N   N3        1.0  0.7337123511780879  0.26628752032401853  0.2662875401303227  1.0000
  N   N4        1.0  0.26628749357739867  0.7337125130651645  0.7337124822300555  1.0000
  N   N5        1.0  0.26628760057004874  0.7337125884764786  0.26628745930545894  1.0000
  N   N6        1.0  0.7337124238108865  0.26628745526913916  0.733712554737897  1.0000
