data_image0
_chemical_formula_structural       Nb2SN6
_chemical_formula_sum              "Nb2 S1 N6"
_cell_length_a       4.595622181093109
_cell_length_b       4.59562206520828
_cell_length_c       4.595622490665853
_cell_angle_alpha    59.99999466296966
_cell_angle_beta     59.99999479347656
_cell_angle_gamma    59.99999339683703

_space_group_name_H-M_alt    "P 1"
_space_group_IT_number       1

loop_
  _space_group_symop_operation_xyz
  'x, y, z'

loop_
  _atom_site_type_symbol
  _atom_site_label
  _atom_site_symmetry_multiplicity
  _atom_site_fract_x
  _atom_site_fract_y
  _atom_site_fract_z
  _atom_site_occupancy
  Nb  Nb1       1.0  0.24999998029179116  0.25000003774806717  0.25000001471099387  1.0000
  Nb  Nb2       1.0  0.7499999796575864  0.7500000119732362  0.7500000144498127  1.0000
  S   S1        1.0  6.520159687438812e-08  0.9999999626896431  0.999999938182736  1.0000
  N   N1        1.0  0.24658586698685678  0.2465858958595701  0.7534141195229681  1.0000
  N   N2        1.0  0.7534140996381609  0.7534141112213266  0.24658592979620605  1.0000
  N   N3        1.0  0.7534141718981967  0.24658582302172705  0.24658586105175398  1.0000
  N   N4        1.0  0.2465858263761459  0.7534141494138389  0.7534141549496824  1.0000
  N   N5        1.0  0.24658583631382328  0.7534141727687007  0.2465858501377044  1.0000
  N   N6        1.0  0.7534141135851138  0.2465858769526025  0.7534142123361119  1.0000
