data_image0
_chemical_formula_structural       Nb2SO6
_chemical_formula_sum              "Nb2 S1 O6"
_cell_length_a       4.916879067032543
_cell_length_b       4.916879058886425
_cell_length_c       4.9168791571698796
_cell_angle_alpha    59.99999827942776
_cell_angle_beta     59.999998886001165
_cell_angle_gamma    59.99999898549207

_space_group_name_H-M_alt    "P 1"
_space_group_IT_number       1

loop_
  _space_group_symop_operation_xyz
  'x, y, z'

loop_
  _atom_site_type_symbol
  _atom_site_label
  _atom_site_symmetry_multiplicity
  _atom_site_fract_x
  _atom_site_fract_y
  _atom_site_fract_z
  _atom_site_occupancy
  Nb  Nb1       1.0  0.2500000021121396  0.2500000706076105  0.25000003825222633  1.0000
  Nb  Nb2       1.0  0.7500000753734996  0.7499997933518103  0.7499998949144332  1.0000
  S   S1        1.0  0.9999999769876398  1.394903406911362e-07  4.7519149929301116e-08  1.0000
  O   O1        1.0  0.2434121049964103  0.24341207869700288  0.756587944488808  1.0000
  O   O2        1.0  0.7565878297307665  0.7565878824074759  0.2434121253779362  1.0000
  O   O3        1.0  0.7565879007193572  0.2434120990648591  0.24341206888285524  1.0000
  O   O4        1.0  0.24341213387561392  0.756587879475913  0.7565878975880156  1.0000
  O   O5        1.0  0.2434120834869432  0.7565879469268261  0.24341208193529912  1.0000
  O   O6        1.0  0.7565878768817553  0.24341210634091442  0.7565879188600004  1.0000
