data_image0
_chemical_formula_structural       Nb2TaN6
_chemical_formula_sum              "Nb2 Ta1 N6"
_cell_length_a       5.063835864081981
_cell_length_b       5.063835791671624
_cell_length_c       5.06383584458619
_cell_angle_alpha    60.00000003444348
_cell_angle_beta     60.00000026965901
_cell_angle_gamma    59.99999909399138

_space_group_name_H-M_alt    "P 1"
_space_group_IT_number       1

loop_
  _space_group_symop_operation_xyz
  'x, y, z'

loop_
  _atom_site_type_symbol
  _atom_site_label
  _atom_site_symmetry_multiplicity
  _atom_site_fract_x
  _atom_site_fract_y
  _atom_site_fract_z
  _atom_site_occupancy
  Nb  Nb1       1.0  0.24999999138291146  0.24999998580421856  0.2500000139154168  1.0000
  Nb  Nb2       1.0  0.7500000534055319  0.7499999864359868  0.7500000409254501  1.0000
  Ta  Ta1       1.0  3.809701923158e-08  0.9999999951627777  0.9999999655970135  1.0000
  N   N1        1.0  0.27360077595090554  0.2736008005432404  0.7263992395744884  1.0000
  N   N2        1.0  0.7263990982505455  0.7263993482555663  0.2736006997176837  1.0000
  N   N3        1.0  0.7263992385918506  0.273600691933505  0.27360081449482976  1.0000
  N   N4        1.0  0.2736007667875445  0.7263992343530922  0.7263992336576762  1.0000
  N   N5        1.0  0.27360072904915866  0.7263991745987906  0.27360084059604434  1.0000
  N   N6        1.0  0.7263993087600971  0.27360080489724764  0.7263991746107488  1.0000
