data_image0
_chemical_formula_structural       Nb2TiN6
_chemical_formula_sum              "Nb2 Ti1 N6"
_cell_length_a       4.971549729102359
_cell_length_b       4.971549618278847
_cell_length_c       4.971549743371006
_cell_angle_alpha    60.0000005018424
_cell_angle_beta     60.00000040598707
_cell_angle_gamma    60.0000003481933

_space_group_name_H-M_alt    "P 1"
_space_group_IT_number       1

loop_
  _space_group_symop_operation_xyz
  'x, y, z'

loop_
  _atom_site_type_symbol
  _atom_site_label
  _atom_site_symmetry_multiplicity
  _atom_site_fract_x
  _atom_site_fract_y
  _atom_site_fract_z
  _atom_site_occupancy
  Nb  Nb1       1.0  0.2499999465293519  0.2500000643404901  0.250000033899273  1.0000
  Nb  Nb2       1.0  0.7500000566985234  0.7499999318896982  0.7499999849187485  1.0000
  Ti  Ti1       1.0  2.2662607341211142e-08  2.9562087488247147e-08  0.9999999779105434  1.0000
  N   N1        1.0  0.2688438323394073  0.26884397525333825  0.7311561374715798  1.0000
  N   N2        1.0  0.731156185081777  0.731156048075431  0.26884393311252536  1.0000
  N   N3        1.0  0.7311560776191941  0.2688438535703659  0.26884388080031396  1.0000
  N   N4        1.0  0.26884386071629884  0.7311561352692993  0.7311561017471321  1.0000
  N   N5        1.0  0.26884387121367304  0.7311561316156165  0.2688438579490001  1.0000
  N   N6        1.0  0.7311561709593007  0.2688438522970344  0.7311560590516512  1.0000
