data_image0
_chemical_formula_structural       Nb2TiTe6
_chemical_formula_sum              "Nb2 Ti1 Te6"
_cell_length_a       7.000773190886373
_cell_length_b       7.000773183158909
_cell_length_c       7.000773254699373
_cell_angle_alpha    60.00000046436772
_cell_angle_beta     60.00000032572144
_cell_angle_gamma    60.00000097309585

_space_group_name_H-M_alt    "P 1"
_space_group_IT_number       1

loop_
  _space_group_symop_operation_xyz
  'x, y, z'

loop_
  _atom_site_type_symbol
  _atom_site_label
  _atom_site_symmetry_multiplicity
  _atom_site_fract_x
  _atom_site_fract_y
  _atom_site_fract_z
  _atom_site_occupancy
  Nb  Nb1       1.0  0.24999997561004922  0.24999995943427525  0.2500000027040523  1.0000
  Nb  Nb2       1.0  0.7500000027163106  0.750000021757095  0.7500000941346106  1.0000
  Ti  Ti1       1.0  5.614203907166101e-09  2.2742750162192844e-08  5.010013688125747e-08  1.0000
  Te  Te1       1.0  0.2620385189133438  0.26203855927793457  0.7379614616359084  1.0000
  Te  Te2       1.0  0.7379614922007113  0.7379614324100886  0.262038489288594  1.0000
  Te  Te3       1.0  0.737961500087859  0.2620385089970829  0.2620385491321454  1.0000
  Te  Te4       1.0  0.26203858101810784  0.7379614162121342  0.7379614071778722  1.0000
  Te  Te5       1.0  0.26203855195209985  0.737961509230367  0.2620385065724327  1.0000
  Te  Te6       1.0  0.7379613674278165  0.26203856468144265  0.7379614419651779  1.0000
