data_image0
_chemical_formula_structural       Nb2VO6
_chemical_formula_sum              "Nb2 V1 O6"
_cell_length_a       4.943836674085825
_cell_length_b       4.943836936140318
_cell_length_c       4.943836861634967
_cell_angle_alpha    59.999998723065126
_cell_angle_beta     59.99999969014594
_cell_angle_gamma    60.00000007068836

_space_group_name_H-M_alt    "P 1"
_space_group_IT_number       1

loop_
  _space_group_symop_operation_xyz
  'x, y, z'

loop_
  _atom_site_type_symbol
  _atom_site_label
  _atom_site_symmetry_multiplicity
  _atom_site_fract_x
  _atom_site_fract_y
  _atom_site_fract_z
  _atom_site_occupancy
  Nb  Nb1       1.0  0.2500001095866879  0.25000000496894953  0.24999994907877188  1.0000
  Nb  Nb2       1.0  0.7500000114899223  0.7500000768397623  0.7499999364732376  1.0000
  V   V1        1.0  1.768916045814404e-09  2.972779860973853e-08  0.9999999579562763  1.0000
  O   O1        1.0  0.25881020733917787  0.2588103958250966  0.7411897672581399  1.0000
  O   O2        1.0  0.7411896698880925  0.7411896537784994  0.25881033116175345  1.0000
  O   O3        1.0  0.7411895841034881  0.2588101928123783  0.2588104210235087  1.0000
  O   O4        1.0  0.258810341326235  0.7411896561285826  0.7411896969903057  1.0000
  O   O5        1.0  0.25881033011273075  0.7411897740846982  0.25881027173751475  1.0000
  O   O6        1.0  0.7411897251896326  0.25881024579110196  0.7411896493499878  1.0000
