data_image0
_chemical_formula_structural       Nb2VS6
_chemical_formula_sum              "Nb2 V1 S6"
_cell_length_a       5.943639476178383
_cell_length_b       5.943639963370997
_cell_length_c       5.9436400620894245
_cell_angle_alpha    59.99999920794914
_cell_angle_beta     59.99999807897652
_cell_angle_gamma    59.99999935421288

_space_group_name_H-M_alt    "P 1"
_space_group_IT_number       1

loop_
  _space_group_symop_operation_xyz
  'x, y, z'

loop_
  _atom_site_type_symbol
  _atom_site_label
  _atom_site_symmetry_multiplicity
  _atom_site_fract_x
  _atom_site_fract_y
  _atom_site_fract_z
  _atom_site_occupancy
  Nb  Nb1       1.0  0.2500001143258504  0.2499998758886595  0.2499998116235493  1.0000
  Nb  Nb2       1.0  0.7499997288022462  0.7500002870571344  0.7499998631648511  1.0000
  V   V1        1.0  2.3629569762690213e-08  0.9999998475157962  5.60149642575733e-08  1.0000
  S   S1        1.0  0.27105223033324005  0.27105189851131717  0.7289479526161666  1.0000
  S   S2        1.0  0.7289478576420184  0.7289481593440065  0.2710519164417837  1.0000
  S   S3        1.0  0.7289480278248076  0.2710518132649542  0.271052265160361  1.0000
  S   S4        1.0  0.27105193365969443  0.7289480179246606  0.7289481186524234  1.0000
  S   S5        1.0  0.2710520367857305  0.7289480338660788  0.2710519699259642  1.0000
  S   S6        1.0  0.7289480628258123  0.27105205901939805  0.7289480474107746  1.0000
