data_image0
_chemical_formula_structural       Nb2VTe6
_chemical_formula_sum              "Nb2 V1 Te6"
_cell_length_a       6.914203118029481
_cell_length_b       6.914203109636308
_cell_length_c       6.914203177578051
_cell_angle_alpha    59.9999999303109
_cell_angle_beta     59.99999984799091
_cell_angle_gamma    60.000000221620674

_space_group_name_H-M_alt    "P 1"
_space_group_IT_number       1

loop_
  _space_group_symop_operation_xyz
  'x, y, z'

loop_
  _atom_site_type_symbol
  _atom_site_label
  _atom_site_symmetry_multiplicity
  _atom_site_fract_x
  _atom_site_fract_y
  _atom_site_fract_z
  _atom_site_occupancy
  Nb  Nb1       1.0  0.24999995745580555  0.24999988509601237  0.250000151947707  1.0000
  Nb  Nb2       1.0  0.7500000010733265  0.7499999705876943  0.7500000356974773  1.0000
  V   V1        1.0  5.111429184103054e-09  0.999999994685961  6.084583167251991e-08  1.0000
  Te  Te1       1.0  0.2609074892815155  0.26090743706716274  0.7390925321563194  1.0000
  Te  Te2       1.0  0.7390924704255327  0.7390925904371431  0.2609074156819924  1.0000
  Te  Te3       1.0  0.7390925603694264  0.26090752138478507  0.2609074177979373  1.0000
  Te  Te4       1.0  0.2609075091551336  0.739092527375678  0.7390924818591192  1.0000
  Te  Te5       1.0  0.2609074600597716  0.7390925474876655  0.26090745679023347  1.0000
  Te  Te6       1.0  0.7390925479597907  0.26090751544356855  0.7390924491783573  1.0000
