data_image0
_chemical_formula_structural       Nb2VSe6
_chemical_formula_sum              "Nb2 V1 Se6"
_cell_length_a       6.328329843994074
_cell_length_b       6.3283296336634045
_cell_length_c       6.328329666359184
_cell_angle_alpha    60.00000180201147
_cell_angle_beta     59.999999957293134
_cell_angle_gamma    59.99999998077339

_space_group_name_H-M_alt    "P 1"
_space_group_IT_number       1

loop_
  _space_group_symop_operation_xyz
  'x, y, z'

loop_
  _atom_site_type_symbol
  _atom_site_label
  _atom_site_symmetry_multiplicity
  _atom_site_fract_x
  _atom_site_fract_y
  _atom_site_fract_z
  _atom_site_occupancy
  Nb  Nb1       1.0  0.25000034813678035  0.25000006104200495  0.24999959769603014  1.0000
  Nb  Nb2       1.0  0.7500000085196473  0.7500004114957823  0.7500004941893214  1.0000
  V   V1        1.0  0.9999999263687727  1.9353356774814892e-09  0.9999999852816805  1.0000
  Se  Se1       1.0  0.2693970863561609  0.2693969666089161  0.7306029982548937  1.0000
  Se  Se2       1.0  0.73060285017817  0.7306029872586173  0.26939670023971846  1.0000
  Se  Se3       1.0  0.7306028107833925  0.2693969335457237  0.2693971485635768  1.0000
  Se  Se4       1.0  0.2693969165294985  0.730602700991267  0.7306032108361709  1.0000
  Se  Se5       1.0  0.2693971008511563  0.7306030702448151  0.26939695650360534  1.0000
  Se  Se6       1.0  0.7306029792046277  0.269396852657337  0.7306029211621445  1.0000
