data_image0
_chemical_formula_structural       Nb2VN6
_chemical_formula_sum              "Nb2 V1 N6"
_cell_length_a       4.905000397098749
_cell_length_b       4.9050004435813825
_cell_length_c       4.905000654202595
_cell_angle_alpha    59.99999774914432
_cell_angle_beta     59.99999717816618
_cell_angle_gamma    59.999997824758715

_space_group_name_H-M_alt    "P 1"
_space_group_IT_number       1

loop_
  _space_group_symop_operation_xyz
  'x, y, z'

loop_
  _atom_site_type_symbol
  _atom_site_label
  _atom_site_symmetry_multiplicity
  _atom_site_fract_x
  _atom_site_fract_y
  _atom_site_fract_z
  _atom_site_occupancy
  Nb  Nb1       1.0  0.249999982352872  0.25000004537046777  0.2500000096084535  1.0000
  Nb  Nb2       1.0  0.7500000875720763  0.7499999688170075  0.7499999219304211  1.0000
  V   V1        1.0  0.9999999867075343  0.9999999975030691  0.9999999630425127  1.0000
  N   N1        1.0  0.2690223787043823  0.26902226176583344  0.7309776994727343  1.0000
  N   N2        1.0  0.7309776643745305  0.7309777199615352  0.26902232695875455  1.0000
  N   N3        1.0  0.730977660778532  0.2690222866012887  0.26902240737907346  1.0000
  N   N4        1.0  0.26902223910239054  0.7309777151015311  0.7309776990123075  1.0000
  N   N5        1.0  0.2690223446510656  0.7309775902076936  0.2690223268729434  1.0000
  N   N6        1.0  0.7309776827567502  0.2690224314705753  0.7309777179996794  1.0000
