data_image0
_chemical_formula_structural       Nb2WN6
_chemical_formula_sum              "Nb2 W1 N6"
_cell_length_a       4.9915211658795045
_cell_length_b       4.991521134073043
_cell_length_c       4.991521167301236
_cell_angle_alpha    60.00000104896812
_cell_angle_beta     60.00000042045019
_cell_angle_gamma    60.00000030384075

_space_group_name_H-M_alt    "P 1"
_space_group_IT_number       1

loop_
  _space_group_symop_operation_xyz
  'x, y, z'

loop_
  _atom_site_type_symbol
  _atom_site_label
  _atom_site_symmetry_multiplicity
  _atom_site_fract_x
  _atom_site_fract_y
  _atom_site_fract_z
  _atom_site_occupancy
  Nb  Nb1       1.0  0.25000001772528424  0.25000000709526904  0.24999996602773303  1.0000
  Nb  Nb2       1.0  0.7500000467971875  0.7499999918420017  0.7500000221744907  1.0000
  W   W1        1.0  0.9999999930600282  0.9999999999999998  0.999999983436013  1.0000
  N   N1        1.0  0.2715522208897327  0.2715522885632352  0.7284477513044673  1.0000
  N   N2        1.0  0.7284478100314168  0.7284476931984818  0.27155226829638607  1.0000
  N   N3        1.0  0.7284477811225176  0.27155226015109046  0.271552200766721  1.0000
  N   N4        1.0  0.27155215534925436  0.7284477412398305  0.7284477981456973  1.0000
  N   N5        1.0  0.27155221165162363  0.7284477329546711  0.2715522039169519  1.0000
  N   N6        1.0  0.7284477562484735  0.27155227825085204  0.7284477803841949  1.0000
