data_image0
_chemical_formula_structural       Nb2ZnS6
_chemical_formula_sum              "Nb2 Zn1 S6"
_cell_length_a       6.187808670916301
_cell_length_b       6.187808643751726
_cell_length_c       6.187808687048819
_cell_angle_alpha    60.00000043665125
_cell_angle_beta     60.000000278523736
_cell_angle_gamma    60.000000231986384

_space_group_name_H-M_alt    "P 1"
_space_group_IT_number       1

loop_
  _space_group_symop_operation_xyz
  'x, y, z'

loop_
  _atom_site_type_symbol
  _atom_site_label
  _atom_site_symmetry_multiplicity
  _atom_site_fract_x
  _atom_site_fract_y
  _atom_site_fract_z
  _atom_site_occupancy
  Nb  Nb1       1.0  0.249999857415307  0.25000021191251387  0.2500000055039634  1.0000
  Nb  Nb2       1.0  0.7500002280296557  0.7499998440227758  0.7499998679225507  1.0000
  Zn  Zn1       1.0  5.01774459656029e-08  0.9999999782278441  1.488681281237775e-08  1.0000
  S   S1        1.0  0.26471669016946203  0.2647169316887206  0.7352831770694969  1.0000
  S   S2        1.0  0.7352832720392342  0.7352830628886752  0.2647168904671993  1.0000
  S   S3        1.0  0.7352831846573689  0.26471683741710633  0.26471677969311197  1.0000
  S   S4        1.0  0.264716792518887  0.7352830898645341  0.7352832364357941  1.0000
  S   S5        1.0  0.26471672380887723  0.735283094866261  0.26471690024846856  1.0000
  S   S6        1.0  0.7352832016051702  0.264716937317586  0.7352831248642205  1.0000
