data_image0
_chemical_formula_structural       Nb2ZnSe6
_chemical_formula_sum              "Nb2 Zn1 Se6"
_cell_length_a       6.364243127733286
_cell_length_b       6.364243125459457
_cell_length_c       6.364243395235794
_cell_angle_alpha    60.00000014471841
_cell_angle_beta     60.000000587348815
_cell_angle_gamma    60.00000131805928

_space_group_name_H-M_alt    "P 1"
_space_group_IT_number       1

loop_
  _space_group_symop_operation_xyz
  'x, y, z'

loop_
  _atom_site_type_symbol
  _atom_site_label
  _atom_site_symmetry_multiplicity
  _atom_site_fract_x
  _atom_site_fract_y
  _atom_site_fract_z
  _atom_site_occupancy
  Nb  Nb1       1.0  0.25000024253523806  0.2499998322541397  0.24999998535188558  1.0000
  Nb  Nb2       1.0  0.7500000006050263  0.7500001972496833  0.7500000840157098  1.0000
  Zn  Zn1       1.0  0.9999999815262599  1.7319740740375375e-08  7.285581918798636e-08  1.0000
  Se  Se1       1.0  0.27051914911401287  0.27051905342594496  0.729480876830394  1.0000
  Se  Se2       1.0  0.7294808301018604  0.7294809568337154  0.2705190072955074  1.0000
  Se  Se3       1.0  0.7294808779861413  0.2705190032356961  0.2705191509736736  1.0000
  Se  Se4       1.0  0.27051903534696153  0.7294808780881197  0.7294808714147788  1.0000
  Se  Se5       1.0  0.27051907505759637  0.7294809927832961  0.2705190593123914  1.0000
  Se  Se6       1.0  0.7294808109657465  0.2705190521158439  0.729480896514559  1.0000
