data_image0
_chemical_formula_structural       Nb2ZnTe6
_chemical_formula_sum              "Nb2 Zn1 Te6"
_cell_length_a       6.921502547378849
_cell_length_b       6.921502454062924
_cell_length_c       6.921502578048117
_cell_angle_alpha    59.99999921797738
_cell_angle_beta     59.999999379673284
_cell_angle_gamma    59.999999888567395

_space_group_name_H-M_alt    "P 1"
_space_group_IT_number       1

loop_
  _space_group_symop_operation_xyz
  'x, y, z'

loop_
  _atom_site_type_symbol
  _atom_site_label
  _atom_site_symmetry_multiplicity
  _atom_site_fract_x
  _atom_site_fract_y
  _atom_site_fract_z
  _atom_site_occupancy
  Nb  Nb1       1.0  0.24999989731002387  0.2499999216307824  0.25000007063549046  1.0000
  Nb  Nb2       1.0  0.7499999708825835  0.7500000090803626  0.7500003071951358  1.0000
  Zn  Zn1       1.0  0.9999999753979528  0.9999999486851274  5.81852819502825e-08  1.0000
  Te  Te1       1.0  0.2625757799328648  0.2625757086363155  0.7374242474574556  1.0000
  Te  Te2       1.0  0.7374243081517691  0.7374242680812686  0.2625755986665908  1.0000
  Te  Te3       1.0  0.737424311992239  0.2625758287686658  0.26257562898621023  1.0000
  Te  Te4       1.0  0.2625756741392922  0.737424303663013  0.7374242133737081  1.0000
  Te  Te5       1.0  0.26257579526868297  0.7374243374529217  0.26257562969175036  1.0000
  Te  Te6       1.0  0.7374242820978827  0.26257567642370766  0.7374242508893163  1.0000
