data_image0
_chemical_formula_structural       Nb2ZnO6
_chemical_formula_sum              "Nb2 Zn1 O6"
_cell_length_a       4.946633085257509
_cell_length_b       4.946632541778597
_cell_length_c       4.94663252634826
_cell_angle_alpha    60.00000155832232
_cell_angle_beta     60.000001579268535
_cell_angle_gamma    59.99999909876162

_space_group_name_H-M_alt    "P 1"
_space_group_IT_number       1

loop_
  _space_group_symop_operation_xyz
  'x, y, z'

loop_
  _atom_site_type_symbol
  _atom_site_label
  _atom_site_symmetry_multiplicity
  _atom_site_fract_x
  _atom_site_fract_y
  _atom_site_fract_z
  _atom_site_occupancy
  Nb  Nb1       1.0  0.24999990444067144  0.25000034105489405  0.250000041051272  1.0000
  Nb  Nb2       1.0  0.7499999253450683  0.7499995747535658  0.7500001389177938  1.0000
  Zn  Zn1       1.0  0.9999999610003314  4.951833079890232e-09  2.5110227649896922e-08  1.0000
  O   O1        1.0  0.26200082071774533  0.262001068219815  0.7379988911292976  1.0000
  O   O2        1.0  0.737999156882325  0.7379989713844642  0.26200112068945536  1.0000
  O   O3        1.0  0.7379992176871233  0.2620009403507972  0.26200084274503965  1.0000
  O   O4        1.0  0.26200084724954825  0.7379990893498166  0.7379991323788212  1.0000
  O   O5        1.0  0.2620011678508451  0.7379990899952878  0.2620006663510435  1.0000
  O   O6        1.0  0.7379989960940112  0.2620009298016576  0.7379991611201154  1.0000
