data_image0
_chemical_formula_structural       Nb2ZrN6
_chemical_formula_sum              "Nb2 Zr1 N6"
_cell_length_a       5.030226731895415
_cell_length_b       5.030226577961338
_cell_length_c       5.030226719603084
_cell_angle_alpha    60.00000109569042
_cell_angle_beta     60.00000088434053
_cell_angle_gamma    60.000000607948444

_space_group_name_H-M_alt    "P 1"
_space_group_IT_number       1

loop_
  _space_group_symop_operation_xyz
  'x, y, z'

loop_
  _atom_site_type_symbol
  _atom_site_label
  _atom_site_symmetry_multiplicity
  _atom_site_fract_x
  _atom_site_fract_y
  _atom_site_fract_z
  _atom_site_occupancy
  Nb  Nb1       1.0  0.25000013674223054  0.24999987241205116  0.25000000677442813  1.0000
  Nb  Nb2       1.0  0.7499999307325069  0.7500000847121366  0.7499999706688945  1.0000
  Zr  Zr1       1.0  0.9999999990252717  5.1130186849365605e-08  1.6669892787096467e-08  1.0000
  N   N1        1.0  0.281285532740481  0.2812856057979806  0.7187144328511654  1.0000
  N   N2        1.0  0.7187143960519903  0.7187143610652902  0.28128563490751357  1.0000
  N   N3        1.0  0.7187143509961236  0.2812855816000462  0.2812856501762624  1.0000
  N   N4        1.0  0.28128563838302145  0.7187144583063463  0.7187142672722777  1.0000
  N   N5        1.0  0.2812856540965178  0.7187144349736119  0.28128565749176737  1.0000
  N   N6        1.0  0.7187143182870146  0.28128557328076215  0.7187143637998664  1.0000
