data_image0
_chemical_formula_structural       Ni2AgS6
_chemical_formula_sum              "Ni2 Ag1 S6"
_cell_length_a       6.313932863182397
_cell_length_b       6.313933023964148
_cell_length_c       6.313932832746466
_cell_angle_alpha    60.00000008222053
_cell_angle_beta     59.9999985474336
_cell_angle_gamma    59.99999808407869

_space_group_name_H-M_alt    "P 1"
_space_group_IT_number       1

loop_
  _space_group_symop_operation_xyz
  'x, y, z'

loop_
  _atom_site_type_symbol
  _atom_site_label
  _atom_site_symmetry_multiplicity
  _atom_site_fract_x
  _atom_site_fract_y
  _atom_site_fract_z
  _atom_site_occupancy
  Ni  Ni1       1.0  0.25000003356990486  0.25000000558521684  0.24999994453767876  1.0000
  Ni  Ni2       1.0  0.7499999721032862  0.7499999197681757  0.7500000810328982  1.0000
  Ag  Ag1       1.0  0.999999979068431  1.066862259247769e-07  0.9999999143601003  1.0000
  S   S1        1.0  0.2679867906852995  0.2679867710055574  0.732013237349245  1.0000
  S   S2        1.0  0.7320131904557967  0.7320131621068339  0.26798680135927677  1.0000
  S   S3        1.0  0.7320132593001787  0.26798681120778606  0.2679867109438512  1.0000
  S   S4        1.0  0.26798674049666144  0.7320132305305797  0.7320132609562129  1.0000
  S   S5        1.0  0.26798680869420005  0.7320132131438846  0.26798680264279784  1.0000
  S   S6        1.0  0.7320132186648116  0.267986789799489  0.732013261982617  1.0000
