data_image0
_chemical_formula_structural       Ni2AuO6
_chemical_formula_sum              "Ni2 Au1 O6"
_cell_length_a       5.401012000244624
_cell_length_b       5.6628541615408325
_cell_length_c       5.490396257586086
_cell_angle_alpha    55.3196481228327
_cell_angle_beta     61.64022711921818
_cell_angle_gamma    53.511601673478744

_space_group_name_H-M_alt    "P 1"
_space_group_IT_number       1

loop_
  _space_group_symop_operation_xyz
  'x, y, z'

loop_
  _atom_site_type_symbol
  _atom_site_label
  _atom_site_symmetry_multiplicity
  _atom_site_fract_x
  _atom_site_fract_y
  _atom_site_fract_z
  _atom_site_occupancy
  Ni  Ni1       1.0  0.334592374566776  0.8925942988655894  0.49462593100185326  1.0000
  Ni  Ni2       1.0  0.7832457384049767  0.8387040636019254  0.7908700766799704  1.0000
  Au  Au1       1.0  0.9844149851265033  0.05470424032072498  0.9911679408828553  1.0000
  O   O1        1.0  0.40237468922632513  0.054350675073647846  0.6726978296542143  1.0000
  O   O2        1.0  0.589218765289417  0.0030507321989698966  0.1263574292785552  1.0000
  O   O3        1.0  0.732125116755342  0.46893779462108454  0.028105477550294335  1.0000
  O   O4        1.0  0.17853002670435275  0.6603441548401804  0.9033493320302851  1.0000
  O   O5        1.0  0.12144998480953798  0.7992937731401267  0.3963928302310845  1.0000
  O   O6        1.0  0.8740578385302252  0.2282041096313881  0.5964677946794599  1.0000
