data_image0
_chemical_formula_structural       Ni2AgSe6
_chemical_formula_sum              "Ni2 Ag1 Se6"
_cell_length_a       6.364546713732797
_cell_length_b       6.36454724034313
_cell_length_c       6.364546364698349
_cell_angle_alpha    60.00000437844475
_cell_angle_beta     60.000005012540775
_cell_angle_gamma    60.00000444000739

_space_group_name_H-M_alt    "P 1"
_space_group_IT_number       1

loop_
  _space_group_symop_operation_xyz
  'x, y, z'

loop_
  _atom_site_type_symbol
  _atom_site_label
  _atom_site_symmetry_multiplicity
  _atom_site_fract_x
  _atom_site_fract_y
  _atom_site_fract_z
  _atom_site_occupancy
  Ni  Ni1       1.0  0.2500002482367048  0.24999948794281232  0.2499999031484731  1.0000
  Ni  Ni2       1.0  0.749999820182983  0.7500006768004995  0.7499993590380557  1.0000
  Ag  Ag1       1.0  2.3934549126530765e-08  0.9999999499675883  0.9999999957656891  1.0000
  Se  Se1       1.0  0.28992539962409203  0.2899244797341081  0.7100750599275543  1.0000
  Se  Se2       1.0  0.7100749945123399  0.7100751269553673  0.2899251087430853  1.0000
  Se  Se3       1.0  0.7100750189451099  0.28992475038844195  0.28992533996798825  1.0000
  Se  Se4       1.0  0.2899250700352484  0.7100754778575374  0.710074543234913  1.0000
  Se  Se5       1.0  0.2899247136677802  0.7100752817041669  0.2899254472113908  1.0000
  Se  Se6       1.0  0.710074716625841  0.2899247618067472  0.7100752473609607  1.0000
