data_image0
_chemical_formula_structural       Ni2BeS6
_chemical_formula_sum              "Ni2 Be1 S6"
_cell_length_a       5.432712838811569
_cell_length_b       5.4327135681685155
_cell_length_c       5.432713772811476
_cell_angle_alpha    60.000001756338776
_cell_angle_beta     60.000002786665284
_cell_angle_gamma    60.00000274459542

_space_group_name_H-M_alt    "P 1"
_space_group_IT_number       1

loop_
  _space_group_symop_operation_xyz
  'x, y, z'

loop_
  _atom_site_type_symbol
  _atom_site_label
  _atom_site_symmetry_multiplicity
  _atom_site_fract_x
  _atom_site_fract_y
  _atom_site_fract_z
  _atom_site_occupancy
  Ni  Ni1       1.0  0.24999958613017934  0.2499991292246228  0.2500006260122515  1.0000
  Ni  Ni2       1.0  0.7499995053865887  0.7500002732914619  0.7500008072138254  1.0000
  Be  Be1       1.0  0.9999998675364751  0.9999998872805638  1.1706936748991411e-07  1.0000
  S   S1        1.0  0.26013227992685595  0.2601313992135062  0.739868460419699  1.0000
  S   S2        1.0  0.7398683185139451  0.7398682648116578  0.26013137439805606  1.0000
  S   S3        1.0  0.7398682629529404  0.2601319646387936  0.26013143227314606  1.0000
  S   S4        1.0  0.2601316447208048  0.7398685537997117  0.7398677353786215  1.0000
  S   S5        1.0  0.2601320098874401  0.7398688211049469  0.2601315359376555  1.0000
  S   S6        1.0  0.7398685211681952  0.2601317018423313  0.739867893908137  1.0000
