data_image0
_chemical_formula_structural       Ni2BeSe6
_chemical_formula_sum              "Ni2 Be1 Se6"
_cell_length_a       6.1298069039820895
_cell_length_b       6.129809685543844
_cell_length_c       6.129812383304389
_cell_angle_alpha    60.00000595065249
_cell_angle_beta     59.99999643247116
_cell_angle_gamma    59.999989257638774

_space_group_name_H-M_alt    "P 1"
_space_group_IT_number       1

loop_
  _space_group_symop_operation_xyz
  'x, y, z'

loop_
  _atom_site_type_symbol
  _atom_site_label
  _atom_site_symmetry_multiplicity
  _atom_site_fract_x
  _atom_site_fract_y
  _atom_site_fract_z
  _atom_site_occupancy
  Ni  Ni1       1.0  0.24999939388423206  0.2500011063756932  0.25000031220637786  1.0000
  Ni  Ni2       1.0  0.750001732853226  0.7500002381874887  0.7499966981037128  1.0000
  Be  Be1       1.0  6.037782764327456e-08  0.99999983016869  0.9999995261624254  1.0000
  Se  Se1       1.0  0.22595107599867276  0.22595206866449155  0.7740491444191056  1.0000
  Se  Se2       1.0  0.7740490601639319  0.7740476475178474  0.22595417225867995  1.0000
  Se  Se3       1.0  0.7740479263037566  0.22595079680296343  0.22595177019532137  1.0000
  Se  Se4       1.0  0.22595124734215757  0.774047630659751  0.7740485447308421  1.0000
  Se  Se5       1.0  0.22594990143802393  0.7740480445974445  0.2259528015785045  1.0000
  Se  Se6       1.0  0.7740493996945  0.2259525886732765  0.7740472847392157  1.0000
