data_image0
_chemical_formula_structural       Ni2BeO6
_chemical_formula_sum              "Ni2 Be1 O6"
_cell_length_a       3.18884997759305
_cell_length_b       2.481609161139057
_cell_length_c       2.8117667481993096
_cell_angle_alpha    84.55590961492015
_cell_angle_beta     52.918805522649244
_cell_angle_gamma    69.45193261401207

_space_group_name_H-M_alt    "P 1"
_space_group_IT_number       1

loop_
  _space_group_symop_operation_xyz
  'x, y, z'

loop_
  _atom_site_type_symbol
  _atom_site_label
  _atom_site_symmetry_multiplicity
  _atom_site_fract_x
  _atom_site_fract_y
  _atom_site_fract_z
  _atom_site_occupancy
  Ni  Ni1       1.0  0.3875401902973691  0.7729696021242103  0.09286062959803676  1.0000
  Ni  Ni2       1.0  0.05426631480072808  0.7052261052627543  0.7817486019152478  1.0000
  Be  Be1       1.0  0.7321919843250523  0.857276044997801  0.19208473209747537  1.0000
  O   O1        1.0  0.7010803301917812  0.40504603531244443  0.29780943119052283  1.0000
  O   O2        1.0  0.2071417775890118  0.31641339953786746  0.8682792989801024  1.0000
  O   O3        1.0  0.2593860557634515  0.08332988604714457  0.6135677625785158  1.0000
  O   O4        1.0  0.6816458342219822  0.2002580528616998  0.8269599104411747  1.0000
  O   O5        1.0  0.6701057910918884  0.7616338571942749  0.5177438187207447  1.0000
  O   O6        1.0  0.28914599358885046  0.3540073887218423  0.14508319809274628  1.0000
