data_image0
_chemical_formula_structural       Ni2CdTe6
_chemical_formula_sum              "Ni2 Cd1 Te6"
_cell_length_a       7.281810447109405
_cell_length_b       7.281810561189264
_cell_length_c       7.281810672988543
_cell_angle_alpha    59.999999122573634
_cell_angle_beta     60.000000189705716
_cell_angle_gamma    60.00000024697181

_space_group_name_H-M_alt    "P 1"
_space_group_IT_number       1

loop_
  _space_group_symop_operation_xyz
  'x, y, z'

loop_
  _atom_site_type_symbol
  _atom_site_label
  _atom_site_symmetry_multiplicity
  _atom_site_fract_x
  _atom_site_fract_y
  _atom_site_fract_z
  _atom_site_occupancy
  Ni  Ni1       1.0  0.24999990248055154  0.25000000235644754  0.2500000661412964  1.0000
  Ni  Ni2       1.0  0.7499999944427781  0.7500000356620455  0.7499999307641937  1.0000
  Cd  Cd1       1.0  0.9999999732981084  4.2048089054058965e-08  0.9999999937001857  1.0000
  Te  Te1       1.0  0.2797340246376957  0.2797339242507121  0.7202660310543536  1.0000
  Te  Te2       1.0  0.7202660615182974  0.7202660027608258  0.27973401050865787  1.0000
  Te  Te3       1.0  0.7202660618642984  0.27973394834087406  0.27973397830975755  1.0000
  Te  Te4       1.0  0.27973397510097164  0.7202660358560652  0.7202660111909458  1.0000
  Te  Te5       1.0  0.2797339317662571  0.7202660212243482  0.27973399202583277  1.0000
  Te  Te6       1.0  0.7202660778567926  0.2797339831556739  0.7202659832017365  1.0000
