data_image0
_chemical_formula_structural       Ni2CO6
_chemical_formula_sum              "Ni2 C1 O6"
_cell_length_a       4.630503677221171
_cell_length_b       4.630503434575585
_cell_length_c       4.6305037104333895
_cell_angle_alpha    59.999994219079824
_cell_angle_beta     59.9999939802161
_cell_angle_gamma    59.99999557537691

_space_group_name_H-M_alt    "P 1"
_space_group_IT_number       1

loop_
  _space_group_symop_operation_xyz
  'x, y, z'

loop_
  _atom_site_type_symbol
  _atom_site_label
  _atom_site_symmetry_multiplicity
  _atom_site_fract_x
  _atom_site_fract_y
  _atom_site_fract_z
  _atom_site_occupancy
  Ni  Ni1       1.0  0.25000121449942564  0.2500002955580549  0.2500005257948609  1.0000
  Ni  Ni2       1.0  0.7500006472851308  0.7500003444594879  0.75000056288421  1.0000
  C   C1        1.0  3.016362136872958e-07  0.9999999180065501  1.1909538747222157e-07  1.0000
  O   O1        1.0  0.23118920753333883  0.23118865806095185  0.768810581717196  1.0000
  O   O2        1.0  0.7688102091204252  0.7688112228560323  0.23118904893543854  1.0000
  O   O3        1.0  0.7688103537307863  0.23118946197496365  0.2311885384426485  1.0000
  O   O4        1.0  0.23118850647734374  0.7688105247400177  0.7688111145321528  1.0000
  O   O5        1.0  0.23118863327244685  0.7688105600190185  0.23118923559203125  1.0000
  O   O6        1.0  0.7688109018768555  0.23118886067668865  0.7688105140932664  1.0000
