data_image0
_chemical_formula_structural       Ni2CN6
_chemical_formula_sum              "Ni2 C1 N6"
_cell_length_a       4.620366440236292
_cell_length_b       4.620366291203727
_cell_length_c       4.620366643828635
_cell_angle_alpha    59.99999698829575
_cell_angle_beta     60.00000054512003
_cell_angle_gamma    59.99999926098038

_space_group_name_H-M_alt    "P 1"
_space_group_IT_number       1

loop_
  _space_group_symop_operation_xyz
  'x, y, z'

loop_
  _atom_site_type_symbol
  _atom_site_label
  _atom_site_symmetry_multiplicity
  _atom_site_fract_x
  _atom_site_fract_y
  _atom_site_fract_z
  _atom_site_occupancy
  Ni  Ni1       1.0  0.2500003195797324  0.24999994187704447  0.24999985007767808  1.0000
  Ni  Ni2       1.0  0.7499992019769077  0.7500003425279157  0.7500001723300899  1.0000
  C   C1        1.0  8.625758469110005e-08  6.361806792712547e-08  5.925065974498994e-08  1.0000
  N   N1        1.0  0.23516086034134503  0.23516048784970947  0.7648393342625309  1.0000
  N   N2        1.0  0.7648389391541751  0.7648396375100809  0.2351608018448188  1.0000
  N   N3        1.0  0.764839167379858  0.23516049327721059  0.23516085957575422  1.0000
  N   N4        1.0  0.2351610556683328  0.7648390886782487  0.7648394879605624  1.0000
  N   N5        1.0  0.23516106222777416  0.7648393368299542  0.23516020553861602  1.0000
  N   N6        1.0  0.7648392680238965  0.23516069575349996  0.764839237590477  1.0000
