data_image0
_chemical_formula_structural       Ni2CS6
_chemical_formula_sum              "Ni2 C1 S6"
_cell_length_a       5.709925381881718
_cell_length_b       5.7099252606502064
_cell_length_c       5.709925246276324
_cell_angle_alpha    60.00000008585732
_cell_angle_beta     60.00000026685889
_cell_angle_gamma    60.0000017883239

_space_group_name_H-M_alt    "P 1"
_space_group_IT_number       1

loop_
  _space_group_symop_operation_xyz
  'x, y, z'

loop_
  _atom_site_type_symbol
  _atom_site_label
  _atom_site_symmetry_multiplicity
  _atom_site_fract_x
  _atom_site_fract_y
  _atom_site_fract_z
  _atom_site_occupancy
  Ni  Ni1       1.0  0.24999993042658322  0.2499999660875931  0.2500000432127302  1.0000
  Ni  Ni2       1.0  0.7500000830192669  0.7499997995955338  0.7500001119121922  1.0000
  C   C1        1.0  2.3776544081715054e-08  2.573928378988813e-08  0.9999999594800583  1.0000
  S   S1        1.0  0.23000721849435884  0.23000729150002774  0.7699927465090366  1.0000
  S   S2        1.0  0.7699928359855734  0.7699926908220672  0.2300071746991759  1.0000
  S   S3        1.0  0.7699927917776819  0.23000728207513857  0.23000713357151562  1.0000
  S   S4        1.0  0.2300071390564045  0.7699927860445643  0.7699927995554705  1.0000
  S   S5        1.0  0.23000719205788087  0.76999282357917  0.23000726813579705  1.0000
  S   S6        1.0  0.769992782978688  0.23000733033814524  0.7699927698707739  1.0000
