data_image0
_chemical_formula_structural       Ni2CuSe6
_chemical_formula_sum              "Ni2 Cu1 Se6"
_cell_length_a       6.183146775907447
_cell_length_b       6.1831470461735325
_cell_length_c       6.183146631356932
_cell_angle_alpha    59.999999622062774
_cell_angle_beta     59.999999077964304
_cell_angle_gamma    60.000000736340084

_space_group_name_H-M_alt    "P 1"
_space_group_IT_number       1

loop_
  _space_group_symop_operation_xyz
  'x, y, z'

loop_
  _atom_site_type_symbol
  _atom_site_label
  _atom_site_symmetry_multiplicity
  _atom_site_fract_x
  _atom_site_fract_y
  _atom_site_fract_z
  _atom_site_occupancy
  Ni  Ni1       1.0  0.25000016750079446  0.25000031428012637  0.25000010750405754  1.0000
  Ni  Ni2       1.0  0.7499998301847328  0.7499998336040804  0.7500003237744486  1.0000
  Cu  Cu1       1.0  1.692075284072018e-08  0.9999999940576653  0.9999998812998253  1.0000
  Se  Se1       1.0  0.2819907029233809  0.2819906188386655  0.7180092359480488  1.0000
  Se  Se2       1.0  0.7180093900466803  0.718009265601933  0.28199055971171805  1.0000
  Se  Se3       1.0  0.7180091450252101  0.2819907682365916  0.28199058267997185  1.0000
  Se  Se4       1.0  0.28199078143334716  0.7180092627816594  0.7180093490960814  1.0000
  Se  Se5       1.0  0.28199073282997034  0.7180092292486806  0.28199056176905674  1.0000
  Se  Se6       1.0  0.7180092238872507  0.2819907165960677  0.7180093990817168  1.0000
