data_image0
_chemical_formula_structural       Ni2CdS6
_chemical_formula_sum              "Ni2 Cd1 S6"
_cell_length_a       6.304307274820578
_cell_length_b       6.304308058653784
_cell_length_c       6.304307931279139
_cell_angle_alpha    60.000004685078274
_cell_angle_beta     59.999999152050044
_cell_angle_gamma    60.00000104210886

_space_group_name_H-M_alt    "P 1"
_space_group_IT_number       1

loop_
  _space_group_symop_operation_xyz
  'x, y, z'

loop_
  _atom_site_type_symbol
  _atom_site_label
  _atom_site_symmetry_multiplicity
  _atom_site_fract_x
  _atom_site_fract_y
  _atom_site_fract_z
  _atom_site_occupancy
  Ni  Ni1       1.0  0.24999987090270256  0.25000013544482763  0.25000001477157957  1.0000
  Ni  Ni2       1.0  0.750000049916156  0.7499998584899926  0.750000117081338  1.0000
  Cd  Cd1       1.0  3.7724106497255974e-08  0.999999974744755  0.9999999398341934  1.0000
  S   S1        1.0  0.2738255702160285  0.2738257784928091  0.7261744628534481  1.0000
  S   S2        1.0  0.7261744178357755  0.7261742115565791  0.2738254200139938  1.0000
  S   S3        1.0  0.7261743564661922  0.2738257616949289  0.27382557656727385  1.0000
  S   S4        1.0  0.2738256490700148  0.7261741759012712  0.7261745188892423  1.0000
  S   S5        1.0  0.2738256376971738  0.7261742899037934  0.2738256655987082  1.0000
  S   S6        1.0  0.7261744003793125  0.2738258303072299  0.7261743016594427  1.0000
