data_image0
_chemical_formula_structural       Ni2CrS6
_chemical_formula_sum              "Ni2 Cr1 S6"
_cell_length_a       5.704102644325651
_cell_length_b       5.704102757428069
_cell_length_c       5.704101632269288
_cell_angle_alpha    60.00000026181385
_cell_angle_beta     60.00000391125955
_cell_angle_gamma    60.00000289900096

_space_group_name_H-M_alt    "P 1"
_space_group_IT_number       1

loop_
  _space_group_symop_operation_xyz
  'x, y, z'

loop_
  _atom_site_type_symbol
  _atom_site_label
  _atom_site_symmetry_multiplicity
  _atom_site_fract_x
  _atom_site_fract_y
  _atom_site_fract_z
  _atom_site_occupancy
  Ni  Ni1       1.0  0.2500005818472711  0.24999925652237912  0.2500000975160624  1.0000
  Ni  Ni2       1.0  0.7499996771559513  0.7500006467208971  0.7500005035108122  1.0000
  Cr  Cr1       1.0  0.999999999059766  0.999999978528684  3.039775581037844e-07  1.0000
  S   S1        1.0  0.26992251327090394  0.26992194162623795  0.7300777273327796  1.0000
  S   S2        1.0  0.730077562437154  0.7300780195896216  0.2699216092401818  1.0000
  S   S3        1.0  0.7300773980325471  0.2699219913539512  0.26992242777621467  1.0000
  S   S4        1.0  0.26992200003972544  0.7300776950292676  0.7300777216308761  1.0000
  S   S5        1.0  0.26992252723616345  0.730078138692928  0.26992204801987163  1.0000
  S   S6        1.0  0.7300776850948284  0.269922372188107  0.7300775554963134  1.0000
