data_image0
_chemical_formula_structural       Ni2CdO6
_chemical_formula_sum              "Ni2 Cd1 O6"
_cell_length_a       5.37878079273865
_cell_length_b       5.378780748765151
_cell_length_c       5.378780336336679
_cell_angle_alpha    59.999998374888264
_cell_angle_beta     59.99999763854149
_cell_angle_gamma    59.99999872325928

_space_group_name_H-M_alt    "P 1"
_space_group_IT_number       1

loop_
  _space_group_symop_operation_xyz
  'x, y, z'

loop_
  _atom_site_type_symbol
  _atom_site_label
  _atom_site_symmetry_multiplicity
  _atom_site_fract_x
  _atom_site_fract_y
  _atom_site_fract_z
  _atom_site_occupancy
  Ni  Ni1       1.0  0.2499999845690542  0.24999981901979856  0.24999964029807606  1.0000
  Ni  Ni2       1.0  0.7499997852580651  0.749999659711757  0.7500011459365857  1.0000
  Cd  Cd1       1.0  0.9999999829560625  0.9999999931690192  1.9374090164083683e-08  1.0000
  O   O1        1.0  0.2724591067850458  0.2724589057545523  0.7275411629748761  1.0000
  O   O2        1.0  0.7275410429048629  0.7275409919438327  0.2724584522945705  1.0000
  O   O3        1.0  0.7275411207627875  0.2724593267914445  0.27245864816972987  1.0000
  O   O4        1.0  0.27245878525178624  0.7275409283949167  0.727541140728929  1.0000
  O   O5        1.0  0.2724593503802558  0.7275412233235948  0.27245869267035616  1.0000
  O   O6        1.0  0.7275408227638724  0.27245917075936593  0.727541088426752  1.0000
