data_image0
_chemical_formula_structural       Ni2CO6
_chemical_formula_sum              "Ni2 C1 O6"
_cell_length_a       4.288260656098808
_cell_length_b       4.288262667182969
_cell_length_c       4.288262702671395
_cell_angle_alpha    59.99997198860279
_cell_angle_beta     60.0000157016317
_cell_angle_gamma    59.99998923261786

_space_group_name_H-M_alt    "P 1"
_space_group_IT_number       1

loop_
  _space_group_symop_operation_xyz
  'x, y, z'

loop_
  _atom_site_type_symbol
  _atom_site_label
  _atom_site_symmetry_multiplicity
  _atom_site_fract_x
  _atom_site_fract_y
  _atom_site_fract_z
  _atom_site_occupancy
  Ni  Ni1       1.0  0.2500000717745413  0.24999989332403721  0.2500000638700061  1.0000
  Ni  Ni2       1.0  0.7500000649054234  0.7500001312265674  0.7499999898889333  1.0000
  C   C1        1.0  4.557795823576201e-06  0.9999950590472774  4.909108716565243e-06  1.0000
  O   O1        1.0  0.24248735602877436  0.24248923568049732  0.7575108405806048  1.0000
  O   O2        1.0  0.7575108607206614  0.757512768107272  0.24248723401671504  1.0000
  O   O3        1.0  0.7575108559886121  0.24248941987578213  0.24248732979727738  1.0000
  O   O4        1.0  0.24248744311926929  0.7575125953360794  0.7575108448214319  1.0000
  O   O5        1.0  0.2424870531375426  0.757512984213025  0.24248702963950713  1.0000
  O   O6        1.0  0.7575112447757147  0.24248890533306136  0.7575111780941207  1.0000
