data_image0
_chemical_formula_structural       Ni2CrTe6
_chemical_formula_sum              "Ni2 Cr1 Te6"
_cell_length_a       7.02008662484409
_cell_length_b       7.020086618277406
_cell_length_c       7.0200865350041
_cell_angle_alpha    60.00000034335899
_cell_angle_beta     60.00000087351134
_cell_angle_gamma    59.99999919215937

_space_group_name_H-M_alt    "P 1"
_space_group_IT_number       1

loop_
  _space_group_symop_operation_xyz
  'x, y, z'

loop_
  _atom_site_type_symbol
  _atom_site_label
  _atom_site_symmetry_multiplicity
  _atom_site_fract_x
  _atom_site_fract_y
  _atom_site_fract_z
  _atom_site_occupancy
  Ni  Ni1       1.0  0.24999991676474026  0.2500001547959281  0.24999995251303042  1.0000
  Ni  Ni2       1.0  0.7500000191466378  0.7499998502782703  0.75000025096264  1.0000
  Cr  Cr1       1.0  2.1565513766261814e-08  1.9190922047204228e-08  0.9999999226424275  1.0000
  Te  Te1       1.0  0.26218324945073157  0.2621832731968398  0.7378166945992136  1.0000
  Te  Te2       1.0  0.7378167443469242  0.7378166865169972  0.2621831393701134  1.0000
  Te  Te3       1.0  0.7378167806271778  0.26218332532332456  0.26218317941939245  1.0000
  Te  Te4       1.0  0.262183200159857  0.7378167128988299  0.7378168596898915  1.0000
  Te  Te5       1.0  0.2621832962357999  0.7378167192062154  0.2621832086343409  1.0000
  Te  Te6       1.0  0.7378167739890387  0.2621832579539131  0.7378167934953126  1.0000
