data_image0
_chemical_formula_structural       Ni2CuTe6
_chemical_formula_sum              "Ni2 Cu1 Te6"
_cell_length_a       6.898655454338555
_cell_length_b       6.898655817236375
_cell_length_c       6.898655860960417
_cell_angle_alpha    59.99999798314385
_cell_angle_beta     59.99999809311153
_cell_angle_gamma    59.99999912861968

_space_group_name_H-M_alt    "P 1"
_space_group_IT_number       1

loop_
  _space_group_symop_operation_xyz
  'x, y, z'

loop_
  _atom_site_type_symbol
  _atom_site_label
  _atom_site_symmetry_multiplicity
  _atom_site_fract_x
  _atom_site_fract_y
  _atom_site_fract_z
  _atom_site_occupancy
  Ni  Ni1       1.0  0.25000010524957816  0.25000009676268986  0.24999989124217448  1.0000
  Ni  Ni2       1.0  0.7500000756898246  0.7499999760531687  0.7499997899725239  1.0000
  Cu  Cu1       1.0  0.999999937663074  2.1304059589056588e-08  1.2053591694463457e-07  1.0000
  Te  Te1       1.0  0.2651753336085341  0.2651753740513642  0.7348246845322564  1.0000
  Te  Te2       1.0  0.7348247769991977  0.7348245833674886  0.26517543454152387  1.0000
  Te  Te3       1.0  0.7348245482082262  0.26517531277749695  0.2651753751098911  1.0000
  Te  Te4       1.0  0.2651754149364162  0.7348245949318849  0.7348246106209316  1.0000
  Te  Te5       1.0  0.2651752966000099  0.7348246028542987  0.2651754145390046  1.0000
  Te  Te6       1.0  0.7348245115884928  0.26517544333148074  0.7348246765520557  1.0000
