data_image0
_chemical_formula_structural       Ni2CS6
_chemical_formula_sum              "Ni2 C1 S6"
_cell_length_a       4.175244568380851
_cell_length_b       2.150896713130416
_cell_length_c       3.5481812116434006
_cell_angle_alpha    56.72100250052169
_cell_angle_beta     78.60057773920805
_cell_angle_gamma    77.23499854490386

_space_group_name_H-M_alt    "P 1"
_space_group_IT_number       1

loop_
  _space_group_symop_operation_xyz
  'x, y, z'

loop_
  _atom_site_type_symbol
  _atom_site_label
  _atom_site_symmetry_multiplicity
  _atom_site_fract_x
  _atom_site_fract_y
  _atom_site_fract_z
  _atom_site_occupancy
  Ni  Ni1       1.0  0.2760491147967585  0.3483202030872022  0.8289744360287774  1.0000
  Ni  Ni2       1.0  0.1388731891038697  0.7904637791963126  0.5380898190181109  1.0000
  C   C1        1.0  0.05162963631257327  0.8982382900833829  0.3896450028963757  1.0000
  S   S1        1.0  0.2542315240849243  0.9078908283515845  0.07537058128589313  1.0000
  S   S2        1.0  0.14442713373984306  0.5117941397734164  0.48752874236856975  1.0000
  S   S3        1.0  0.44007647737026523  0.9716569061056654  0.020814768833438475  1.0000
  S   S4        1.0  0.23059711529773888  0.5691896516225026  0.18699646616056542  1.0000
  S   S5        1.0  0.37591818108582764  0.11158059461418501  0.285249789772282  1.0000
  S   S6        1.0  0.32135890893332353  0.7028963711007026  0.3319833014327822  1.0000
