data_image0
_chemical_formula_structural       Ni2FeTe6
_chemical_formula_sum              "Ni2 Fe1 Te6"
_cell_length_a       6.915237585277057
_cell_length_b       6.915237613861322
_cell_length_c       6.915237789210188
_cell_angle_alpha    59.99999911527121
_cell_angle_beta     60.00000163094611
_cell_angle_gamma    60.000002925775036

_space_group_name_H-M_alt    "P 1"
_space_group_IT_number       1

loop_
  _space_group_symop_operation_xyz
  'x, y, z'

loop_
  _atom_site_type_symbol
  _atom_site_label
  _atom_site_symmetry_multiplicity
  _atom_site_fract_x
  _atom_site_fract_y
  _atom_site_fract_z
  _atom_site_occupancy
  Ni  Ni1       1.0  0.24999998308301347  0.2500000411508711  0.24999994433426131  1.0000
  Ni  Ni2       1.0  0.7500000398750837  0.750000011874485  0.750000150048185  1.0000
  Fe  Fe1       1.0  0.9999999950253825  0.9999999397832318  8.176247642699528e-08  1.0000
  Te  Te1       1.0  0.24447611879346623  0.24447600278088655  0.7555239397197371  1.0000
  Te  Te2       1.0  0.7555239276777497  0.7555239847144611  0.2444759110381723  1.0000
  Te  Te3       1.0  0.7555239108239794  0.24447617174348218  0.24447607642303784  1.0000
  Te  Te4       1.0  0.24447605222419883  0.7555238706553847  0.7555239317567343  1.0000
  Te  Te5       1.0  0.24447611667875382  0.7555239025211307  0.24447604869579362  1.0000
  Te  Te6       1.0  0.7555238699838386  0.24447606903448182  0.7555239136864692  1.0000
