data_image0
_chemical_formula_structural       Ni2FeO6
_chemical_formula_sum              "Ni2 Fe1 O6"
_cell_length_a       5.089854622038016
_cell_length_b       5.08985468230894
_cell_length_c       5.089854917723125
_cell_angle_alpha    60.00000032870569
_cell_angle_beta     59.999999389854395
_cell_angle_gamma    60.00000090598969

_space_group_name_H-M_alt    "P 1"
_space_group_IT_number       1

loop_
  _space_group_symop_operation_xyz
  'x, y, z'

loop_
  _atom_site_type_symbol
  _atom_site_label
  _atom_site_symmetry_multiplicity
  _atom_site_fract_x
  _atom_site_fract_y
  _atom_site_fract_z
  _atom_site_occupancy
  Ni  Ni1       1.0  0.24999992824210027  0.2500005741257797  0.24999975502953237  1.0000
  Ni  Ni2       1.0  0.7499998818969966  0.7499998382857795  0.7500003098303293  1.0000
  Fe  Fe1       1.0  3.2334915919976553e-08  0.9999999302188314  2.65818958630706e-08  1.0000
  O   O1        1.0  0.24764092958098602  0.24764082846780236  0.7523591194974458  1.0000
  O   O2        1.0  0.7523591859862244  0.7523589535069876  0.24764089764463593  1.0000
  O   O3        1.0  0.7523591065306614  0.24764099173052545  0.24764069843031639  1.0000
  O   O4        1.0  0.24764088123426592  0.7523589490565785  0.7523592619482073  1.0000
  O   O5        1.0  0.24764096345935754  0.7523589818294373  0.24764079468576208  1.0000
  O   O6        1.0  0.7523591030668223  0.24764091323897064  0.7523591707831017  1.0000
