data_image0
_chemical_formula_structural       Ni2FeSe6
_chemical_formula_sum              "Ni2 Fe1 Se6"
_cell_length_a       6.467574911044913
_cell_length_b       6.467574831764431
_cell_length_c       6.467574754493323
_cell_angle_alpha    60.00000195139404
_cell_angle_beta     59.99999970817297
_cell_angle_gamma    59.999999810005946

_space_group_name_H-M_alt    "P 1"
_space_group_IT_number       1

loop_
  _space_group_symop_operation_xyz
  'x, y, z'

loop_
  _atom_site_type_symbol
  _atom_site_label
  _atom_site_symmetry_multiplicity
  _atom_site_fract_x
  _atom_site_fract_y
  _atom_site_fract_z
  _atom_site_occupancy
  Ni  Ni1       1.0  0.24999995217744286  0.24999999553725213  0.25000014340744103  1.0000
  Ni  Ni2       1.0  0.7500000419011651  0.7500001589356604  0.7499998524628988  1.0000
  Fe  Fe1       1.0  0.9999999535618347  3.219237876575165e-08  0.9999999437297342  1.0000
  Se  Se1       1.0  0.24712256775702013  0.24712265345114431  0.7528773771976701  1.0000
  Se  Se2       1.0  0.7528772337741197  0.7528773930826163  0.24712283076296523  1.0000
  Se  Se3       1.0  0.7528776165196329  0.24712240410170938  0.24712247408501734  1.0000
  Se  Se4       1.0  0.24712245766857238  0.7528776064523255  0.7528774160804181  1.0000
  Se  Se5       1.0  0.2471226278652665  0.7528773000298016  0.2471224934640009  1.0000
  Se  Se6       1.0  0.7528775496083518  0.2471224435168482  0.7528774940241626  1.0000
