data_image0
_chemical_formula_structural       Ni2GeSe6
_chemical_formula_sum              "Ni2 Ge1 Se6"
_cell_length_a       6.3573028583625435
_cell_length_b       6.357302609808862
_cell_length_c       6.357302742568312
_cell_angle_alpha    59.999998301646514
_cell_angle_beta     59.99999785823045
_cell_angle_gamma    59.99999953809104

_space_group_name_H-M_alt    "P 1"
_space_group_IT_number       1

loop_
  _space_group_symop_operation_xyz
  'x, y, z'

loop_
  _atom_site_type_symbol
  _atom_site_label
  _atom_site_symmetry_multiplicity
  _atom_site_fract_x
  _atom_site_fract_y
  _atom_site_fract_z
  _atom_site_occupancy
  Ni  Ni1       1.0  0.24999968253971427  0.25000025189748626  0.24999998931190137  1.0000
  Ni  Ni2       1.0  0.7499996818421729  0.7500001989291755  0.7500002957134578  1.0000
  Ge  Ge1       1.0  0.9999999902572376  3.467729835062267e-08  7.981655831957212e-09  1.0000
  Se  Se1       1.0  0.2877647495150096  0.2877647605690847  0.7122352127996031  1.0000
  Se  Se2       1.0  0.7122352563363705  0.7122351662450763  0.28776472406632786  1.0000
  Se  Se3       1.0  0.7122354925701097  0.2877645632744139  0.28776478601800415  1.0000
  Se  Se4       1.0  0.2877647928367885  0.7122350861213631  0.7122352850568526  1.0000
  Se  Se5       1.0  0.2877650060739885  0.7122352117914164  0.2877645155276566  1.0000
  Se  Se6       1.0  0.712235361980844  0.2877647073166842  0.7122351906077701  1.0000
