data_image0
_chemical_formula_structural       Ni2MnSe6
_chemical_formula_sum              "Ni2 Mn1 Se6"
_cell_length_a       6.585514354528313
_cell_length_b       6.5855141413594875
_cell_length_c       6.585514279540107
_cell_angle_alpha    59.99999991887284
_cell_angle_beta     60.00000089493904
_cell_angle_gamma    59.999999648991896

_space_group_name_H-M_alt    "P 1"
_space_group_IT_number       1

loop_
  _space_group_symop_operation_xyz
  'x, y, z'

loop_
  _atom_site_type_symbol
  _atom_site_label
  _atom_site_symmetry_multiplicity
  _atom_site_fract_x
  _atom_site_fract_y
  _atom_site_fract_z
  _atom_site_occupancy
  Ni  Ni1       1.0  0.2499999978629318  0.24999996231382396  0.25000006611990844  1.0000
  Ni  Ni2       1.0  0.7499999875475838  0.749999989228046  0.7500000378692067  1.0000
  Mn  Mn1       1.0  0.9999999865927617  0.9999999981402439  0.9999999651159369  1.0000
  Se  Se1       1.0  0.24997262519214775  0.2499725185313986  0.7500274273081827  1.0000
  Se  Se2       1.0  0.7500273584102256  0.7500275278580218  0.24997257094034134  1.0000
  Se  Se3       1.0  0.7500274606486731  0.24997259954252812  0.24997254111522382  1.0000
  Se  Se4       1.0  0.24997251161894046  0.750027428249333  0.7500274250264466  1.0000
  Se  Se5       1.0  0.24997256947294666  0.7500273941380252  0.2499726246883763  1.0000
  Se  Se6       1.0  0.7500275063878076  0.249972564842868  0.7500273544318938  1.0000
