data_image0
_chemical_formula_structural       Ni2MgSe6
_chemical_formula_sum              "Ni2 Mg1 Se6"
_cell_length_a       6.289137084426888
_cell_length_b       6.289137115589963
_cell_length_c       6.289138039284244
_cell_angle_alpha    59.99999717938424
_cell_angle_beta     59.99999554712311
_cell_angle_gamma    60.00000303576028

_space_group_name_H-M_alt    "P 1"
_space_group_IT_number       1

loop_
  _space_group_symop_operation_xyz
  'x, y, z'

loop_
  _atom_site_type_symbol
  _atom_site_label
  _atom_site_symmetry_multiplicity
  _atom_site_fract_x
  _atom_site_fract_y
  _atom_site_fract_z
  _atom_site_occupancy
  Ni  Ni1       1.0  0.24999980694054577  0.25000043201387  0.24999955636705953  1.0000
  Ni  Ni2       1.0  0.7499991103970851  0.750000596925934  0.7499982898073648  1.0000
  Mg  Mg1       1.0  5.649035297760764e-08  0.9999999902630217  2.1671980779718541e-07  1.0000
  Se  Se1       1.0  0.2877816667847803  0.2877806440989916  0.7122200858060788  1.0000
  Se  Se2       1.0  0.7122193775571575  0.7122182835993388  0.2877833110474099  1.0000
  Se  Se3       1.0  0.7122180158746708  0.28778126986245617  0.2877807152990558  1.0000
  Se  Se4       1.0  0.28778122746391055  0.712219480599575  0.7122183330369404  1.0000
  Se  Se5       1.0  0.28778126349125466  0.7122182195312963  0.28778089326369216  1.0000
  Se  Se6       1.0  0.7122194921811322  0.2877810509088654  0.7122185968487075  1.0000
