data_image0
_chemical_formula_structural       Ni2MgO6
_chemical_formula_sum              "Ni2 Mg1 O6"
_cell_length_a       4.995622890607965
_cell_length_b       4.995622938539669
_cell_length_c       4.995622431890413
_cell_angle_alpha    59.99999843177343
_cell_angle_beta     60.000000369879025
_cell_angle_gamma    59.999996329179424

_space_group_name_H-M_alt    "P 1"
_space_group_IT_number       1

loop_
  _space_group_symop_operation_xyz
  'x, y, z'

loop_
  _atom_site_type_symbol
  _atom_site_label
  _atom_site_symmetry_multiplicity
  _atom_site_fract_x
  _atom_site_fract_y
  _atom_site_fract_z
  _atom_site_occupancy
  Ni  Ni1       1.0  0.25000023364118246  0.24999970284752965  0.2500002284095534  1.0000
  Ni  Ni2       1.0  0.7500003801042776  0.7499990031222279  0.7500014248094097  1.0000
  Mg  Mg1       1.0  6.203594371071556e-08  0.999999938709095  5.96800585588916e-08  1.0000
  O   O1        1.0  0.26736162759534793  0.2673627147293133  0.7326380213037097  1.0000
  O   O2        1.0  0.7326375594993301  0.7326380383566449  0.26736144403859385  1.0000
  O   O3        1.0  0.7326376146984287  0.2673625986560395  0.26736178441494074  1.0000
  O   O4        1.0  0.2673620305511214  0.7326380073317372  0.7326376354954045  1.0000
  O   O5        1.0  0.2673624281671148  0.7326376633147736  0.26736193750782183  1.0000
  O   O6        1.0  0.7326380862585192  0.2673623322156019  0.7326374671430831  1.0000
