data_image0
_chemical_formula_structural       Ni2MgTe6
_chemical_formula_sum              "Ni2 Mg1 Te6"
_cell_length_a       7.227604366090674
_cell_length_b       7.227604206588657
_cell_length_c       7.227604296921472
_cell_angle_alpha    59.99999926925762
_cell_angle_beta     59.9999991893789
_cell_angle_gamma    60.00000237004224

_space_group_name_H-M_alt    "P 1"
_space_group_IT_number       1

loop_
  _space_group_symop_operation_xyz
  'x, y, z'

loop_
  _atom_site_type_symbol
  _atom_site_label
  _atom_site_symmetry_multiplicity
  _atom_site_fract_x
  _atom_site_fract_y
  _atom_site_fract_z
  _atom_site_occupancy
  Ni  Ni1       1.0  0.2499999667277238  0.2499999461255822  0.2500000521257898  1.0000
  Ni  Ni2       1.0  0.7499999898715848  0.7500001061137256  0.7499998116345528  1.0000
  Mg  Mg1       1.0  0.999999985316854  0.9999998762987385  1.7711178139102466e-07  1.0000
  Te  Te1       1.0  0.2777188659986312  0.27771883452650864  0.7222811402136449  1.0000
  Te  Te2       1.0  0.7222812288686804  0.7222811719602832  0.277718873757927  1.0000
  Te  Te3       1.0  0.7222811379385976  0.2777187744310445  0.2777189448221993  1.0000
  Te  Te4       1.0  0.27771889660659244  0.7222812117212912  0.7222810527507048  1.0000
  Te  Te5       1.0  0.2777187921798628  0.7222812046486622  0.2777188942451584  1.0000
  Te  Te6       1.0  0.7222811350807126  0.27771887809232537  0.7222810464144334  1.0000
