data_image0
_chemical_formula_structural       Ni2MnTe6
_chemical_formula_sum              "Ni2 Mn1 Te6"
_cell_length_a       6.912053256012673
_cell_length_b       6.9120534266805285
_cell_length_c       6.912053572548973
_cell_angle_alpha    59.99999794585503
_cell_angle_beta     59.9999993191264
_cell_angle_gamma    59.999998211417385

_space_group_name_H-M_alt    "P 1"
_space_group_IT_number       1

loop_
  _space_group_symop_operation_xyz
  'x, y, z'

loop_
  _atom_site_type_symbol
  _atom_site_label
  _atom_site_symmetry_multiplicity
  _atom_site_fract_x
  _atom_site_fract_y
  _atom_site_fract_z
  _atom_site_occupancy
  Ni  Ni1       1.0  0.2499999705284302  0.24999988238773738  0.25000018304742794  1.0000
  Ni  Ni2       1.0  0.7500000098036237  0.7500000741904727  0.7499999812556454  1.0000
  Mn  Mn1       1.0  9.195285948498189e-09  7.264779018877869e-08  0.9999999677589495  1.0000
  Te  Te1       1.0  0.25512201738640716  0.25512195337199284  0.7448780002247595  1.0000
  Te  Te2       1.0  0.7448779411935801  0.7448780634507292  0.2551220073910262  1.0000
  Te  Te3       1.0  0.7448780177939748  0.255121950270961  0.25512201836472226  1.0000
  Te  Te4       1.0  0.25512195865549825  0.7448780931302216  0.7448779207311524  1.0000
  Te  Te5       1.0  0.2551219868695044  0.7448779710820531  0.25512200229456583  1.0000
  Te  Te6       1.0  0.744878084095565  0.2551219341111373  0.7448779210320597  1.0000
