data_image0
_chemical_formula_structural       Ni2NbO6
_chemical_formula_sum              "Ni2 Nb1 O6"
_cell_length_a       5.315745925221854
_cell_length_b       5.31574655693612
_cell_length_c       5.315745975240464
_cell_angle_alpha    60.0000042201529
_cell_angle_beta     60.00000264414692
_cell_angle_gamma    60.000003642088856

_space_group_name_H-M_alt    "P 1"
_space_group_IT_number       1

loop_
  _space_group_symop_operation_xyz
  'x, y, z'

loop_
  _atom_site_type_symbol
  _atom_site_label
  _atom_site_symmetry_multiplicity
  _atom_site_fract_x
  _atom_site_fract_y
  _atom_site_fract_z
  _atom_site_occupancy
  Ni  Ni1       1.0  0.2499997392288853  0.2500004024486146  0.24999994008936435  1.0000
  Ni  Ni2       1.0  0.7500001108567108  0.7499992120870582  0.7499995304144993  1.0000
  Nb  Nb1       1.0  8.052675962695271e-08  0.9999999539201199  0.9999999507961022  1.0000
  O   O1        1.0  0.26122404565559043  0.26122431831367354  0.7387758240491737  1.0000
  O   O2        1.0  0.7387758042001122  0.7387759159963726  0.2612245519399217  1.0000
  O   O3        1.0  0.7387759523739673  0.26122416486293937  0.2612241840112537  1.0000
  O   O4        1.0  0.2612243125126632  0.7387758344397181  0.7387759495885959  1.0000
  O   O5        1.0  0.26122410870304813  0.738775679851619  0.26122420064340834  1.0000
  O   O6        1.0  0.7387758921130332  0.2612244599946738  0.7387759100657348  1.0000
