data_image0
_chemical_formula_structural       Ni2PdSe6
_chemical_formula_sum              "Ni2 Pd1 Se6"
_cell_length_a       6.6472805725929796
_cell_length_b       6.647280873349293
_cell_length_c       6.6472805447109184
_cell_angle_alpha    60.00000022556105
_cell_angle_beta     60.00000035971656
_cell_angle_gamma    59.9999991126122

_space_group_name_H-M_alt    "P 1"
_space_group_IT_number       1

loop_
  _space_group_symop_operation_xyz
  'x, y, z'

loop_
  _atom_site_type_symbol
  _atom_site_label
  _atom_site_symmetry_multiplicity
  _atom_site_fract_x
  _atom_site_fract_y
  _atom_site_fract_z
  _atom_site_occupancy
  Ni  Ni1       1.0  0.249999997705425  0.250000147194999  0.24999984371289097  1.0000
  Ni  Ni2       1.0  0.7500000389555339  0.7499999809662478  0.7499999070183782  1.0000
  Pd  Pd1       1.0  0.9999999926662584  0.9999999594655501  5.40215881703879e-08  1.0000
  Se  Se1       1.0  0.264982850860735  0.2649828649703829  0.7350171359860503  1.0000
  Se  Se2       1.0  0.7350171502183009  0.7350171250052391  0.2649828189702127  1.0000
  Se  Se3       1.0  0.7350171384236228  0.26498281690963865  0.26498292251153  1.0000
  Se  Se4       1.0  0.26498292329748147  0.7350170901546054  0.735017197025598  1.0000
  Se  Se5       1.0  0.264982840199946  0.7350171330665607  0.2649829017341735  1.0000
  Se  Se6       1.0  0.7350170541782487  0.2649828956010357  0.7350172286377346  1.0000
