data_image0
_chemical_formula_structural       Ni2PS6
_chemical_formula_sum              "Ni2 P1 S6"
_cell_length_a       6.30677128658718
_cell_length_b       6.3067711606069
_cell_length_c       6.306771133968374
_cell_angle_alpha    60.00000245967385
_cell_angle_beta     60.00000250087348
_cell_angle_gamma    60.00000300061438

_space_group_name_H-M_alt    "P 1"
_space_group_IT_number       1

loop_
  _space_group_symop_operation_xyz
  'x, y, z'

loop_
  _atom_site_type_symbol
  _atom_site_label
  _atom_site_symmetry_multiplicity
  _atom_site_fract_x
  _atom_site_fract_y
  _atom_site_fract_z
  _atom_site_occupancy
  Ni  Ni1       1.0  0.2500003194578889  0.2500005158989636  0.24999940012397734  1.0000
  Ni  Ni2       1.0  0.749999515249026  0.7500001592010419  0.750001025778235  1.0000
  P   P1        1.0  2.087911517099734e-08  2.52453788810065e-08  0.9999999468114028  1.0000
  S   S1        1.0  0.24246109345261385  0.24246111945647608  0.7575387607504935  1.0000
  S   S2        1.0  0.7575389235789255  0.7575388274114087  0.24246016857874242  1.0000
  S   S3        1.0  0.7575387059284155  0.24246128535514577  0.24246096238878173  1.0000
  S   S4        1.0  0.2424614423120316  0.7575378614284496  0.7575397902541046  1.0000
  S   S5        1.0  0.24246167295633664  0.7575388182838568  0.24246059590250876  1.0000
  S   S6        1.0  0.7575383093579878  0.24246138103784015  0.7575393328910249  1.0000
