data_image0
_chemical_formula_structural       Ni2PdS6
_chemical_formula_sum              "Ni2 Pd1 S6"
_cell_length_a       5.835106399045106
_cell_length_b       5.835107468987724
_cell_length_c       5.835106013085752
_cell_angle_alpha    59.999998048710886
_cell_angle_beta     59.999997145003
_cell_angle_gamma    60.00000344015472

_space_group_name_H-M_alt    "P 1"
_space_group_IT_number       1

loop_
  _space_group_symop_operation_xyz
  'x, y, z'

loop_
  _atom_site_type_symbol
  _atom_site_label
  _atom_site_symmetry_multiplicity
  _atom_site_fract_x
  _atom_site_fract_y
  _atom_site_fract_z
  _atom_site_occupancy
  Ni  Ni1       1.0  0.24999955186853906  0.24999924792718642  0.25000046734591486  1.0000
  Ni  Ni2       1.0  0.7499997347725997  0.7500004073164868  0.749999220495092  1.0000
  Pd  Pd1       1.0  5.172876331636896e-08  1.2383653388823054e-07  0.9999998916521609  1.0000
  S   S1        1.0  0.274038184331771  0.27403819425870707  0.7259617666004008  1.0000
  S   S2        1.0  0.7259614073007599  0.7259624516770843  0.27403866840340957  1.0000
  S   S3        1.0  0.7259624165403072  0.2740372475174835  0.27403884097883247  1.0000
  S   S4        1.0  0.2740381829796333  0.7259625000787712  0.7259613164616324  1.0000
  S   S5        1.0  0.27403811445574666  0.7259623233606809  0.27403823253141835  1.0000
  S   S6        1.0  0.7259623392645622  0.2740375291818227  0.725961537459684  1.0000
