data_image0
_chemical_formula_structural       Ni2PN6
_chemical_formula_sum              "Ni2 P1 N6"
_cell_length_a       4.631667660095835
_cell_length_b       4.631667956826367
_cell_length_c       4.631667715530649
_cell_angle_alpha    59.999996988545206
_cell_angle_beta     59.99999949267197
_cell_angle_gamma    60.000002608856846

_space_group_name_H-M_alt    "P 1"
_space_group_IT_number       1

loop_
  _space_group_symop_operation_xyz
  'x, y, z'

loop_
  _atom_site_type_symbol
  _atom_site_label
  _atom_site_symmetry_multiplicity
  _atom_site_fract_x
  _atom_site_fract_y
  _atom_site_fract_z
  _atom_site_occupancy
  Ni  Ni1       1.0  0.24999993986842267  0.2500000166989027  0.2500000108834496  1.0000
  Ni  Ni2       1.0  0.7500000265807772  0.7499999601910361  0.7499999395706407  1.0000
  P   P1        1.0  4.558370979475004e-09  0.9999999788457177  9.465993758873679e-08  1.0000
  N   N1        1.0  0.2603636938113194  0.26036369065404896  0.7396362409020459  1.0000
  N   N2        1.0  0.7396362576536032  0.7396363311887256  0.2603637722935464  1.0000
  N   N3        1.0  0.7396361919014971  0.2603638130229821  0.2603637607142399  1.0000
  N   N4        1.0  0.2603638999566304  0.7396361242026889  0.7396361727761162  1.0000
  N   N5        1.0  0.2603636819653659  0.7396361814572522  0.26036382767305405  1.0000
  N   N6        1.0  0.7396362130147597  0.26036388269407734  0.7396361710201627  1.0000
