data_image0
_chemical_formula_structural       Ni2SiN6
_chemical_formula_sum              "Ni2 Si1 N6"
_cell_length_a       4.69183108352897
_cell_length_b       4.691831177063171
_cell_length_c       4.691831096058452
_cell_angle_alpha    60.000000841448404
_cell_angle_beta     59.99999961825579
_cell_angle_gamma    59.999997827517696

_space_group_name_H-M_alt    "P 1"
_space_group_IT_number       1

loop_
  _space_group_symop_operation_xyz
  'x, y, z'

loop_
  _atom_site_type_symbol
  _atom_site_label
  _atom_site_symmetry_multiplicity
  _atom_site_fract_x
  _atom_site_fract_y
  _atom_site_fract_z
  _atom_site_occupancy
  Ni  Ni1       1.0  0.2499999020640372  0.25000003569031937  0.2500000314992584  1.0000
  Ni  Ni2       1.0  0.7500000311324704  0.7499999739417151  0.7500000028549443  1.0000
  Si  Si1       1.0  7.835815083718993e-08  0.9999999347405698  8.37018750743753e-09  1.0000
  N   N1        1.0  0.265180740575856  0.2651808393609795  0.7348191895117743  1.0000
  N   N2        1.0  0.7348192240176253  0.7348192015955791  0.2651808049562236  1.0000
  N   N3        1.0  0.7348192401590872  0.2651807344054073  0.26518072604585896  1.0000
  N   N4        1.0  0.2651807425577455  0.7348192595643629  0.7348192935106773  1.0000
  N   N5        1.0  0.26518077428188497  0.7348192497733457  0.26518069051314924  1.0000
  N   N6        1.0  0.7348192401305014  0.2651807598586859  0.7348192691312911  1.0000
