data_image0
_chemical_formula_structural       Ni2ScSe6
_chemical_formula_sum              "Ni2 Sc1 Se6"
_cell_length_a       6.482777031038207
_cell_length_b       6.482777205566435
_cell_length_c       6.482776952462751
_cell_angle_alpha    59.999992660331756
_cell_angle_beta     59.999995156332595
_cell_angle_gamma    59.99999302680079

_space_group_name_H-M_alt    "P 1"
_space_group_IT_number       1

loop_
  _space_group_symop_operation_xyz
  'x, y, z'

loop_
  _atom_site_type_symbol
  _atom_site_label
  _atom_site_symmetry_multiplicity
  _atom_site_fract_x
  _atom_site_fract_y
  _atom_site_fract_z
  _atom_site_occupancy
  Ni  Ni1       1.0  0.25000006919943973  0.2499994607839473  0.25000004123526925  1.0000
  Ni  Ni2       1.0  0.7500001020323452  0.7499999334086989  0.7499998621823695  1.0000
  Sc  Sc1       1.0  2.311828745175157e-08  6.423377654621358e-08  4.1429766095488045e-09  1.0000
  Se  Se1       1.0  0.27968374177397803  0.27968376668103817  0.7203163101586786  1.0000
  Se  Se2       1.0  0.7203158613189414  0.7203164342123072  0.27968399535951755  1.0000
  Se  Se3       1.0  0.7203164620643163  0.27968364071162305  0.2796837405589788  1.0000
  Se  Se4       1.0  0.27968383142971887  0.7203163164711944  0.7203161179443316  1.0000
  Se  Se5       1.0  0.27968362879482817  0.7203163262925044  0.27968390493396805  1.0000
  Se  Se6       1.0  0.7203162980563927  0.27968405218835435  0.7203159956564131  1.0000
