data_image0
_chemical_formula_structural       Ni2SiS6
_chemical_formula_sum              "Ni2 Si1 S6"
_cell_length_a       5.730910369273641
_cell_length_b       5.730910369239693
_cell_length_c       5.73091041261985
_cell_angle_alpha    59.999999463950495
_cell_angle_beta     59.99999880259359
_cell_angle_gamma    59.99999613513209

_space_group_name_H-M_alt    "P 1"
_space_group_IT_number       1

loop_
  _space_group_symop_operation_xyz
  'x, y, z'

loop_
  _atom_site_type_symbol
  _atom_site_label
  _atom_site_symmetry_multiplicity
  _atom_site_fract_x
  _atom_site_fract_y
  _atom_site_fract_z
  _atom_site_occupancy
  Ni  Ni1       1.0  0.24999968122659588  0.25000019566887677  0.25000015932746444  1.0000
  Ni  Ni2       1.0  0.7500001043928733  0.7499994479396945  0.750000014621358  1.0000
  Si  Si1       1.0  1.0021237504983011e-07  9.830595701287015e-08  0.9999998361786652  1.0000
  S   S1        1.0  0.2659573161834401  0.2659580907283162  0.7340424297129986  1.0000
  S   S2        1.0  0.7340424985727451  0.7340419973941644  0.26595813558295384  1.0000
  S   S3        1.0  0.734042387749479  0.2659580320173323  0.26595727689381393  1.0000
  S   S4        1.0  0.2659577595952746  0.7340424365064624  0.7340422636015107  1.0000
  S   S5        1.0  0.2659576275422319  0.7340418849786242  0.26595765433551416  1.0000
  S   S6        1.0  0.7340424979571917  0.26595782701668946  0.7340422421931723  1.0000
