data_image0
_chemical_formula_structural       Ni2ScS6
_chemical_formula_sum              "Ni2 Sc1 S6"
_cell_length_a       6.2758988361072054
_cell_length_b       6.275898394804988
_cell_length_c       6.275898609434266
_cell_angle_alpha    59.999998351085885
_cell_angle_beta     59.99999907999492
_cell_angle_gamma    60.000002541394466

_space_group_name_H-M_alt    "P 1"
_space_group_IT_number       1

loop_
  _space_group_symop_operation_xyz
  'x, y, z'

loop_
  _atom_site_type_symbol
  _atom_site_label
  _atom_site_symmetry_multiplicity
  _atom_site_fract_x
  _atom_site_fract_y
  _atom_site_fract_z
  _atom_site_occupancy
  Ni  Ni1       1.0  0.24999997412681746  0.24999992956852168  0.2500000456139088  1.0000
  Ni  Ni2       1.0  0.75000002622766  0.7500000677708246  0.7499998513750483  1.0000
  Sc  Sc1       1.0  0.9999999693148132  9.757526216674244e-08  1.6306066634181317e-11  1.0000
  S   S1        1.0  0.2705179233874885  0.2705180152421179  0.7294820030859966  1.0000
  S   S2        1.0  0.7294820492377795  0.7294820211273327  0.2705180252846826  1.0000
  S   S3        1.0  0.729482024578064  0.27051796105589826  0.2705181466760962  1.0000
  S   S4        1.0  0.2705181358124044  0.729481909435614  0.7294818452565925  1.0000
  S   S5        1.0  0.2705179280286678  0.7294819494426754  0.2705180979463201  1.0000
  S   S6        1.0  0.7294819844572008  0.27051802447860324  0.7294819678171864  1.0000
