data_image0
_chemical_formula_structural       Ni2SO6
_chemical_formula_sum              "Ni2 S1 O6"
_cell_length_a       4.8504628084547985
_cell_length_b       4.850462759364475
_cell_length_c       4.850462775903916
_cell_angle_alpha    59.999996886282354
_cell_angle_beta     60.0000004296708
_cell_angle_gamma    59.999998302808166

_space_group_name_H-M_alt    "P 1"
_space_group_IT_number       1

loop_
  _space_group_symop_operation_xyz
  'x, y, z'

loop_
  _atom_site_type_symbol
  _atom_site_label
  _atom_site_symmetry_multiplicity
  _atom_site_fract_x
  _atom_site_fract_y
  _atom_site_fract_z
  _atom_site_occupancy
  Ni  Ni1       1.0  0.2499996470076891  0.25000061174597904  0.24999993174099253  1.0000
  Ni  Ni2       1.0  0.7500001509087862  0.7499996839325577  0.7499998556627272  1.0000
  S   S1        1.0  1.9622420176778936e-08  0.9999999696999237  1.5647123550036273e-08  1.0000
  O   O1        1.0  0.23528246053448693  0.23528234255440564  0.7647175819632802  1.0000
  O   O2        1.0  0.7647177362253745  0.7647174279228022  0.23528261497812744  1.0000
  O   O3        1.0  0.7647175701796821  0.23528253077569516  0.2352822895201959  1.0000
  O   O4        1.0  0.23528229627511255  0.7647174164519644  0.7647177367994406  1.0000
  O   O5        1.0  0.235282375518697  0.7647175182035981  0.23528241947000691  1.0000
  O   O6        1.0  0.7647176740482334  0.23528252244929615  0.7647174582726478  1.0000
