data_image0
_chemical_formula_structural       Ni2ScO6
_chemical_formula_sum              "Ni2 Sc1 O6"
_cell_length_a       5.198845585386818
_cell_length_b       5.198845616666403
_cell_length_c       5.19884558231434
_cell_angle_alpha    59.999999336221315
_cell_angle_beta     59.99999991050211
_cell_angle_gamma    60.000000455837565

_space_group_name_H-M_alt    "P 1"
_space_group_IT_number       1

loop_
  _space_group_symop_operation_xyz
  'x, y, z'

loop_
  _atom_site_type_symbol
  _atom_site_label
  _atom_site_symmetry_multiplicity
  _atom_site_fract_x
  _atom_site_fract_y
  _atom_site_fract_z
  _atom_site_occupancy
  Ni  Ni1       1.0  0.2500001337705006  0.24999989037436868  0.24999999544936802  1.0000
  Ni  Ni2       1.0  0.7499999975190678  0.7500000362723481  0.7500000941508794  1.0000
  Sc  Sc1       1.0  1.8126528158528743e-08  5.889504013770372e-08  0.9999999326366562  1.0000
  O   O1        1.0  0.26807527259419967  0.26807534587194687  0.7319246844661886  1.0000
  O   O2        1.0  0.7319246382472976  0.731924649093016  0.2680752946190883  1.0000
  O   O3        1.0  0.7319245924300082  0.26807539655373297  0.2680752915205326  1.0000
  O   O4        1.0  0.2680753218874019  0.7319246879316904  0.7319246449135649  1.0000
  O   O5        1.0  0.2680753586724469  0.7319246923802638  0.2680753097097864  1.0000
  O   O6        1.0  0.731924660508841  0.2680752507570642  0.731924744988626  1.0000
