data_image0
_chemical_formula_structural       Ni2SeN6
_chemical_formula_sum              "Ni2 Se1 N6"
_cell_length_a       4.730719574444714
_cell_length_b       4.730716901723141
_cell_length_c       4.730718649991297
_cell_angle_alpha    59.99992713937205
_cell_angle_beta     59.99994620534602
_cell_angle_gamma    59.99993462576426

_space_group_name_H-M_alt    "P 1"
_space_group_IT_number       1

loop_
  _space_group_symop_operation_xyz
  'x, y, z'

loop_
  _atom_site_type_symbol
  _atom_site_label
  _atom_site_symmetry_multiplicity
  _atom_site_fract_x
  _atom_site_fract_y
  _atom_site_fract_z
  _atom_site_occupancy
  Ni  Ni1       1.0  0.2500000851988829  0.2499998811890433  0.24999972603337478  1.0000
  Ni  Ni2       1.0  0.7499997434019731  0.750009908641842  0.7500008334327893  1.0000
  Se  Se1       1.0  0.9999998718807684  0.9999978434281587  0.999999895178777  1.0000
  N   N1        1.0  0.27950947044980284  0.27950849176931  0.7204904612363145  1.0000
  N   N2        1.0  0.7204898891357243  0.7204887702686801  0.2795101726687928  1.0000
  N   N3        1.0  0.7204901340642536  0.27950871083513174  0.2795093551106555  1.0000
  N   N4        1.0  0.2795099572584031  0.7204887065384806  0.7204900489078006  1.0000
  N   N5        1.0  0.27950963717625227  0.720489313119817  0.2795098718942258  1.0000
  N   N6        1.0  0.7204901618774232  0.2795084977697752  0.7204900754907743  1.0000
