data_image0
_chemical_formula_structural       Ni2SO6
_chemical_formula_sum              "Ni2 S1 O6"
_cell_length_a       4.850500153963072
_cell_length_b       4.850499429257304
_cell_length_c       4.850499589758869
_cell_angle_alpha    60.00000188836757
_cell_angle_beta     60.00000065753871
_cell_angle_gamma    59.99999910745572

_space_group_name_H-M_alt    "P 1"
_space_group_IT_number       1

loop_
  _space_group_symop_operation_xyz
  'x, y, z'

loop_
  _atom_site_type_symbol
  _atom_site_label
  _atom_site_symmetry_multiplicity
  _atom_site_fract_x
  _atom_site_fract_y
  _atom_site_fract_z
  _atom_site_occupancy
  Ni  Ni1       1.0  0.2500003864242266  0.2499998719660419  0.24999967355112818  1.0000
  Ni  Ni2       1.0  0.7499996158021368  0.7500003683443188  0.7500001872202093  1.0000
  S   S1        1.0  0.9999999998555926  7.574961977197882e-09  8.654582680800898e-09  1.0000
  O   O1        1.0  0.23528976132026638  0.2352894662037102  0.7647103075766714  1.0000
  O   O2        1.0  0.7647102618322968  0.7647104256584187  0.23528956645571253  1.0000
  O   O3        1.0  0.7647104119353786  0.23528966678530225  0.23528960252067624  1.0000
  O   O4        1.0  0.2352896899455094  0.7647101745770953  0.7647104944863878  1.0000
  O   O5        1.0  0.2352896259880464  0.7647104103658116  0.2352896731434587  1.0000
  O   O6        1.0  0.7647102257131642  0.23528956734589077  0.7647105013952339  1.0000
