data_image0
_chemical_formula_structural       Ni2ScTe6
_chemical_formula_sum              "Ni2 Sc1 Te6"
_cell_length_a       7.302579576478948
_cell_length_b       7.302579567205326
_cell_length_c       7.3025795541105385
_cell_angle_alpha    60.000000963918744
_cell_angle_beta     60.00000008451081
_cell_angle_gamma    59.999999333139634

_space_group_name_H-M_alt    "P 1"
_space_group_IT_number       1

loop_
  _space_group_symop_operation_xyz
  'x, y, z'

loop_
  _atom_site_type_symbol
  _atom_site_label
  _atom_site_symmetry_multiplicity
  _atom_site_fract_x
  _atom_site_fract_y
  _atom_site_fract_z
  _atom_site_occupancy
  Ni  Ni1       1.0  0.25000005986661966  0.24999998991376446  0.24999998677606672  1.0000
  Ni  Ni2       1.0  0.7499999783350642  0.7500001039124997  0.7499999979831325  1.0000
  Sc  Sc1       1.0  7.026168183977502e-08  0.9999999362686777  3.233867704317877e-08  1.0000
  Te  Te1       1.0  0.27095584382562987  0.27095576744214045  0.7290442079455997  1.0000
  Te  Te2       1.0  0.7290441599921036  0.7290441117101979  0.27095587806309135  1.0000
  Te  Te3       1.0  0.729044231640724  0.27095573734607575  0.2709558279197151  1.0000
  Te  Te4       1.0  0.27095574166782144  0.7290443044888476  0.7290442029573114  1.0000
  Te  Te5       1.0  0.2709557809360591  0.7290442343536798  0.2709556970384807  1.0000
  Te  Te6       1.0  0.7290441315351387  0.27095581922122275  0.729044169412911  1.0000
