data_image0
_chemical_formula_structural       Ni2TiO6
_chemical_formula_sum              "Ni2 Ti1 O6"
_cell_length_a       5.195411360927508
_cell_length_b       5.1954122912429685
_cell_length_c       5.195411507345671
_cell_angle_alpha    59.9999995290679
_cell_angle_beta     59.99999732277187
_cell_angle_gamma    59.99999669865781

_space_group_name_H-M_alt    "P 1"
_space_group_IT_number       1

loop_
  _space_group_symop_operation_xyz
  'x, y, z'

loop_
  _atom_site_type_symbol
  _atom_site_label
  _atom_site_symmetry_multiplicity
  _atom_site_fract_x
  _atom_site_fract_y
  _atom_site_fract_z
  _atom_site_occupancy
  Ni  Ni1       1.0  0.25000223325588444  0.25000079046691764  0.24999789445739184  1.0000
  Ni  Ni2       1.0  0.7499998967988941  0.750001077211301  0.7500000724782493  1.0000
  Ti  Ti1       1.0  1.4186448908713386e-08  1.1079584378093666e-07  0.9999999259601968  1.0000
  O   O1        1.0  0.254339615579776  0.2543391246738687  0.7456605838097224  1.0000
  O   O2        1.0  0.7456606548308395  0.7456605341596754  0.2543391729239838  1.0000
  O   O3        1.0  0.7456597326329212  0.25433915196829043  0.2543399625421384  1.0000
  O   O4        1.0  0.2543389539008903  0.7456600377510202  0.7456611017043279  1.0000
  O   O5        1.0  0.25433964906451173  0.7456601851589845  0.2543394662296304  1.0000
  O   O6        1.0  0.7456591886211376  0.25433919786369447  0.745661597094229  1.0000
