data_image0
_chemical_formula_structural       Ni2TiTe6
_chemical_formula_sum              "Ni2 Ti1 Te6"
_cell_length_a       7.15522339489149
_cell_length_b       7.155223414794558
_cell_length_c       7.1552232058125265
_cell_angle_alpha    59.999999858584594
_cell_angle_beta     60.000000505452654
_cell_angle_gamma    59.99999846585471

_space_group_name_H-M_alt    "P 1"
_space_group_IT_number       1

loop_
  _space_group_symop_operation_xyz
  'x, y, z'

loop_
  _atom_site_type_symbol
  _atom_site_label
  _atom_site_symmetry_multiplicity
  _atom_site_fract_x
  _atom_site_fract_y
  _atom_site_fract_z
  _atom_site_occupancy
  Ni  Ni1       1.0  0.2500000007292548  0.24999999128357497  0.24999998542481486  1.0000
  Ni  Ni2       1.0  0.7500000206721726  0.7500000200660683  0.7500000343334233  1.0000
  Ti  Ti1       1.0  5.6988799322995276e-08  0.9999999452262583  0.9999998689174905  1.0000
  Te  Te1       1.0  0.26350781349653685  0.26350786808371557  0.7364921680358337  1.0000
  Te  Te2       1.0  0.7364921408753919  0.7364921603827238  0.26350782217311863  1.0000
  Te  Te3       1.0  0.736492179466125  0.26350783650323695  0.2635078117429264  1.0000
  Te  Te4       1.0  0.2635077558983396  0.7364922296201495  0.7364922613815931  1.0000
  Te  Te5       1.0  0.26350779094309024  0.7364922023779419  0.26350781902831555  1.0000
  Te  Te6       1.0  0.7364922331489434  0.26350775248627956  0.7364922360128133  1.0000
