data_image0
_chemical_formula_structural       Ni2TiS6
_chemical_formula_sum              "Ni2 Ti1 S6"
_cell_length_a       6.174947873391095
_cell_length_b       6.174947801819354
_cell_length_c       6.174947887964798
_cell_angle_alpha    60.00000017860236
_cell_angle_beta     59.99999914584666
_cell_angle_gamma    60.00000255038766

_space_group_name_H-M_alt    "P 1"
_space_group_IT_number       1

loop_
  _space_group_symop_operation_xyz
  'x, y, z'

loop_
  _atom_site_type_symbol
  _atom_site_label
  _atom_site_symmetry_multiplicity
  _atom_site_fract_x
  _atom_site_fract_y
  _atom_site_fract_z
  _atom_site_occupancy
  Ni  Ni1       1.0  0.2500000260400818  0.2500000809888312  0.249999999025426  1.0000
  Ni  Ni2       1.0  0.75000003356499  0.7500000624762492  0.7499999379376595  1.0000
  Ti  Ti1       1.0  0.9999999986971888  0.9999999702488608  0.9999999637046754  1.0000
  S   S1        1.0  0.2636061588800822  0.2636061470044526  0.7363938503552969  1.0000
  S   S2        1.0  0.7363938972897474  0.7363938496883429  0.26360611636703934  1.0000
  S   S3        1.0  0.7363937751635452  0.2636061536266525  0.2636062128155722  1.0000
  S   S4        1.0  0.26360613354395457  0.7363937637297688  0.7363938948367131  1.0000
  S   S5        1.0  0.26360619902655236  0.7363937410619288  0.26360624137658484  1.0000
  S   S6        1.0  0.7363937781894683  0.26360621199586104  0.7363938028346276  1.0000
