data_image0
_chemical_formula_structural       Ni2VTe6
_chemical_formula_sum              "Ni2 V1 Te6"
_cell_length_a       7.0137687930274195
_cell_length_b       7.013769102738154
_cell_length_c       7.013769246648502
_cell_angle_alpha    60.00000020620805
_cell_angle_beta     60.00000095057401
_cell_angle_gamma    59.99999937321623

_space_group_name_H-M_alt    "P 1"
_space_group_IT_number       1

loop_
  _space_group_symop_operation_xyz
  'x, y, z'

loop_
  _atom_site_type_symbol
  _atom_site_label
  _atom_site_symmetry_multiplicity
  _atom_site_fract_x
  _atom_site_fract_y
  _atom_site_fract_z
  _atom_site_occupancy
  Ni  Ni1       1.0  0.2500000233324253  0.24999999917785218  0.24999998294922218  1.0000
  Ni  Ni2       1.0  0.749999971482571  0.7500000411885765  0.7499999049891619  1.0000
  V   V1        1.0  0.9999999781154579  0.999999996507599  0.9999999699154641  1.0000
  Te  Te1       1.0  0.2637743123169544  0.26377427565291633  0.7362257457837973  1.0000
  Te  Te2       1.0  0.7362257013067885  0.7362257280432966  0.26377431647428135  1.0000
  Te  Te3       1.0  0.7362256836392451  0.26377428134164227  0.26377431982506583  1.0000
  Te  Te4       1.0  0.2637742713984102  0.7362257153697687  0.7362257452773513  1.0000
  Te  Te5       1.0  0.2637742575927449  0.7362257126543041  0.2637743192989836  1.0000
  Te  Te6       1.0  0.7362257930492777  0.2637742491330906  0.7362256997798243  1.0000
