data_image0
_chemical_formula_structural       Ni2VSe6
_chemical_formula_sum              "Ni2 V1 Se6"
_cell_length_a       6.583204125421712
_cell_length_b       6.583204470823398
_cell_length_c       6.583203859686142
_cell_angle_alpha    60.000002461005465
_cell_angle_beta     60.00000140025535
_cell_angle_gamma    60.00000000828866

_space_group_name_H-M_alt    "P 1"
_space_group_IT_number       1

loop_
  _space_group_symop_operation_xyz
  'x, y, z'

loop_
  _atom_site_type_symbol
  _atom_site_label
  _atom_site_symmetry_multiplicity
  _atom_site_fract_x
  _atom_site_fract_y
  _atom_site_fract_z
  _atom_site_occupancy
  Ni  Ni1       1.0  0.25000007164083515  0.25000000329973676  0.2500000238037191  1.0000
  Ni  Ni2       1.0  0.7500000551130607  0.7499999894347239  0.7500000309126426  1.0000
  V   V1        1.0  0.9999999894759404  5.816879202747345e-16  0.9999999627295475  1.0000
  Se  Se1       1.0  0.2556761076683134  0.25567610165787913  0.7443240097769741  1.0000
  Se  Se2       1.0  0.7443239222958413  0.7443239078202588  0.2556761077476776  1.0000
  Se  Se3       1.0  0.7443238002810418  0.2556761537906829  0.25567601153744657  1.0000
  Se  Se4       1.0  0.2556760237525396  0.7443240156825787  0.7443238722410194  1.0000
  Se  Se5       1.0  0.2556760864597414  0.7443238108151872  0.2556760799761443  1.0000
  Se  Se6       1.0  0.7443239428874091  0.25567601634293635  0.7443239087595211  1.0000
