data_image0
_chemical_formula_structural       Ni2VO6
_chemical_formula_sum              "Ni2 V1 O6"
_cell_length_a       5.084816061783923
_cell_length_b       5.084816084335304
_cell_length_c       5.084815938067463
_cell_angle_alpha    59.99999927443422
_cell_angle_beta     59.999999840575924
_cell_angle_gamma    59.99999910484942

_space_group_name_H-M_alt    "P 1"
_space_group_IT_number       1

loop_
  _space_group_symop_operation_xyz
  'x, y, z'

loop_
  _atom_site_type_symbol
  _atom_site_label
  _atom_site_symmetry_multiplicity
  _atom_site_fract_x
  _atom_site_fract_y
  _atom_site_fract_z
  _atom_site_occupancy
  Ni  Ni1       1.0  0.24999977853346664  0.2500002852857507  0.24999986495785476  1.0000
  Ni  Ni2       1.0  0.750000122033809  0.7499996274551154  0.7499999751557395  1.0000
  V   V1        1.0  0.9999999985319974  0.9999999975913679  3.34045497832583e-08  1.0000
  O   O1        1.0  0.2547936664087539  0.2547940398028665  0.7452061087550921  1.0000
  O   O2        1.0  0.7452062170658077  0.7452060945321058  0.254793861171267  1.0000
  O   O3        1.0  0.745206264108594  0.2547938043056681  0.25479394313855597  1.0000
  O   O4        1.0  0.2547938955476184  0.7452059783690818  0.7452062749575207  1.0000
  O   O5        1.0  0.25479386217473776  0.7452061472843277  0.2547939129415732  1.0000
  O   O6        1.0  0.7452061630113573  0.2547940183628527  0.745206106171041  1.0000
