data_image0
_chemical_formula_structural       Ni2ZnTe6
_chemical_formula_sum              "Ni2 Zn1 Te6"
_cell_length_a       7.078471217487815
_cell_length_b       7.0784709511741735
_cell_length_c       7.078470961123173
_cell_angle_alpha    59.99999943860519
_cell_angle_beta     60.00000027899965
_cell_angle_gamma    59.99999989882536

_space_group_name_H-M_alt    "P 1"
_space_group_IT_number       1

loop_
  _space_group_symop_operation_xyz
  'x, y, z'

loop_
  _atom_site_type_symbol
  _atom_site_label
  _atom_site_symmetry_multiplicity
  _atom_site_fract_x
  _atom_site_fract_y
  _atom_site_fract_z
  _atom_site_occupancy
  Ni  Ni1       1.0  0.24999994623717647  0.2500000615025275  0.2499999919287768  1.0000
  Ni  Ni2       1.0  0.7500000396593847  0.7499999976417364  0.7500000789386149  1.0000
  Zn  Zn1       1.0  6.334023969459493e-08  0.9999999861580863  0.999999838215592  1.0000
  Te  Te1       1.0  0.2679428699602596  0.26794291394861103  0.7320570979194676  1.0000
  Te  Te2       1.0  0.7320570984558941  0.7320570067765069  0.2679428954969083  1.0000
  Te  Te3       1.0  0.7320570555184324  0.2679430153645087  0.2679429280152509  1.0000
  Te  Te4       1.0  0.2679428265186663  0.7320571008776522  0.7320571478673755  1.0000
  Te  Te5       1.0  0.26794295090334014  0.7320570587188905  0.26794295865050133  1.0000
  Te  Te6       1.0  0.7320571501247061  0.2679428654667069  0.7320570670338359  1.0000
