data_image0
_chemical_formula_structural       Ni2ZnO6
_chemical_formula_sum              "Ni2 Zn1 O6"
_cell_length_a       5.100619740939679
_cell_length_b       5.100619545766418
_cell_length_c       5.100619964054287
_cell_angle_alpha    60.00000193666005
_cell_angle_beta     59.99999949645152
_cell_angle_gamma    60.00000561539938

_space_group_name_H-M_alt    "P 1"
_space_group_IT_number       1

loop_
  _space_group_symop_operation_xyz
  'x, y, z'

loop_
  _atom_site_type_symbol
  _atom_site_label
  _atom_site_symmetry_multiplicity
  _atom_site_fract_x
  _atom_site_fract_y
  _atom_site_fract_z
  _atom_site_occupancy
  Ni  Ni1       1.0  0.24999969533588584  0.2500013064913517  0.24999983470668366  1.0000
  Ni  Ni2       1.0  0.7500000474133294  0.7499996429924507  0.749998656080103  1.0000
  Zn  Zn1       1.0  0.9999999994742602  0.9999999879941547  0.9999999748970563  1.0000
  O   O1        1.0  0.2603517596142028  0.2603524412034152  0.739647731391275  1.0000
  O   O2        1.0  0.7396484058974766  0.7396474301557363  0.2603529417530733  1.0000
  O   O3        1.0  0.7396476789994063  0.26035186548216616  0.2603524753080876  1.0000
  O   O4        1.0  0.2603524892432687  0.739647427195309  0.7396483191651722  1.0000
  O   O5        1.0  0.26035201525533214  0.7396474228509926  0.2603523027332212  1.0000
  O   O6        1.0  0.7396479205331126  0.2603524653162922  0.7396477887170358  1.0000
