data_image0
_chemical_formula_structural       Os2CN6
_chemical_formula_sum              "Os2 C1 N6"
_cell_length_a       4.776890631503676
_cell_length_b       4.776890807843842
_cell_length_c       4.776890616059186
_cell_angle_alpha    60.00000233753099
_cell_angle_beta     60.000002311242966
_cell_angle_gamma    60.000000836681046

_space_group_name_H-M_alt    "P 1"
_space_group_IT_number       1

loop_
  _space_group_symop_operation_xyz
  'x, y, z'

loop_
  _atom_site_type_symbol
  _atom_site_label
  _atom_site_symmetry_multiplicity
  _atom_site_fract_x
  _atom_site_fract_y
  _atom_site_fract_z
  _atom_site_occupancy
  Os  Os1       1.0  0.25000131532992065  0.25000072706184184  0.24999760363665782  1.0000
  Os  Os2       1.0  0.7500003776993664  0.7499989481134673  0.7499973650611123  1.0000
  C   C1        1.0  3.376706954324999e-07  7.999353432752152e-07  0.9999928620702273  1.0000
  N   N1        1.0  0.23555882286629046  0.23555948023955822  0.7644412339008044  1.0000
  N   N2        1.0  0.7644400778797641  0.7644402974916281  0.2355610312308313  1.0000
  N   N3        1.0  0.7644386038348991  0.23556077134991804  0.23556162662402544  1.0000
  N   N4        1.0  0.23555796898829834  0.7644418856358604  0.7644430717168164  1.0000
  N   N5        1.0  0.23556078033030262  0.7644386304057581  0.2355617610784595  1.0000
  N   N6        1.0  0.7644417174231161  0.23555847831025983  0.7644434481318069  1.0000
