data_image0
_chemical_formula_structural       Os2CoN6
_chemical_formula_sum              "Os2 Co1 N6"
_cell_length_a       4.933003052474159
_cell_length_b       4.933002742033715
_cell_length_c       4.933002816016661
_cell_angle_alpha    60.00000148123342
_cell_angle_beta     60.00000200851664
_cell_angle_gamma    60.000000849107856

_space_group_name_H-M_alt    "P 1"
_space_group_IT_number       1

loop_
  _space_group_symop_operation_xyz
  'x, y, z'

loop_
  _atom_site_type_symbol
  _atom_site_label
  _atom_site_symmetry_multiplicity
  _atom_site_fract_x
  _atom_site_fract_y
  _atom_site_fract_z
  _atom_site_occupancy
  Os  Os1       1.0  0.25000204638297924  0.24999928832749688  0.24999920581784657  1.0000
  Os  Os2       1.0  0.7500009547047158  0.749999401809184  0.7499979533247855  1.0000
  Co  Co1       1.0  2.7521224758638657e-08  2.979308788294368e-08  0.9999999693156814  1.0000
  N   N1        1.0  0.2595431944011351  0.25954385708039607  0.7404564899105867  1.0000
  N   N2        1.0  0.740456026859827  0.7404568118138785  0.2595442517030702  1.0000
  N   N3        1.0  0.7404556688303642  0.2595431166540218  0.25954408220601144  1.0000
  N   N4        1.0  0.2595436525566638  0.7404565566545609  0.7404564685811493  1.0000
  N   N5        1.0  0.2595427735015221  0.7404566807119294  0.25954428663502765  1.0000
  N   N6        1.0  0.7404556622031415  0.25954426625116794  0.7404572702464756  1.0000
