data_image0
_chemical_formula_structural       Os2CrN6
_chemical_formula_sum              "Os2 Cr1 N6"
_cell_length_a       5.003903701090912
_cell_length_b       5.003903775726505
_cell_length_c       5.003903801664068
_cell_angle_alpha    59.999997726395975
_cell_angle_beta     59.999998291192426
_cell_angle_gamma    59.99999693765924

_space_group_name_H-M_alt    "P 1"
_space_group_IT_number       1

loop_
  _space_group_symop_operation_xyz
  'x, y, z'

loop_
  _atom_site_type_symbol
  _atom_site_label
  _atom_site_symmetry_multiplicity
  _atom_site_fract_x
  _atom_site_fract_y
  _atom_site_fract_z
  _atom_site_occupancy
  Os  Os1       1.0  0.2500000292765647  0.24999993782846106  0.24999992840106736  1.0000
  Os  Os2       1.0  0.750000036686476  0.7499999946062168  0.7499998561082913  1.0000
  Cr  Cr1       1.0  0.9999992467303307  7.783300829906673e-07  4.211312010789546e-07  1.0000
  N   N1        1.0  0.26150871321580593  0.26150873467172064  0.7384913434481989  1.0000
  N   N2        1.0  0.7384912850789153  0.7384913176943151  0.26150878464098304  1.0000
  N   N3        1.0  0.7384915243934714  0.2615085064788405  0.26150841899640304  1.0000
  N   N4        1.0  0.2615090051253605  0.7384909560206939  0.738491040958525  1.0000
  N   N5        1.0  0.26150879157853707  0.7384911686547962  0.2615088421954926  1.0000
  N   N6        1.0  0.7384913578100951  0.2615086242678769  0.7384913880309709  1.0000
