data_image0
_chemical_formula_structural       Os2FeN6
_chemical_formula_sum              "Os2 Fe1 N6"
_cell_length_a       4.865081040661509
_cell_length_b       4.86508097096636
_cell_length_c       4.865080261908654
_cell_angle_alpha    60.00002180631874
_cell_angle_beta     60.00001681276585
_cell_angle_gamma    60.00001126485919

_space_group_name_H-M_alt    "P 1"
_space_group_IT_number       1

loop_
  _space_group_symop_operation_xyz
  'x, y, z'

loop_
  _atom_site_type_symbol
  _atom_site_label
  _atom_site_symmetry_multiplicity
  _atom_site_fract_x
  _atom_site_fract_y
  _atom_site_fract_z
  _atom_site_occupancy
  Os  Os1       1.0  0.2499998909480591  0.2500000131120892  0.2500001036817605  1.0000
  Os  Os2       1.0  0.749999620677773  0.7499999537440004  0.7500001723226827  1.0000
  Fe  Fe1       1.0  6.35791161082242e-07  2.643289990968549e-07  0.9999998582596913  1.0000
  N   N1        1.0  0.2769065133625666  0.27690652794496473  0.7230934584392799  1.0000
  N   N2        1.0  0.7230941902218143  0.723094284763718  0.27690527451634517  1.0000
  N   N3        1.0  0.7230939419134202  0.2769058088846969  0.27690603481569837  1.0000
  N   N4        1.0  0.2769051043237544  0.7230942511158797  0.7230943019274642  1.0000
  N   N5        1.0  0.2769059136611404  0.7230939177762654  0.2769062904203413  1.0000
  N   N6        1.0  0.7230941949874988  0.27690502700784664  0.7230945393157227  1.0000
