data_image0
_chemical_formula_structural       Os2GeN6
_chemical_formula_sum              "Os2 Ge1 N6"
_cell_length_a       6.086404389484041
_cell_length_b       5.274984612514394
_cell_length_c       5.059675050917613
_cell_angle_alpha    77.15163430248764
_cell_angle_beta     82.6685288989159
_cell_angle_gamma    62.701862566916965

_space_group_name_H-M_alt    "P 1"
_space_group_IT_number       1

loop_
  _space_group_symop_operation_xyz
  'x, y, z'

loop_
  _atom_site_type_symbol
  _atom_site_label
  _atom_site_symmetry_multiplicity
  _atom_site_fract_x
  _atom_site_fract_y
  _atom_site_fract_z
  _atom_site_occupancy
  Os  Os1       1.0  0.5208786756227937  0.5015121689093477  0.8401053280954947  1.0000
  Os  Os2       1.0  0.6178201082071902  0.7615902540282787  0.14354156987268252  1.0000
  Ge  Ge1       1.0  0.9777389028073628  0.011664413895821709  0.17840097851722025  1.0000
  N   N1        1.0  0.17915854800842726  0.34478044467602403  0.5785148628344299  1.0000
  N   N2        1.0  0.58112534629102  0.6732121842020894  0.5130791881292251  1.0000
  N   N3        1.0  0.834797038361204  0.41354170592322603  0.05778123920389454  1.0000
  N   N4        1.0  0.27941073098417235  0.41866085719650703  0.6943267342632838  1.0000
  N   N5        1.0  0.2968457033782404  0.8191675718777479  0.030719046119655084  1.0000
  N   N6        1.0  0.712228895079677  0.05586543981116202  0.9635317303794337  1.0000
