data_image0
_chemical_formula_structural       Os2IrN6
_chemical_formula_sum              "Os2 Ir1 N6"
_cell_length_a       5.102957759296104
_cell_length_b       5.102957706422094
_cell_length_c       5.102957742907139
_cell_angle_alpha    59.99999769013964
_cell_angle_beta     59.99999982421689
_cell_angle_gamma    59.99999759348497

_space_group_name_H-M_alt    "P 1"
_space_group_IT_number       1

loop_
  _space_group_symop_operation_xyz
  'x, y, z'

loop_
  _atom_site_type_symbol
  _atom_site_label
  _atom_site_symmetry_multiplicity
  _atom_site_fract_x
  _atom_site_fract_y
  _atom_site_fract_z
  _atom_site_occupancy
  Os  Os1       1.0  0.2500008337988051  0.24999632871040034  0.24999939165387966  1.0000
  Os  Os2       1.0  0.7500008594719549  0.7499994648310787  0.749998663531903  1.0000
  Ir  Ir1       1.0  0.999999944457285  6.480185535700679e-08  1.1047611443828103e-08  1.0000
  N   N1        1.0  0.26622188846745043  0.26622321061630083  0.7337782995559158  1.0000
  N   N2        1.0  0.7337760223839372  0.7337787031003054  0.2662237915765031  1.0000
  N   N3        1.0  0.7337783907179903  0.26622253107224947  0.2662225332432727  1.0000
  N   N4        1.0  0.26622269112589647  0.7337779954046516  0.7337766848088213  1.0000
  N   N5        1.0  0.26622238183489433  0.7337792395310643  0.26622281793050184  1.0000
  N   N6        1.0  0.7337769893306832  0.2662224341786733  0.7337778047225133  1.0000
