data_image0
_chemical_formula_structural       Os2MnN6
_chemical_formula_sum              "Os2 Mn1 N6"
_cell_length_a       4.9036969081320745
_cell_length_b       4.903697040927984
_cell_length_c       4.903697415227466
_cell_angle_alpha    59.99999712437147
_cell_angle_beta     59.99999665535245
_cell_angle_gamma    60.00000558421767

_space_group_name_H-M_alt    "P 1"
_space_group_IT_number       1

loop_
  _space_group_symop_operation_xyz
  'x, y, z'

loop_
  _atom_site_type_symbol
  _atom_site_label
  _atom_site_symmetry_multiplicity
  _atom_site_fract_x
  _atom_site_fract_y
  _atom_site_fract_z
  _atom_site_occupancy
  Os  Os1       1.0  0.24999991176550176  0.25000001086052437  0.24999998971232848  1.0000
  Os  Os2       1.0  0.7500000187241561  0.7499999876248878  0.7499999498261024  1.0000
  Mn  Mn1       1.0  0.9999999526437229  0.9999999725264517  1.9851783839974566e-07  1.0000
  N   N1        1.0  0.2621004523479669  0.2621004024054698  0.7378994404997681  1.0000
  N   N2        1.0  0.7378997102625748  0.7378996485294544  0.2621002425539228  1.0000
  N   N3        1.0  0.7378988545111522  0.26210111373860323  0.2621010800785746  1.0000
  N   N4        1.0  0.2621008724900124  0.7378991419990655  0.7378990915662216  1.0000
  N   N5        1.0  0.26210107588816794  0.7378989192437896  0.2621009243925975  1.0000
  N   N6        1.0  0.7378991919070126  0.2621008020086163  0.7378990972698409  1.0000
