data_image0
_chemical_formula_structural       Os2NiN6
_chemical_formula_sum              "Os2 Ni1 N6"
_cell_length_a       4.880588805715596
_cell_length_b       4.880588909075789
_cell_length_c       4.880588773923833
_cell_angle_alpha    59.99999997597154
_cell_angle_beta     59.999997863693906
_cell_angle_gamma    59.99999842901852

_space_group_name_H-M_alt    "P 1"
_space_group_IT_number       1

loop_
  _space_group_symop_operation_xyz
  'x, y, z'

loop_
  _atom_site_type_symbol
  _atom_site_label
  _atom_site_symmetry_multiplicity
  _atom_site_fract_x
  _atom_site_fract_y
  _atom_site_fract_z
  _atom_site_occupancy
  Os  Os1       1.0  0.24999935470837942  0.25000025607101783  0.25000009476233664  1.0000
  Os  Os2       1.0  0.7500000593168622  0.749999736841287  0.7500008104520995  1.0000
  Ni  Ni1       1.0  0.9999999405653607  1.5056522551094737e-08  7.751025368576122e-08  1.0000
  N   N1        1.0  0.2729365340718268  0.27293671737985553  0.7270634260990992  1.0000
  N   N2        1.0  0.7270636136503823  0.7270630547034544  0.2729362576338382  1.0000
  N   N3        1.0  0.7270637174258363  0.2729369230864815  0.27293631755723474  1.0000
  N   N4        1.0  0.2729364267288599  0.72706324297581  0.7270634762610008  1.0000
  N   N5        1.0  0.2729368035525175  0.727063429476702  0.27293643599084566  1.0000
  N   N6        1.0  0.7270635678028601  0.2729366086051521  0.7270631135686182  1.0000
