data_image0
_chemical_formula_structural       Os2PN6
_chemical_formula_sum              "Os2 P1 N6"
_cell_length_a       4.982512719116299
_cell_length_b       4.982513206447338
_cell_length_c       4.9825130476895145
_cell_angle_alpha    59.99999842830204
_cell_angle_beta     59.999999555559754
_cell_angle_gamma    59.9999987754859

_space_group_name_H-M_alt    "P 1"
_space_group_IT_number       1

loop_
  _space_group_symop_operation_xyz
  'x, y, z'

loop_
  _atom_site_type_symbol
  _atom_site_label
  _atom_site_symmetry_multiplicity
  _atom_site_fract_x
  _atom_site_fract_y
  _atom_site_fract_z
  _atom_site_occupancy
  Os  Os1       1.0  0.24999939934131504  0.25000023268480104  0.25000005710098416  1.0000
  Os  Os2       1.0  0.7500004962957598  0.750000248224489  0.7499997347877387  1.0000
  P   P1        1.0  0.9999999980801156  1.9664691840027404e-08  1.5211827788946573e-08  1.0000
  N   N1        1.0  0.2478159752708153  0.24781599078570415  0.7521840539043987  1.0000
  N   N2        1.0  0.7521841015858967  0.7521839395121874  0.24781591465214092  1.0000
  N   N3        1.0  0.7521841467004359  0.24781581163095076  0.24781612869666295  1.0000
  N   N4        1.0  0.24781582804954855  0.7521838826906284  0.752184077140057  1.0000
  N   N5        1.0  0.24781573365962203  0.7521840976609946  0.24781620768466847  1.0000
  N   N6        1.0  0.75218427233845  0.24781578101708135  0.752183792005809  1.0000
