data_image0
_chemical_formula_structural       Os2PdN6
_chemical_formula_sum              "Os2 Pd1 N6"
_cell_length_a       4.961704595919786
_cell_length_b       4.961705383992282
_cell_length_c       4.961703889875238
_cell_angle_alpha    59.99999219915227
_cell_angle_beta     59.99998720383354
_cell_angle_gamma    59.99999679532304

_space_group_name_H-M_alt    "P 1"
_space_group_IT_number       1

loop_
  _space_group_symop_operation_xyz
  'x, y, z'

loop_
  _atom_site_type_symbol
  _atom_site_label
  _atom_site_symmetry_multiplicity
  _atom_site_fract_x
  _atom_site_fract_y
  _atom_site_fract_z
  _atom_site_occupancy
  Os  Os1       1.0  0.24999794954952065  0.25000402604672767  0.2499970621588504  1.0000
  Os  Os2       1.0  0.7499997771464784  0.7499955423594883  0.7500098927732778  1.0000
  Pd  Pd1       1.0  0.9999999639864688  1.7278758113713913e-08  6.57996159231566e-08  1.0000
  N   N1        1.0  0.279453127273169  0.27945474598213166  0.7205466378883225  1.0000
  N   N2        1.0  0.7205477301599347  0.7205444645080129  0.2794499558934004  1.0000
  N   N3        1.0  0.7205469741984858  0.2794572057113981  0.27945057525444106  1.0000
  N   N4        1.0  0.2794528163353547  0.720544500325889  0.7205476662949337  1.0000
  N   N5        1.0  0.27945612948456794  0.72054552511096  0.27945158713519286  1.0000
  N   N6        1.0  0.720545539298908  0.2794539741811325  0.7205465465780578  1.0000
