data_image0
_chemical_formula_structural       Os2RuN6
_chemical_formula_sum              "Os2 Ru1 N6"
_cell_length_a       4.999157505391565
_cell_length_b       4.999157159818262
_cell_length_c       4.999157622685453
_cell_angle_alpha    59.99999466811859
_cell_angle_beta     59.999995309706236
_cell_angle_gamma    59.99999337889436

_space_group_name_H-M_alt    "P 1"
_space_group_IT_number       1

loop_
  _space_group_symop_operation_xyz
  'x, y, z'

loop_
  _atom_site_type_symbol
  _atom_site_label
  _atom_site_symmetry_multiplicity
  _atom_site_fract_x
  _atom_site_fract_y
  _atom_site_fract_z
  _atom_site_occupancy
  Os  Os1       1.0  0.24999589580750567  0.24999683579691062  0.25000194196388725  1.0000
  Os  Os2       1.0  0.7499995487827608  0.750008085443638  0.7499973692396057  1.0000
  Ru  Ru1       1.0  1.437914983139682e-07  0.9999999289528132  0.999999929622112  1.0000
  N   N1        1.0  0.2652699059781906  0.26526614618977656  0.7347328531332454  1.0000
  N   N2        1.0  0.7347324791439395  0.7347314449411505  0.2652675670130592  1.0000
  N   N3        1.0  0.7347337332657936  0.2652652829355921  0.2652707848874141  1.0000
  N   N4        1.0  0.26526687575519003  0.7347330284668169  0.7347309953139581  1.0000
  N   N5        1.0  0.26526772492522466  0.734734403094679  0.26526834466490157  1.0000
  N   N6        1.0  0.7347336677988031  0.265264841720739  0.734730266589161  1.0000
