data_image0
_chemical_formula_structural       Os2RhN6
_chemical_formula_sum              "Os2 Rh1 N6"
_cell_length_a       5.502287485912393
_cell_length_b       5.635988097508697
_cell_length_c       5.501772552905575
_cell_angle_alpha    59.21317861553722
_cell_angle_beta     63.979754342795864
_cell_angle_gamma    67.36704953186357

_space_group_name_H-M_alt    "P 1"
_space_group_IT_number       1

loop_
  _space_group_symop_operation_xyz
  'x, y, z'

loop_
  _atom_site_type_symbol
  _atom_site_label
  _atom_site_symmetry_multiplicity
  _atom_site_fract_x
  _atom_site_fract_y
  _atom_site_fract_z
  _atom_site_occupancy
  Os  Os1       1.0  0.5340821683464035  0.02414235575129445  0.24270546040034757  1.0000
  Os  Os2       1.0  0.9431190942425179  0.8592237992016029  0.40158537040486997  1.0000
  Rh  Rh1       1.0  0.020869610128830266  0.044130207589273676  0.8463455337463865  1.0000
  N   N1        1.0  0.2511004604327272  0.42889217125973866  0.7981281698318443  1.0000
  N   N2        1.0  0.865381728520008  0.7263558063947986  0.19246106958147885  1.0000
  N   N3        1.0  0.6677953427018614  0.17733895991363144  0.37623461122571095  1.0000
  N   N4        1.0  0.21907413378154458  0.8947739994710453  0.5411886081753291  1.0000
  N   N5        1.0  0.07605525382173334  0.4526633434464752  0.707115405823865  1.0000
  N   N6        1.0  0.42249297525900475  0.3924607081825843  0.8944327657544316  1.0000
