data_image0
_chemical_formula_structural       Os2SeN6
_chemical_formula_sum              "Os2 Se1 N6"
_cell_length_a       4.776186787687311
_cell_length_b       4.776187123874883
_cell_length_c       4.776186829180785
_cell_angle_alpha    59.99999913224253
_cell_angle_beta     60.00000032848257
_cell_angle_gamma    59.99999891371854

_space_group_name_H-M_alt    "P 1"
_space_group_IT_number       1

loop_
  _space_group_symop_operation_xyz
  'x, y, z'

loop_
  _atom_site_type_symbol
  _atom_site_label
  _atom_site_symmetry_multiplicity
  _atom_site_fract_x
  _atom_site_fract_y
  _atom_site_fract_z
  _atom_site_occupancy
  Os  Os1       1.0  0.25000002869519417  0.2499999755533519  0.24999999467613535  1.0000
  Os  Os2       1.0  0.7499999931642833  0.7500000241024383  0.7500000508606361  1.0000
  Se  Se1       1.0  7.448786286354894e-07  0.9999995640735242  1.19801314576609e-07  1.0000
  N   N1        1.0  0.27758549015053496  0.27758520103178264  0.7224147649247549  1.0000
  N   N2        1.0  0.7224143978477054  0.7224141267844186  0.27758578186730437  1.0000
  N   N3        1.0  0.7224144577503575  0.27758569691577484  0.2775857604368243  1.0000
  N   N4        1.0  0.27758551846333646  0.7224145412174082  0.7224147288640113  1.0000
  N   N5        1.0  0.2775851467440765  0.7224149518189049  0.2775850249935542  1.0000
  N   N6        1.0  0.7224140714719751  0.2775860299535886  0.7224138970086548  1.0000
