data_image0
_chemical_formula_structural       Os2SiN6
_chemical_formula_sum              "Os2 Si1 N6"
_cell_length_a       4.837067423292892
_cell_length_b       4.837067323479188
_cell_length_c       4.837067966541793
_cell_angle_alpha    59.999997431535554
_cell_angle_beta     59.99999993898103
_cell_angle_gamma    59.99999728155509

_space_group_name_H-M_alt    "P 1"
_space_group_IT_number       1

loop_
  _space_group_symop_operation_xyz
  'x, y, z'

loop_
  _atom_site_type_symbol
  _atom_site_label
  _atom_site_symmetry_multiplicity
  _atom_site_fract_x
  _atom_site_fract_y
  _atom_site_fract_z
  _atom_site_occupancy
  Os  Os1       1.0  0.2500005154139807  0.24999908189452855  0.2500003619477174  1.0000
  Os  Os2       1.0  0.7499994412046357  0.7500010614059495  0.7499992009513057  1.0000
  Si  Si1       1.0  4.1860674907715435e-08  0.9999999746800103  0.9999999793254496  1.0000
  N   N1        1.0  0.26707722894584535  0.26707663282302796  0.7329229671932648  1.0000
  N   N2        1.0  0.7329226832346967  0.7329233788135121  0.26707732877560797  1.0000
  N   N3        1.0  0.7329230479278926  0.2670767546230651  0.2670772271482232  1.0000
  N   N4        1.0  0.26707709800716345  0.732923100029539  0.732922844372236  1.0000
  N   N5        1.0  0.2670768965481953  0.7329231373134864  0.2670771774261605  1.0000
  N   N6        1.0  0.732923052189095  0.2670767932990872  0.7329229588479287  1.0000
