data_image0
_chemical_formula_structural       Os2SN6
_chemical_formula_sum              "Os2 S1 N6"
_cell_length_a       5.037370850300202
_cell_length_b       5.037370785727799
_cell_length_c       5.037370764286221
_cell_angle_alpha    59.99999951135898
_cell_angle_beta     60.00000003568423
_cell_angle_gamma    60.00000000587088

_space_group_name_H-M_alt    "P 1"
_space_group_IT_number       1

loop_
  _space_group_symop_operation_xyz
  'x, y, z'

loop_
  _atom_site_type_symbol
  _atom_site_label
  _atom_site_symmetry_multiplicity
  _atom_site_fract_x
  _atom_site_fract_y
  _atom_site_fract_z
  _atom_site_occupancy
  Os  Os1       1.0  0.2499957300154609  0.250001493928032  0.2500021437458964  1.0000
  Os  Os2       1.0  0.750002493604998  0.7500000932557308  0.7499982183168471  1.0000
  S   S1        1.0  1.1470884219835202e-07  0.9999998346703967  7.44391755300958e-09  1.0000
  N   N1        1.0  0.24343179840520096  0.243432530404712  0.756567564615683  1.0000
  N   N2        1.0  0.7565689314442807  0.7565667713404219  0.24343243295105277  1.0000
  N   N3        1.0  0.7565688244310108  0.2434318244317713  0.24343239556539312  1.0000
  N   N4        1.0  0.24343150833938945  0.756567905225276  0.7565677334869579  1.0000
  N   N5        1.0  0.24343139209169695  0.7565676501410534  0.24343296424231411  1.0000
  N   N6        1.0  0.7565691566644994  0.2434318923045344  0.7565666124438063  1.0000
