data_image0
_chemical_formula_structural       Os2TiN6
_chemical_formula_sum              "Os2 Ti1 N6"
_cell_length_a       4.933787746591884
_cell_length_b       4.933787967185137
_cell_length_c       4.933787812885031
_cell_angle_alpha    60.00000398019269
_cell_angle_beta     60.000004818318246
_cell_angle_gamma    60.00000484562181

_space_group_name_H-M_alt    "P 1"
_space_group_IT_number       1

loop_
  _space_group_symop_operation_xyz
  'x, y, z'

loop_
  _atom_site_type_symbol
  _atom_site_label
  _atom_site_symmetry_multiplicity
  _atom_site_fract_x
  _atom_site_fract_y
  _atom_site_fract_z
  _atom_site_occupancy
  Os  Os1       1.0  0.2500019229042602  0.24999955086185754  0.25000055220259576  1.0000
  Os  Os2       1.0  0.7500007509338995  0.7499971780623585  0.7499996897253354  1.0000
  Ti  Ti1       1.0  0.9999999813944627  3.475306838850888e-08  0.9999999696309911  1.0000
  N   N1        1.0  0.26908349500565326  0.2690849628421796  0.7309150534678577  1.0000
  N   N2        1.0  0.7309152088334508  0.7309163038398407  0.2690849978152964  1.0000
  N   N3        1.0  0.7309148380703232  0.2690849095030685  0.26908366950550033  1.0000
  N   N4        1.0  0.26908434437329604  0.7309160096482594  0.7309155906319241  1.0000
  N   N5        1.0  0.2690841069369308  0.7309154970089653  0.2690843473643636  1.0000
  N   N6        1.0  0.7309153638456045  0.26908556115466215  0.7309161219393623  1.0000
