data_image0
_chemical_formula_structural       Os2VN6
_chemical_formula_sum              "Os2 V1 N6"
_cell_length_a       4.99461443481606
_cell_length_b       4.994613789948229
_cell_length_c       4.994614085020048
_cell_angle_alpha    59.99999800840774
_cell_angle_beta     60.00000198754859
_cell_angle_gamma    60.000003116689825

_space_group_name_H-M_alt    "P 1"
_space_group_IT_number       1

loop_
  _space_group_symop_operation_xyz
  'x, y, z'

loop_
  _atom_site_type_symbol
  _atom_site_label
  _atom_site_symmetry_multiplicity
  _atom_site_fract_x
  _atom_site_fract_y
  _atom_site_fract_z
  _atom_site_occupancy
  Os  Os1       1.0  0.24999748374441186  0.25000087262758725  0.24999780537105604  1.0000
  Os  Os2       1.0  0.7499840393563578  0.7500082602363916  0.7500052301090052  1.0000
  V   V1        1.0  0.9999995446454341  3.187770420573798e-07  4.0258569324976494e-08  1.0000
  N   N1        1.0  0.26690404607680007  0.2668911424977382  0.7331031747987177  1.0000
  N   N2        1.0  0.7331031261619504  0.7331020907484321  0.2668964074524474  1.0000
  N   N3        1.0  0.7331046159171701  0.266896681063065  0.2668980058029329  1.0000
  N   N4        1.0  0.26690232061448294  0.7331013166742628  0.7331033604170267  1.0000
  N   N5        1.0  0.26690272730113185  0.7331033956989198  0.2668926066035995  1.0000
  N   N6        1.0  0.7331020990582415  0.26689594580622966  0.733103366596546  1.0000
