data_image0
_chemical_formula_structural       P2CN6
_chemical_formula_sum              "P2 C1 N6"
_cell_length_a       3.6810840595997543
_cell_length_b       2.8212722798114833
_cell_length_c       1.833674298628117
_cell_angle_alpha    68.88412977645655
_cell_angle_beta     56.63257859261072
_cell_angle_gamma    59.476024994880525

_space_group_name_H-M_alt    "P 1"
_space_group_IT_number       1

loop_
  _space_group_symop_operation_xyz
  'x, y, z'

loop_
  _atom_site_type_symbol
  _atom_site_label
  _atom_site_symmetry_multiplicity
  _atom_site_fract_x
  _atom_site_fract_y
  _atom_site_fract_z
  _atom_site_occupancy
  P   P1        1.0  0.1864173410209995  0.16137745252585045  0.0554066475076207  1.0000
  P   P2        1.0  0.290119122713123  0.29119154145055376  0.4939979837567685  1.0000
  C   C1        1.0  0.19568620864658307  0.23519330461515192  0.14669591769202278  1.0000
  N   N1        1.0  0.07422801493683595  0.17279438632267774  0.970843561980976  1.0000
  N   N2        1.0  0.16332064919447187  0.7976372432615918  0.12038357898207086  1.0000
  N   N3        1.0  0.08280772462391495  0.17441253176712668  0.6970574952559476  1.0000
  N   N4        1.0  0.19113380546752623  0.21400331930628003  0.9151939393701352  1.0000
  N   N5        1.0  0.36188989887041534  0.018810802331252183  0.5689087702206653  1.0000
  N   N6        1.0  0.15475795567370332  0.325561826817505  0.1927891371577806  1.0000
