data_image0
_chemical_formula_structural       Pb2AuSe6
_chemical_formula_sum              "Pb2 Au1 Se6"
_cell_length_a       6.899024088739174
_cell_length_b       6.89902399938073
_cell_length_c       6.899024146003903
_cell_angle_alpha    60.00000003520624
_cell_angle_beta     60.000000516269935
_cell_angle_gamma    60.0000011053933

_space_group_name_H-M_alt    "P 1"
_space_group_IT_number       1

loop_
  _space_group_symop_operation_xyz
  'x, y, z'

loop_
  _atom_site_type_symbol
  _atom_site_label
  _atom_site_symmetry_multiplicity
  _atom_site_fract_x
  _atom_site_fract_y
  _atom_site_fract_z
  _atom_site_occupancy
  Pb  Pb1       1.0  0.25000003892617506  0.24999994566356917  0.24999998841681276  1.0000
  Pb  Pb2       1.0  0.74999999836525  0.7499999612577625  0.7499999478287446  1.0000
  Au  Au1       1.0  0.9999999920201132  8.87621809706002e-09  0.9999999734611879  1.0000
  Se  Se1       1.0  0.2668168482288509  0.26681687624777206  0.7331831718633567  1.0000
  Se  Se2       1.0  0.7331831620103906  0.7331831620415916  0.2668168615207541  1.0000
  Se  Se3       1.0  0.7331831960219272  0.26681680508632805  0.26681680404665553  1.0000
  Se  Se4       1.0  0.26681680312789013  0.7331831710695067  0.7331832166665994  1.0000
  Se  Se5       1.0  0.26681684711184445  0.7331831685602337  0.26681684586167054  1.0000
  Se  Se6       1.0  0.7331831186129282  0.26681689280729703  0.7331831880942286  1.0000
