data_image0
_chemical_formula_structural       Pb2AuS6
_chemical_formula_sum              "Pb2 Au1 S6"
_cell_length_a       6.501183841372662
_cell_length_b       6.501183869380938
_cell_length_c       6.501183916345507
_cell_angle_alpha    60.000001856172226
_cell_angle_beta     60.00000210869905
_cell_angle_gamma    60.00000244190995

_space_group_name_H-M_alt    "P 1"
_space_group_IT_number       1

loop_
  _space_group_symop_operation_xyz
  'x, y, z'

loop_
  _atom_site_type_symbol
  _atom_site_label
  _atom_site_symmetry_multiplicity
  _atom_site_fract_x
  _atom_site_fract_y
  _atom_site_fract_z
  _atom_site_occupancy
  Pb  Pb1       1.0  0.24999993925165795  0.2500000308126231  0.25000007467229723  1.0000
  Pb  Pb2       1.0  0.7499999082487934  0.750000066063551  0.7499999473863042  1.0000
  Au  Au1       1.0  0.9999998875830337  0.9999999962322387  2.4252371447701865e-08  1.0000
  S   S1        1.0  0.2630477263085854  0.26304760444823544  0.7369523227647155  1.0000
  S   S2        1.0  0.7369523399648504  0.7369523209948878  0.2630477294602685  1.0000
  S   S3        1.0  0.7369522990664664  0.2630477387834319  0.2630477414639358  1.0000
  S   S4        1.0  0.26304781166272656  0.7369522770859187  0.7369522679309599  1.0000
  S   S5        1.0  0.2630477751267901  0.736952191166583  0.263047731220088  1.0000
  S   S6        1.0  0.7369523042968308  0.26304775876697506  0.7369521791300767  1.0000
