data_image0
_chemical_formula_structural       Pb2AgO6
_chemical_formula_sum              "Pb2 Ag1 O6"
_cell_length_a       5.660089884427081
_cell_length_b       5.6600900426374245
_cell_length_c       5.660090105633945
_cell_angle_alpha    59.99999975262499
_cell_angle_beta     59.999999126932444
_cell_angle_gamma    59.999999753054404

_space_group_name_H-M_alt    "P 1"
_space_group_IT_number       1

loop_
  _space_group_symop_operation_xyz
  'x, y, z'

loop_
  _atom_site_type_symbol
  _atom_site_label
  _atom_site_symmetry_multiplicity
  _atom_site_fract_x
  _atom_site_fract_y
  _atom_site_fract_z
  _atom_site_occupancy
  Pb  Pb1       1.0  0.24999990574703776  0.24999990948721998  0.2500001158743156  1.0000
  Pb  Pb2       1.0  0.7499999791871715  0.7500001850288966  0.749999942430636  1.0000
  Ag  Ag1       1.0  0.9999999831843985  2.596590935926151e-08  4.258627676670073e-09  1.0000
  O   O1        1.0  0.2436302897749007  0.24363026630147938  0.7563697095944163  1.0000
  O   O2        1.0  0.7563696942391132  0.7563696962212646  0.24363028389652858  1.0000
  O   O3        1.0  0.7563697421807191  0.24363019239287267  0.24363034358938518  1.0000
  O   O4        1.0  0.24363029390645646  0.7563697852766513  0.7563696127580763  1.0000
  O   O5        1.0  0.24363026388216058  0.756369746438898  0.2436303522596342  1.0000
  O   O6        1.0  0.7563698229806091  0.24363020742854233  0.7563696188691735  1.0000
