data_image0
_chemical_formula_structural       Pb2AuO6
_chemical_formula_sum              "Pb2 Au1 O6"
_cell_length_a       5.619243476298541
_cell_length_b       5.619243410034303
_cell_length_c       5.61924303209853
_cell_angle_alpha    60.00000203160487
_cell_angle_beta     60.00000183964724
_cell_angle_gamma    59.99999932184448

_space_group_name_H-M_alt    "P 1"
_space_group_IT_number       1

loop_
  _space_group_symop_operation_xyz
  'x, y, z'

loop_
  _atom_site_type_symbol
  _atom_site_label
  _atom_site_symmetry_multiplicity
  _atom_site_fract_x
  _atom_site_fract_y
  _atom_site_fract_z
  _atom_site_occupancy
  Pb  Pb1       1.0  0.250000021235444  0.24999999913952656  0.2500000136000189  1.0000
  Pb  Pb2       1.0  0.7499999952712484  0.7500000301119022  0.7500001120589115  1.0000
  Au  Au1       1.0  8.083946519396221e-10  6.538664187612168e-08  0.9999998957185166  1.0000
  O   O1        1.0  0.24934903806445458  0.24934890113735786  0.7506510139636557  1.0000
  O   O2        1.0  0.7506509875557996  0.7506510452909907  0.2493489118633501  1.0000
  O   O3        1.0  0.7506511377592702  0.24934896043733287  0.24934876517890145  1.0000
  O   O4        1.0  0.24934875069874024  0.7506511385598499  0.7506511938755897  1.0000
  O   O5        1.0  0.24934897718820723  0.7506510749823451  0.2493488509034325  1.0000
  O   O6        1.0  0.7506511173871208  0.2493487755455942  0.7506511987313866  1.0000
