data_image0
_chemical_formula_structural       Pb2AgS6
_chemical_formula_sum              "Pb2 Ag1 S6"
_cell_length_a       6.54325469687133
_cell_length_b       6.5432544484374935
_cell_length_c       6.5432547485124015
_cell_angle_alpha    59.99999921030133
_cell_angle_beta     59.999998454189516
_cell_angle_gamma    59.99999923006583

_space_group_name_H-M_alt    "P 1"
_space_group_IT_number       1

loop_
  _space_group_symop_operation_xyz
  'x, y, z'

loop_
  _atom_site_type_symbol
  _atom_site_label
  _atom_site_symmetry_multiplicity
  _atom_site_fract_x
  _atom_site_fract_y
  _atom_site_fract_z
  _atom_site_occupancy
  Pb  Pb1       1.0  0.25000002870906235  0.2499998660788219  0.2500000631287904  1.0000
  Pb  Pb2       1.0  0.7500001018044714  0.750000133561875  0.7499999001304043  1.0000
  Ag  Ag1       1.0  5.307013307254898e-08  0.9999997772597095  2.3002276056438885e-07  1.0000
  S   S1        1.0  0.26601294228560296  0.2660128969781583  0.7339870489090586  1.0000
  S   S2        1.0  0.7339871336622737  0.733987218712102  0.2660128347028593  1.0000
  S   S3        1.0  0.7339872065594492  0.2660126963422457  0.26601293748280785  1.0000
  S   S4        1.0  0.26601273552061716  0.7339873444773273  0.7339870611963993  1.0000
  S   S5        1.0  0.26601267563642067  0.7339873252444638  0.26601280544017725  1.0000
  S   S6        1.0  0.7339871456047404  0.2660127286774774  0.7339871385986101  1.0000
