data_image0
_chemical_formula_structural       Pb2BeSe6
_chemical_formula_sum              "Pb2 Be1 Se6"
_cell_length_a       6.637080074351107
_cell_length_b       6.637079984074103
_cell_length_c       6.637080120728365
_cell_angle_alpha    60.00000041657068
_cell_angle_beta     59.99999849394347
_cell_angle_gamma    59.999995700730786

_space_group_name_H-M_alt    "P 1"
_space_group_IT_number       1

loop_
  _space_group_symop_operation_xyz
  'x, y, z'

loop_
  _atom_site_type_symbol
  _atom_site_label
  _atom_site_symmetry_multiplicity
  _atom_site_fract_x
  _atom_site_fract_y
  _atom_site_fract_z
  _atom_site_occupancy
  Pb  Pb1       1.0  0.25000001156638324  0.2499999705197544  0.25000002062067406  1.0000
  Pb  Pb2       1.0  0.7499999908520287  0.7499999909074578  0.7500000576716659  1.0000
  Be  Be1       1.0  4.600591898997539e-08  8.119349661470771e-08  0.9999999032531862  1.0000
  Se  Se1       1.0  0.2486157648748645  0.24861573338780663  0.7513842549459574  1.0000
  Se  Se2       1.0  0.7513842412853716  0.7513843055422913  0.24861579327083486  1.0000
  Se  Se3       1.0  0.7513842428748762  0.24861567470048204  0.24861572540762347  1.0000
  Se  Se4       1.0  0.2486156829061453  0.7513842608924366  0.7513842896123738  1.0000
  Se  Se5       1.0  0.2486157159121627  0.7513842282251655  0.248615707581463  1.0000
  Se  Se6       1.0  0.7513843037984356  0.24861573873796455  0.751384247802013  1.0000
