data_image0
_chemical_formula_structural       Pb2BeS6
_chemical_formula_sum              "Pb2 Be1 S6"
_cell_length_a       6.288380592937213
_cell_length_b       6.288380534096668
_cell_length_c       6.288380816712692
_cell_angle_alpha    59.9999993909912
_cell_angle_beta     60.000000756830396
_cell_angle_gamma    59.99999767085418

_space_group_name_H-M_alt    "P 1"
_space_group_IT_number       1

loop_
  _space_group_symop_operation_xyz
  'x, y, z'

loop_
  _atom_site_type_symbol
  _atom_site_label
  _atom_site_symmetry_multiplicity
  _atom_site_fract_x
  _atom_site_fract_y
  _atom_site_fract_z
  _atom_site_occupancy
  Pb  Pb1       1.0  0.25000013548939437  0.24999968596183408  0.24999999784376048  1.0000
  Pb  Pb2       1.0  0.7500000683632522  0.7499998408334312  0.7499999603476856  1.0000
  Be  Be1       1.0  5.182217340842282e-08  4.28478947235055e-08  0.9999998508899602  1.0000
  S   S1        1.0  0.2570056364802127  0.2570057174115356  0.7429943131357035  1.0000
  S   S2        1.0  0.7429943060397919  0.7429944501545469  0.2570056795597174  1.0000
  S   S3        1.0  0.7429942593289548  0.2570058245785664  0.2570055557922226  1.0000
  S   S4        1.0  0.25700562669390314  0.7429943527256759  0.7429945604674633  1.0000
  S   S5        1.0  0.25700556150690723  0.7429943105416615  0.2570056705638929  1.0000
  S   S6        1.0  0.7429943554552838  0.25700578496205084  0.7429944091072463  1.0000
