data_image0
_chemical_formula_structural       Pb2BaSe6
_chemical_formula_sum              "Pb2 Ba1 Se6"
_cell_length_a       7.502828178913798
_cell_length_b       7.502827872338887
_cell_length_c       7.502828124951309
_cell_angle_alpha    60.000000069044994
_cell_angle_beta     59.999999614642185
_cell_angle_gamma    59.999999660188834

_space_group_name_H-M_alt    "P 1"
_space_group_IT_number       1

loop_
  _space_group_symop_operation_xyz
  'x, y, z'

loop_
  _atom_site_type_symbol
  _atom_site_label
  _atom_site_symmetry_multiplicity
  _atom_site_fract_x
  _atom_site_fract_y
  _atom_site_fract_z
  _atom_site_occupancy
  Pb  Pb1       1.0  0.24999988918120414  0.2500001799100032  0.24999997151291645  1.0000
  Pb  Pb2       1.0  0.7500001049297375  0.7500000124720202  0.7499998861689838  1.0000
  Ba  Ba1       1.0  8.383794203713873e-08  0.9999999885733546  0.9999998331769382  1.0000
  Se  Se1       1.0  0.29222160735078245  0.2922216872236123  0.7077783879421746  1.0000
  Se  Se2       1.0  0.7077784845000841  0.7077782488751185  0.2922217156152498  1.0000
  Se  Se3       1.0  0.7077783991418682  0.2922216171112896  0.29222165490444385  1.0000
  Se  Se4       1.0  0.29222162654714107  0.7077782912370195  0.7077784342989061  1.0000
  Se  Se5       1.0  0.29222145895434715  0.7077783124366941  0.292221755018182  1.0000
  Se  Se6       1.0  0.707778347524251  0.29222165794196525  0.7077783647932931  1.0000
