data_image0
_chemical_formula_structural       Pb2BeTe6
_chemical_formula_sum              "Pb2 Be1 Te6"
_cell_length_a       7.184888889628584
_cell_length_b       7.184889513892079
_cell_length_c       7.184888348553411
_cell_angle_alpha    60.00000519755242
_cell_angle_beta     60.0000003069446
_cell_angle_gamma    60.00000376860792

_space_group_name_H-M_alt    "P 1"
_space_group_IT_number       1

loop_
  _space_group_symop_operation_xyz
  'x, y, z'

loop_
  _atom_site_type_symbol
  _atom_site_label
  _atom_site_symmetry_multiplicity
  _atom_site_fract_x
  _atom_site_fract_y
  _atom_site_fract_z
  _atom_site_occupancy
  Pb  Pb1       1.0  0.2499998133239758  0.2500001419461469  0.2500000827410641  1.0000
  Pb  Pb2       1.0  0.7500004662420195  0.7499994780742412  0.7499999556607965  1.0000
  Be  Be1       1.0  5.402668977809226e-08  0.9999999198832422  0.9999999949515022  1.0000
  Te  Te1       1.0  0.23886948357541002  0.23887038829161228  0.7611300252267023  1.0000
  Te  Te2       1.0  0.7611302590382886  0.7611298590259422  0.23886999444712287  1.0000
  Te  Te3       1.0  0.7611300982499969  0.2388702313327811  0.23886972991222383  1.0000
  Te  Te4       1.0  0.23886985900527494  0.761129940981851  0.7611302185504621  1.0000
  Te  Te5       1.0  0.2388698080533845  0.7611298149324432  0.23887008421055891  1.0000
  Te  Te6       1.0  0.7611301657299776  0.23887022101324  0.761129914429886  1.0000
