data_image0
_chemical_formula_structural       Pb2BaTe6
_chemical_formula_sum              "Pb2 Ba1 Te6"
_cell_length_a       8.071820002024781
_cell_length_b       8.071819807595183
_cell_length_c       8.07181996968852
_cell_angle_alpha    59.9999985172304
_cell_angle_beta     59.999998848072856
_cell_angle_gamma    59.99999638464603

_space_group_name_H-M_alt    "P 1"
_space_group_IT_number       1

loop_
  _space_group_symop_operation_xyz
  'x, y, z'

loop_
  _atom_site_type_symbol
  _atom_site_label
  _atom_site_symmetry_multiplicity
  _atom_site_fract_x
  _atom_site_fract_y
  _atom_site_fract_z
  _atom_site_occupancy
  Pb  Pb1       1.0  0.25000001481498924  0.2500000225407512  0.2500000324982721  1.0000
  Pb  Pb2       1.0  0.7499999756356082  0.7500000251375901  0.7499998743942835  1.0000
  Ba  Ba1       1.0  5.692353792463518e-09  5.1588523654413085e-08  0.9999999502986353  1.0000
  Te  Te1       1.0  0.2948084142911159  0.29480842252339035  0.705191557123931  1.0000
  Te  Te2       1.0  0.7051915177977321  0.7051915599106424  0.29480851192077057  1.0000
  Te  Te3       1.0  0.7051915663318812  0.29480835514991277  0.2948084039298925  1.0000
  Te  Te4       1.0  0.2948084610399173  0.7051915817648324  0.7051915621836645  1.0000
  Te  Te5       1.0  0.29480840382914986  0.7051915547518638  0.2948084549637442  1.0000
  Te  Te6       1.0  0.7051916451444172  0.29480842464754675  0.7051916513106343  1.0000
