data_image0
_chemical_formula_structural       Pb2CdS6
_chemical_formula_sum              "Pb2 Cd1 S6"
_cell_length_a       6.598488528600703
_cell_length_b       6.598488515618341
_cell_length_c       6.598488460759811
_cell_angle_alpha    60.00000354330218
_cell_angle_beta     60.00000482215331
_cell_angle_gamma    60.00000362099944

_space_group_name_H-M_alt    "P 1"
_space_group_IT_number       1

loop_
  _space_group_symop_operation_xyz
  'x, y, z'

loop_
  _atom_site_type_symbol
  _atom_site_label
  _atom_site_symmetry_multiplicity
  _atom_site_fract_x
  _atom_site_fract_y
  _atom_site_fract_z
  _atom_site_occupancy
  Pb  Pb1       1.0  0.2499999239907092  0.24999998542852375  0.2499999795546649  1.0000
  Pb  Pb2       1.0  0.7500000780671472  0.7500002087150489  0.7499998306531044  1.0000
  Cd  Cd1       1.0  0.9999999931943098  2.0417092610591568e-08  1.5080615308226117e-07  1.0000
  S   S1        1.0  0.274202565637172  0.2742025065073917  0.7257975132144417  1.0000
  S   S2        1.0  0.7257974089918449  0.725797412933523  0.2742025117100095  1.0000
  S   S3        1.0  0.7257975210019997  0.2742024740757452  0.2742026683131735  1.0000
  S   S4        1.0  0.2742026039283618  0.7257974249480816  0.7257972856071593  1.0000
  S   S5        1.0  0.27420248555761917  0.7257974511308034  0.27420269942732656  1.0000
  S   S6        1.0  0.7257974162620537  0.27420252399308237  0.7257973613392847  1.0000
