data_image0
_chemical_formula_structural       Pb2CrN6
_chemical_formula_sum              "Pb2 Cr1 N6"
_cell_length_a       5.650455260458611
_cell_length_b       5.650455147152068
_cell_length_c       5.650455241531376
_cell_angle_alpha    60.000001425084264
_cell_angle_beta     60.00000044758054
_cell_angle_gamma    59.999999578931096

_space_group_name_H-M_alt    "P 1"
_space_group_IT_number       1

loop_
  _space_group_symop_operation_xyz
  'x, y, z'

loop_
  _atom_site_type_symbol
  _atom_site_label
  _atom_site_symmetry_multiplicity
  _atom_site_fract_x
  _atom_site_fract_y
  _atom_site_fract_z
  _atom_site_occupancy
  Pb  Pb1       1.0  0.2500000543284362  0.25000001928294646  0.2499999426547802  1.0000
  Pb  Pb2       1.0  0.749999967671947  0.7500000123310198  0.7500000457172198  1.0000
  Cr  Cr1       1.0  2.0435532304442292e-09  0.9999999999999992  0.9999999635828456  1.0000
  N   N1        1.0  0.23531411728929696  0.2353141529027398  0.7646858563604559  1.0000
  N   N2        1.0  0.7646859183359912  0.7646858071832165  0.23531409725141478  1.0000
  N   N3        1.0  0.7646858534823109  0.23531415938558775  0.23531411132616378  1.0000
  N   N4        1.0  0.23531407197522705  0.7646858982385636  0.7646858769167881  1.0000
  N   N5        1.0  0.2353142101695211  0.764685778668629  0.23531409274044013  1.0000
  N   N6        1.0  0.7646857695785969  0.23531414673708276  0.7646859716315871  1.0000
