data_image0
_chemical_formula_structural       Pb2CS6
_chemical_formula_sum              "Pb2 C1 S6"
_cell_length_a       6.265842979727541
_cell_length_b       6.265843023513001
_cell_length_c       6.265841761108116
_cell_angle_alpha    59.999994720024006
_cell_angle_beta     59.99999493149058
_cell_angle_gamma    59.99999350643225

_space_group_name_H-M_alt    "P 1"
_space_group_IT_number       1

loop_
  _space_group_symop_operation_xyz
  'x, y, z'

loop_
  _atom_site_type_symbol
  _atom_site_label
  _atom_site_symmetry_multiplicity
  _atom_site_fract_x
  _atom_site_fract_y
  _atom_site_fract_z
  _atom_site_occupancy
  Pb  Pb1       1.0  0.2500002664519514  0.24999984178066914  0.25000006587892165  1.0000
  Pb  Pb2       1.0  0.7500001086352163  0.7499998615396261  0.7500003126560686  1.0000
  C   C1        1.0  0.9999977961831961  3.919047805079788e-06  0.999996354251367  1.0000
  S   S1        1.0  0.22301924397255  0.22302004974614653  0.776980141081899  1.0000
  S   S2        1.0  0.7769793910208397  0.7769794835208657  0.22302025091347866  1.0000
  S   S3        1.0  0.7769800386759933  0.22302016896110183  0.22301976539926752  1.0000
  S   S4        1.0  0.22301982157892047  0.7769799565609428  0.7769794816363667  1.0000
  S   S5        1.0  0.22302170135323096  0.7769783245516175  0.22302208396113807  1.0000
  S   S6        1.0  0.7769816170182933  0.22301849763312628  0.7769815176512147  1.0000
