data_image0
_chemical_formula_structural       Pb2CrTe6
_chemical_formula_sum              "Pb2 Cr1 Te6"
_cell_length_a       7.232716128232409
_cell_length_b       7.232716467391811
_cell_length_c       7.232716191618231
_cell_angle_alpha    59.99999803079525
_cell_angle_beta     59.99999599463921
_cell_angle_gamma    60.00000248417462

_space_group_name_H-M_alt    "P 1"
_space_group_IT_number       1

loop_
  _space_group_symop_operation_xyz
  'x, y, z'

loop_
  _atom_site_type_symbol
  _atom_site_label
  _atom_site_symmetry_multiplicity
  _atom_site_fract_x
  _atom_site_fract_y
  _atom_site_fract_z
  _atom_site_occupancy
  Pb  Pb1       1.0  0.2500000287003882  0.25000012379396747  0.24999978677417647  1.0000
  Pb  Pb2       1.0  0.7500000114450911  0.7499998769265804  0.7500003140597591  1.0000
  Cr  Cr1       1.0  3.855944211827828e-08  0.9999999034796155  8.29021236743869e-08  1.0000
  Te  Te1       1.0  0.2580392224735308  0.2580392821035656  0.7419606689597029  1.0000
  Te  Te2       1.0  0.7419608172845876  0.7419607389370729  0.2580389905346574  1.0000
  Te  Te3       1.0  0.741960692755482  0.2580394634846496  0.2580392571026422  1.0000
  Te  Te4       1.0  0.2580391976568623  0.7419606032761563  0.7419608662212444  1.0000
  Te  Te5       1.0  0.25803950383984825  0.7419605820305427  0.25803931618285725  1.0000
  Te  Te6       1.0  0.7419604737517409  0.2580394339300654  0.7419607308820341  1.0000
