data_image0
_chemical_formula_structural       Pb2CrSe6
_chemical_formula_sum              "Pb2 Cr1 Se6"
_cell_length_a       6.740383368654121
_cell_length_b       6.7403834024502345
_cell_length_c       6.7403833494373835
_cell_angle_alpha    59.999999941250174
_cell_angle_beta     60.00000038175662
_cell_angle_gamma    60.000000471906716

_space_group_name_H-M_alt    "P 1"
_space_group_IT_number       1

loop_
  _space_group_symop_operation_xyz
  'x, y, z'

loop_
  _atom_site_type_symbol
  _atom_site_label
  _atom_site_symmetry_multiplicity
  _atom_site_fract_x
  _atom_site_fract_y
  _atom_site_fract_z
  _atom_site_occupancy
  Pb  Pb1       1.0  0.25000001022690704  0.2500000001646118  0.24999998959392983  1.0000
  Pb  Pb2       1.0  0.7500000193124691  0.7499999677873757  0.7500000605481171  1.0000
  Cr  Cr1       1.0  7.3541900144914196e-09  3.6340512230326963e-09  0.9999999648339766  1.0000
  Se  Se1       1.0  0.2551216695682499  0.255121678576755  0.7448783467206184  1.0000
  Se  Se2       1.0  0.7448783118823523  0.7448783257157433  0.2551216351158029  1.0000
  Se  Se3       1.0  0.7448782935867643  0.25512170531883144  0.25512168471479446  1.0000
  Se  Se4       1.0  0.2551216690018197  0.7448783298631005  0.7448783044602753  1.0000
  Se  Se5       1.0  0.25512169574853527  0.7448783121784386  0.255121676476141  1.0000
  Se  Se6       1.0  0.7448783207777391  0.255121679394881  0.7448783416570782  1.0000
