data_image0
_chemical_formula_structural       Pb2CoTe6
_chemical_formula_sum              "Pb2 Co1 Te6"
_cell_length_a       7.1557283821512625
_cell_length_b       7.155727370091087
_cell_length_c       7.1557286185233995
_cell_angle_alpha    59.9999996730301
_cell_angle_beta     59.999998023041044
_cell_angle_gamma    59.99999841111677

_space_group_name_H-M_alt    "P 1"
_space_group_IT_number       1

loop_
  _space_group_symop_operation_xyz
  'x, y, z'

loop_
  _atom_site_type_symbol
  _atom_site_label
  _atom_site_symmetry_multiplicity
  _atom_site_fract_x
  _atom_site_fract_y
  _atom_site_fract_z
  _atom_site_occupancy
  Pb  Pb1       1.0  0.24999976410539174  0.2499999278496636  0.2500001683312633  1.0000
  Pb  Pb2       1.0  0.7500000308189168  0.7500000950526919  0.7499995272064962  1.0000
  Co  Co1       1.0  0.9999998802916555  1.8484835811033516e-07  0.9999999408778487  1.0000
  Te  Te1       1.0  0.2446303563741771  0.24463024034525202  0.7553696767377087  1.0000
  Te  Te2       1.0  0.7553697954179978  0.7553696849982957  0.24463057251408055  1.0000
  Te  Te3       1.0  0.7553698317617802  0.2446300032927442  0.2446305359126227  1.0000
  Te  Te4       1.0  0.24463040526429794  0.755369768010491  0.7553695548898857  1.0000
  Te  Te5       1.0  0.24463019416328205  0.7553696646081047  0.2446305037625269  1.0000
  Te  Te6       1.0  0.7553697717599634  0.24463044558378472  0.7553694818755184  1.0000
