data_image0
_chemical_formula_structural       Pb2CN6
_chemical_formula_sum              "Pb2 C1 N6"
_cell_length_a       5.640512359466803
_cell_length_b       5.640512902899966
_cell_length_c       5.640511936520018
_cell_angle_alpha    60.00000082691522
_cell_angle_beta     60.00000706347832
_cell_angle_gamma    59.99998968419389

_space_group_name_H-M_alt    "P 1"
_space_group_IT_number       1

loop_
  _space_group_symop_operation_xyz
  'x, y, z'

loop_
  _atom_site_type_symbol
  _atom_site_label
  _atom_site_symmetry_multiplicity
  _atom_site_fract_x
  _atom_site_fract_y
  _atom_site_fract_z
  _atom_site_occupancy
  Pb  Pb1       1.0  0.24999940495651524  0.25000433765693647  0.24999718711106697  1.0000
  Pb  Pb2       1.0  0.7499993823924181  0.7500043884235529  0.7499975201397614  1.0000
  C   C1        1.0  0.9999963331965179  2.2712176133425196e-05  0.9999882931138107  1.0000
  N   N1        1.0  0.1927974899031718  0.19278588506336294  0.8072096761102893  1.0000
  N   N2        1.0  0.807218230532238  0.8072066059343537  0.19278881474347934  1.0000
  N   N3        1.0  0.8072081696131984  0.19278249106786832  0.19279876741162655  1.0000
  N   N4        1.0  0.19278739319395663  0.8072035554069519  0.8072198270912823  1.0000
  N   N5        1.0  0.19278617472674764  0.8072054736272218  0.19278932282368635  1.0000
  N   N6        1.0  0.8072074040885062  0.1927846332476793  0.8072101624201694  1.0000
