data_image0
_chemical_formula_structural       Pb2CrS6
_chemical_formula_sum              "Pb2 Cr1 S6"
_cell_length_a       6.347824438898842
_cell_length_b       6.347824194671266
_cell_length_c       6.347824820531066
_cell_angle_alpha    59.99999784963938
_cell_angle_beta     59.99999796624692
_cell_angle_gamma    60.000000728574655

_space_group_name_H-M_alt    "P 1"
_space_group_IT_number       1

loop_
  _space_group_symop_operation_xyz
  'x, y, z'

loop_
  _atom_site_type_symbol
  _atom_site_label
  _atom_site_symmetry_multiplicity
  _atom_site_fract_x
  _atom_site_fract_y
  _atom_site_fract_z
  _atom_site_occupancy
  Pb  Pb1       1.0  0.2500000382856627  0.24999997819319403  0.24999997955495556  1.0000
  Pb  Pb2       1.0  0.7500000295634274  0.749999955802906  0.7500000573438382  1.0000
  Cr  Cr1       1.0  0.9999999865889062  0.9999998765188337  4.79666728427532e-08  1.0000
  S   S1        1.0  0.2518183608420856  0.2518183895007942  0.7481816472533059  1.0000
  S   S2        1.0  0.7481815861551693  0.748181808822171  0.25181824386686447  1.0000
  S   S3        1.0  0.7481816178766236  0.2518184675694506  0.25181825673166225  1.0000
  S   S4        1.0  0.2518182546878171  0.7481816593659644  0.7481817766137722  1.0000
  S   S5        1.0  0.251818403469592  0.7481815411246354  0.25181834409719783  1.0000
  S   S6        1.0  0.7481817216717076  0.2518183137663443  0.7481816769272236  1.0000
