data_image0
_chemical_formula_structural       Pb2CoN6
_chemical_formula_sum              "Pb2 Co1 N6"
_cell_length_a       5.5529118690725126
_cell_length_b       5.552911737915683
_cell_length_c       5.552911372708379
_cell_angle_alpha    60.000002296068345
_cell_angle_beta     60.00000300356551
_cell_angle_gamma    60.000000880431806

_space_group_name_H-M_alt    "P 1"
_space_group_IT_number       1

loop_
  _space_group_symop_operation_xyz
  'x, y, z'

loop_
  _atom_site_type_symbol
  _atom_site_label
  _atom_site_symmetry_multiplicity
  _atom_site_fract_x
  _atom_site_fract_y
  _atom_site_fract_z
  _atom_site_occupancy
  Pb  Pb1       1.0  0.24999999992337968  0.24999998578349975  0.24999990186824703  1.0000
  Pb  Pb2       1.0  0.7499999628841598  0.7500000742467879  0.7500000761950104  1.0000
  Co  Co1       1.0  0.9999999223251368  2.20559055804814e-09  0.9999999404883516  1.0000
  N   N1        1.0  0.24200430632976358  0.24200415679415074  0.7579956764121908  1.0000
  N   N2        1.0  0.7579958867959319  0.7579957113497763  0.2420042374137409  1.0000
  N   N3        1.0  0.757995663002158  0.2420043152870485  0.24200426702941807  1.0000
  N   N4        1.0  0.24200419654641314  0.7579957800326851  0.7579958260571711  1.0000
  N   N5        1.0  0.2420042974141134  0.7579957948581192  0.24200429316523508  1.0000
  N   N6        1.0  0.7579958299872191  0.2420041394535184  0.757995744698164  1.0000
