data_image0
_chemical_formula_structural       Pb2CaTe6
_chemical_formula_sum              "Pb2 Ca1 Te6"
_cell_length_a       7.722829960789929
_cell_length_b       7.722830232679476
_cell_length_c       7.722829981332261
_cell_angle_alpha    60.0000021795657
_cell_angle_beta     60.00000069852747
_cell_angle_gamma    60.00000102540482

_space_group_name_H-M_alt    "P 1"
_space_group_IT_number       1

loop_
  _space_group_symop_operation_xyz
  'x, y, z'

loop_
  _atom_site_type_symbol
  _atom_site_label
  _atom_site_symmetry_multiplicity
  _atom_site_fract_x
  _atom_site_fract_y
  _atom_site_fract_z
  _atom_site_occupancy
  Pb  Pb1       1.0  0.24999997568792154  0.24999997406165925  0.2499999806989727  1.0000
  Pb  Pb2       1.0  0.7499999622068949  0.7499999872058817  0.7500001729999816  1.0000
  Ca  Ca1       1.0  0.9999999400114846  9.515253237475011e-09  0.9999999022247295  1.0000
  Te  Te1       1.0  0.28250075788494877  0.2825006666898917  0.7174993097021559  1.0000
  Te  Te2       1.0  0.7174992325820673  0.7174993342245383  0.282500616606558  1.0000
  Te  Te3       1.0  0.7174993172979404  0.2825007322182041  0.28250074060000097  1.0000
  Te  Te4       1.0  0.282500729003726  0.7174992940702369  0.7174992642316979  1.0000
  Te  Te5       1.0  0.28250078574763254  0.7174993422580346  0.28250069074176076  1.0000
  Te  Te6       1.0  0.7174993064821849  0.282500653898769  0.717499325614613  1.0000
