data_image0
_chemical_formula_structural       Pb2CoO6
_chemical_formula_sum              "Pb2 Co1 O6"
_cell_length_a       5.547991720198045
_cell_length_b       5.547991653316039
_cell_length_c       5.547990996401148
_cell_angle_alpha    60.00000257130491
_cell_angle_beta     60.00000167069776
_cell_angle_gamma    60.00000104387758

_space_group_name_H-M_alt    "P 1"
_space_group_IT_number       1

loop_
  _space_group_symop_operation_xyz
  'x, y, z'

loop_
  _atom_site_type_symbol
  _atom_site_label
  _atom_site_symmetry_multiplicity
  _atom_site_fract_x
  _atom_site_fract_y
  _atom_site_fract_z
  _atom_site_occupancy
  Pb  Pb1       1.0  0.24999989646798854  0.24999994755648802  0.25000009600701056  1.0000
  Pb  Pb2       1.0  0.7500000252678487  0.7499999839524253  0.7500001125335004  1.0000
  Co  Co1       1.0  0.9999998433149639  0.9999999580566198  3.2462099405851665e-07  1.0000
  O   O1        1.0  0.23106395964624044  0.2310639881649314  0.7689360179722541  1.0000
  O   O2        1.0  0.7689361170504326  0.7689360029477327  0.23106383454727225  1.0000
  O   O3        1.0  0.768936141335146  0.23106389932109073  0.23106383581750212  1.0000
  O   O4        1.0  0.23106395775076174  0.768936118282129  0.7689359472007721  1.0000
  O   O5        1.0  0.2310639500561497  0.7689361718842432  0.23106386895065778  1.0000
  O   O6        1.0  0.7689361031979518  0.2310639207755501  0.7689359895779457  1.0000
