data_image0
_chemical_formula_structural       Pb2CuO6
_chemical_formula_sum              "Pb2 Cu1 O6"
_cell_length_a       5.492187941598515
_cell_length_b       5.49218783649528
_cell_length_c       5.492187729690596
_cell_angle_alpha    60.00000003552091
_cell_angle_beta     59.99999956918047
_cell_angle_gamma    59.99999876731015

_space_group_name_H-M_alt    "P 1"
_space_group_IT_number       1

loop_
  _space_group_symop_operation_xyz
  'x, y, z'

loop_
  _atom_site_type_symbol
  _atom_site_label
  _atom_site_symmetry_multiplicity
  _atom_site_fract_x
  _atom_site_fract_y
  _atom_site_fract_z
  _atom_site_occupancy
  Pb  Pb1       1.0  0.2500001354818356  0.2499998095055066  0.2500001242133711  1.0000
  Pb  Pb2       1.0  0.750000009604758  0.7500000261501751  0.7500000992706968  1.0000
  Cu  Cu1       1.0  3.822655604661981e-08  0.9999999799302128  0.9999999909216152  1.0000
  O   O1        1.0  0.24037536634159784  0.24037554604802977  0.7596245414769199  1.0000
  O   O2        1.0  0.759624393695561  0.7596245995743632  0.24037545007484026  1.0000
  O   O3        1.0  0.7596245066123951  0.24037558791672556  0.24037536782323968  1.0000
  O   O4        1.0  0.24037550684370965  0.7596245354059018  0.7596244280551324  1.0000
  O   O5        1.0  0.2403755365131764  0.7596244731944781  0.2403755183319773  1.0000
  O   O6        1.0  0.7596245451794523  0.24037548956985408  0.7596244256702916  1.0000
