data_image0
_chemical_formula_structural       Pb2CaS6
_chemical_formula_sum              "Pb2 Ca1 S6"
_cell_length_a       6.888405962424595
_cell_length_b       6.888406106288904
_cell_length_c       6.888406196845067
_cell_angle_alpha    60.000000259171856
_cell_angle_beta     59.99999845131183
_cell_angle_gamma    60.000001358629255

_space_group_name_H-M_alt    "P 1"
_space_group_IT_number       1

loop_
  _space_group_symop_operation_xyz
  'x, y, z'

loop_
  _atom_site_type_symbol
  _atom_site_label
  _atom_site_symmetry_multiplicity
  _atom_site_fract_x
  _atom_site_fract_y
  _atom_site_fract_z
  _atom_site_occupancy
  Pb  Pb1       1.0  0.25000003378897023  0.24999993239255314  0.2500000278124492  1.0000
  Pb  Pb2       1.0  0.7499999736255036  0.7500000496508227  0.7499999513891692  1.0000
  Ca  Ca1       1.0  3.5710629974562346e-08  0.9999999733303019  2.1033329790985227e-07  1.0000
  S   S1        1.0  0.27831935605891267  0.2783192942118794  0.7216806279862544  1.0000
  S   S2        1.0  0.7216806284626359  0.7216807162791763  0.27831930053140413  1.0000
  S   S3        1.0  0.7216806464943963  0.27831930851968  0.2783193624037647  1.0000
  S   S4        1.0  0.27831940331844673  0.7216806770796563  0.7216805764001132  1.0000
  S   S5        1.0  0.2783193087891509  0.7216806746607547  0.27831934902512323  1.0000
  S   S6        1.0  0.7216806073761187  0.2783193749458611  0.7216805897577514  1.0000
