data_image0
_chemical_formula_structural       Pb2CaSe6
_chemical_formula_sum              "Pb2 Ca1 Se6"
_cell_length_a       7.1589989982970605
_cell_length_b       7.158998987279393
_cell_length_c       7.158998963995507
_cell_angle_alpha    60.0000018536686
_cell_angle_beta     59.999999306766284
_cell_angle_gamma    60.000002129711596

_space_group_name_H-M_alt    "P 1"
_space_group_IT_number       1

loop_
  _space_group_symop_operation_xyz
  'x, y, z'

loop_
  _atom_site_type_symbol
  _atom_site_label
  _atom_site_symmetry_multiplicity
  _atom_site_fract_x
  _atom_site_fract_y
  _atom_site_fract_z
  _atom_site_occupancy
  Pb  Pb1       1.0  0.24999991267803306  0.25000008748941716  0.25000002367647456  1.0000
  Pb  Pb2       1.0  0.7499999675659312  0.7499998980728266  0.7500001580170206  1.0000
  Ca  Ca1       1.0  0.9999999056195186  0.9999999589413573  6.258455348213743e-09  1.0000
  Se  Se1       1.0  0.27732462679099895  0.27732460713914553  0.7226754039070723  1.0000
  Se  Se2       1.0  0.7226754105115668  0.722675318545914  0.27732458113031877  1.0000
  Se  Se3       1.0  0.7226754347541039  0.27732470460300296  0.27732452568507493  1.0000
  Se  Se4       1.0  0.27732467703415237  0.7226753750519578  0.7226753702677019  1.0000
  Se  Se5       1.0  0.2773246586613435  0.7226753545386735  0.2773246352219393  1.0000
  Se  Se6       1.0  0.7226754091220158  0.27732469261152964  0.7226752892077613  1.0000
