data_image0
_chemical_formula_structural       Pb2CdO6
_chemical_formula_sum              "Pb2 Cd1 O6"
_cell_length_a       5.535371274802775
_cell_length_b       5.535371205133919
_cell_length_c       5.535371615910539
_cell_angle_alpha    59.999994681898634
_cell_angle_beta     59.99999879766082
_cell_angle_gamma    60.00000334310421

_space_group_name_H-M_alt    "P 1"
_space_group_IT_number       1

loop_
  _space_group_symop_operation_xyz
  'x, y, z'

loop_
  _atom_site_type_symbol
  _atom_site_label
  _atom_site_symmetry_multiplicity
  _atom_site_fract_x
  _atom_site_fract_y
  _atom_site_fract_z
  _atom_site_occupancy
  Pb  Pb1       1.0  0.25000003086199174  0.25000002580929376  0.2499999284593436  1.0000
  Pb  Pb2       1.0  0.7499997462382328  0.7500001902694053  0.7500001261450022  1.0000
  Cd  Cd1       1.0  0.9999994787573934  3.8720137737626976e-07  2.58516327799855e-07  1.0000
  O   O1        1.0  0.27945093069105087  0.2794507737741725  0.7205491568709224  1.0000
  O   O2        1.0  0.7205493653523682  0.7205492121962938  0.27945066840746885  1.0000
  O   O3        1.0  0.7205490839521348  0.27945095971614836  0.27945093848251806  1.0000
  O   O4        1.0  0.27945140055811446  0.7205486235648593  0.7205488024114725  1.0000
  O   O5        1.0  0.27945092660192117  0.7205489578874524  0.2794510960677788  1.0000
  O   O6        1.0  0.720549090714809  0.2794509130288523  0.7205490507539162  1.0000
