data_image0
_chemical_formula_structural       Pb2CdTe6
_chemical_formula_sum              "Pb2 Cd1 Te6"
_cell_length_a       7.495659538379642
_cell_length_b       7.495659058962106
_cell_length_c       7.495659293964801
_cell_angle_alpha    59.99999904198143
_cell_angle_beta     60.00000814889524
_cell_angle_gamma    59.99999583846877

_space_group_name_H-M_alt    "P 1"
_space_group_IT_number       1

loop_
  _space_group_symop_operation_xyz
  'x, y, z'

loop_
  _atom_site_type_symbol
  _atom_site_label
  _atom_site_symmetry_multiplicity
  _atom_site_fract_x
  _atom_site_fract_y
  _atom_site_fract_z
  _atom_site_occupancy
  Pb  Pb1       1.0  0.2500000393593927  0.25000045605317983  0.24999953673793499  1.0000
  Pb  Pb2       1.0  0.7499997717169133  0.7499995234424675  0.750000435508641  1.0000
  Cd  Cd1       1.0  1.9997149470245298e-08  0.9999998937939497  7.395075022145021e-07  1.0000
  Te  Te1       1.0  0.27550545609396215  0.27550581717039074  0.7244944257525419  1.0000
  Te  Te2       1.0  0.7244945597583111  0.7244941950040276  0.275505370400141  1.0000
  Te  Te3       1.0  0.7244946724865787  0.2755061033398101  0.27550488299581627  1.0000
  Te  Te4       1.0  0.2755060036418812  0.7244932127765846  0.7244950551196278  1.0000
  Te  Te5       1.0  0.27550570116107126  0.7244940658481062  0.27550529297421406  1.0000
  Te  Te6       1.0  0.7244937651888957  0.2755067306170336  0.7244942670488462  1.0000
