data_image0
_chemical_formula_structural       Pb2CuS6
_chemical_formula_sum              "Pb2 Cu1 S6"
_cell_length_a       6.357747377173961
_cell_length_b       6.357747852692607
_cell_length_c       6.357747555234485
_cell_angle_alpha    59.999999445794344
_cell_angle_beta     60.000001286857675
_cell_angle_gamma    60.00000040802702

_space_group_name_H-M_alt    "P 1"
_space_group_IT_number       1

loop_
  _space_group_symop_operation_xyz
  'x, y, z'

loop_
  _atom_site_type_symbol
  _atom_site_label
  _atom_site_symmetry_multiplicity
  _atom_site_fract_x
  _atom_site_fract_y
  _atom_site_fract_z
  _atom_site_occupancy
  Pb  Pb1       1.0  0.2500000557371004  0.24999996744845038  0.24999994652464747  1.0000
  Pb  Pb2       1.0  0.7500000807099094  0.7500000256337722  0.7499999643128766  1.0000
  Cu  Cu1       1.0  0.9999999831032516  2.889572418159258e-08  1.130223641849613e-08  1.0000
  S   S1        1.0  0.257717046794833  0.2577170226487731  0.7422829599532313  1.0000
  S   S2        1.0  0.742282949142966  0.7422830051083209  0.2577169849268505  1.0000
  S   S3        1.0  0.7422829872098302  0.257716960741095  0.2577170258046784  1.0000
  S   S4        1.0  0.25771702138797586  0.7422829745496787  0.7422830014464324  1.0000
  S   S5        1.0  0.2577169909238761  0.742283049866263  0.2577170296434238  1.0000
  S   S6        1.0  0.7422828949774068  0.2577169701853015  0.7422830936468702  1.0000
