data_image0
_chemical_formula_structural       Pb2FeSe6
_chemical_formula_sum              "Pb2 Fe1 Se6"
_cell_length_a       6.786959542301377
_cell_length_b       6.786959684342199
_cell_length_c       6.786959442487134
_cell_angle_alpha    60.000002204681316
_cell_angle_beta     60.000001707339266
_cell_angle_gamma    60.00000214294486

_space_group_name_H-M_alt    "P 1"
_space_group_IT_number       1

loop_
  _space_group_symop_operation_xyz
  'x, y, z'

loop_
  _atom_site_type_symbol
  _atom_site_label
  _atom_site_symmetry_multiplicity
  _atom_site_fract_x
  _atom_site_fract_y
  _atom_site_fract_z
  _atom_site_occupancy
  Pb  Pb1       1.0  0.24999999910648552  0.24999999714387966  0.24999998383527583  1.0000
  Pb  Pb2       1.0  0.75000000357343  0.7500000798548805  0.7499999881518098  1.0000
  Fe  Fe1       1.0  0.9999999683613341  2.345922711933575e-08  1.88238577469196e-08  1.0000
  Se  Se1       1.0  0.23953879060808028  0.23953871374762697  0.76046125299637  1.0000
  Se  Se2       1.0  0.7604612773778384  0.760461269414225  0.23953873030934053  1.0000
  Se  Se3       1.0  0.7604611890555746  0.23953875945458816  0.23953882846763278  1.0000
  Se  Se4       1.0  0.2395387625691186  0.760461169570585  0.7604612282997176  1.0000
  Se  Se5       1.0  0.23953881359143597  0.7604612218568567  0.23953875623614626  1.0000
  Se  Se6       1.0  0.7604612073581534  0.23953875950043854  0.7604611999205222  1.0000
