data_image0
_chemical_formula_structural       Pb2FeTe6
_chemical_formula_sum              "Pb2 Fe1 Te6"
_cell_length_a       7.279230765106532
_cell_length_b       7.279231057102997
_cell_length_c       7.2792306502744015
_cell_angle_alpha    59.99999773011424
_cell_angle_beta     60.00000009196351
_cell_angle_gamma    59.99999564521553

_space_group_name_H-M_alt    "P 1"
_space_group_IT_number       1

loop_
  _space_group_symop_operation_xyz
  'x, y, z'

loop_
  _atom_site_type_symbol
  _atom_site_label
  _atom_site_symmetry_multiplicity
  _atom_site_fract_x
  _atom_site_fract_y
  _atom_site_fract_z
  _atom_site_occupancy
  Pb  Pb1       1.0  0.24999993271791254  0.24999989329049524  0.250000099676485  1.0000
  Pb  Pb2       1.0  0.7500000905541117  0.7500000685335102  0.7499999007998376  1.0000
  Fe  Fe1       1.0  9.43253315018036e-08  1.8339463247489982e-07  0.9999999298285897  1.0000
  Te  Te1       1.0  0.23353226662012866  0.23353233005938162  0.7664677499193449  1.0000
  Te  Te2       1.0  0.7664675869183583  0.7664676317646276  0.23353241647626674  1.0000
  Te  Te3       1.0  0.7664678086704443  0.2335322141981742  0.23353226628778062  1.0000
  Te  Te4       1.0  0.2335322554136485  0.7664676870551284  0.7664676190546496  1.0000
  Te  Te5       1.0  0.2335321357093468  0.7664678389438584  0.2335322563054647  1.0000
  Te  Te6       1.0  0.7664678244627663  0.23353215989558204  0.7664677503442371  1.0000
