data_image0
_chemical_formula_structural       Pb2FeN6
_chemical_formula_sum              "Pb2 Fe1 N6"
_cell_length_a       5.585095170171499
_cell_length_b       5.585094904119481
_cell_length_c       5.585095049605886
_cell_angle_alpha    59.99999982196739
_cell_angle_beta     59.99999938362275
_cell_angle_gamma    59.99999932624802

_space_group_name_H-M_alt    "P 1"
_space_group_IT_number       1

loop_
  _space_group_symop_operation_xyz
  'x, y, z'

loop_
  _atom_site_type_symbol
  _atom_site_label
  _atom_site_symmetry_multiplicity
  _atom_site_fract_x
  _atom_site_fract_y
  _atom_site_fract_z
  _atom_site_occupancy
  Pb  Pb1       1.0  0.25000010563174435  0.24999994443932275  0.24999994781573054  1.0000
  Pb  Pb2       1.0  0.7500000373247434  0.7500000021698092  0.7499999632637934  1.0000
  Fe  Fe1       1.0  0.9999999086121341  9.429388465998056e-08  0.999999978851714  1.0000
  N   N1        1.0  0.23696366905100827  0.23696363914098628  0.7630363877877485  1.0000
  N   N2        1.0  0.7630362898577908  0.7630363820261025  0.23696371232263022  1.0000
  N   N3        1.0  0.7630362988337211  0.23696365953302395  0.2369636548156068  1.0000
  N   N4        1.0  0.236963671415725  0.7630363090049176  0.763036310167277  1.0000
  N   N5        1.0  0.23696360260412144  0.7630363505263125  0.23696374780361187  1.0000
  N   N6        1.0  0.7630364082637219  0.23696362020451195  0.763036324688179  1.0000
