data_image0
_chemical_formula_structural       Pb2FeS6
_chemical_formula_sum              "Pb2 Fe1 S6"
_cell_length_a       6.411273753485427
_cell_length_b       6.411273502020334
_cell_length_c       6.411273371993066
_cell_angle_alpha    59.999999240723234
_cell_angle_beta     60.00000297924299
_cell_angle_gamma    59.99999791381554

_space_group_name_H-M_alt    "P 1"
_space_group_IT_number       1

loop_
  _space_group_symop_operation_xyz
  'x, y, z'

loop_
  _atom_site_type_symbol
  _atom_site_label
  _atom_site_symmetry_multiplicity
  _atom_site_fract_x
  _atom_site_fract_y
  _atom_site_fract_z
  _atom_site_occupancy
  Pb  Pb1       1.0  0.24999998264775689  0.25000006138499636  0.2499999435013301  1.0000
  Pb  Pb2       1.0  0.7499999622456216  0.7500000007662875  0.7500000632236602  1.0000
  Fe  Fe1       1.0  5.4218877218002246e-09  0.999999967524917  5.408016434274208e-08  1.0000
  S   S1        1.0  0.2416745674691  0.24167448541405706  0.7583255021170546  1.0000
  S   S2        1.0  0.7583253771527613  0.7583254965046705  0.24167457449527166  1.0000
  S   S3        1.0  0.7583255121368899  0.24167461329594794  0.2416744728240902  1.0000
  S   S4        1.0  0.2416746065310112  0.7583254030081611  0.7583253264399935  1.0000
  S   S5        1.0  0.24167452764918235  0.7583254725773033  0.24167453369471356  1.0000
  S   S6        1.0  0.7583254738071499  0.24167442528826957  0.758325562765966  1.0000
