data_image0
_chemical_formula_structural       Pb2GeN6
_chemical_formula_sum              "Pb2 Ge1 N6"
_cell_length_a       5.618748933796295
_cell_length_b       5.618748443827704
_cell_length_c       5.618748421509335
_cell_angle_alpha    60.00000141211724
_cell_angle_beta     60.000003524585225
_cell_angle_gamma    59.99999939854025

_space_group_name_H-M_alt    "P 1"
_space_group_IT_number       1

loop_
  _space_group_symop_operation_xyz
  'x, y, z'

loop_
  _atom_site_type_symbol
  _atom_site_label
  _atom_site_symmetry_multiplicity
  _atom_site_fract_x
  _atom_site_fract_y
  _atom_site_fract_z
  _atom_site_occupancy
  Pb  Pb1       1.0  0.25000009085135383  0.24999995222775898  0.24999997458772014  1.0000
  Pb  Pb2       1.0  0.7499998756697097  0.7500000855566891  0.7500000059888753  1.0000
  Ge  Ge1       1.0  0.9999999462970832  5.013417539699813e-08  0.9999999697487669  1.0000
  N   N1        1.0  0.2519407251756563  0.25194050640777  0.7480593766679807  1.0000
  N   N2        1.0  0.748059327908289  0.7480595182981971  0.25194056360690287  1.0000
  N   N3        1.0  0.7480594016661388  0.2519405377930368  0.2519407211335694  1.0000
  N   N4        1.0  0.25194057567177724  0.7480593997230613  0.7480593967160746  1.0000
  N   N5        1.0  0.2519406457087689  0.7480593607773203  0.25194053033726116  1.0000
  N   N6        1.0  0.748059383711457  0.2519406116147237  0.7480593891945023  1.0000
