data_image0
_chemical_formula_structural       Pb2GeSe6
_chemical_formula_sum              "Pb2 Ge1 Se6"
_cell_length_a       6.827967855799122
_cell_length_b       6.827967743347452
_cell_length_c       6.827967785314723
_cell_angle_alpha    59.999999709253395
_cell_angle_beta     60.00000041841593
_cell_angle_gamma    60.000000659189304

_space_group_name_H-M_alt    "P 1"
_space_group_IT_number       1

loop_
  _space_group_symop_operation_xyz
  'x, y, z'

loop_
  _atom_site_type_symbol
  _atom_site_label
  _atom_site_symmetry_multiplicity
  _atom_site_fract_x
  _atom_site_fract_y
  _atom_site_fract_z
  _atom_site_occupancy
  Pb  Pb1       1.0  0.2500000598773612  0.2500000279733814  0.2499999190515091  1.0000
  Pb  Pb2       1.0  0.749999971965616  0.7500000067902667  0.7500001294893438  1.0000
  Ge  Ge1       1.0  3.402783917357292e-08  0.9999999892376923  0.9999999634696358  1.0000
  Se  Se1       1.0  0.25750430108683364  0.2575042476255853  0.7424957365615206  1.0000
  Se  Se2       1.0  0.7424957021270587  0.7424957512637023  0.2575042182784984  1.0000
  Se  Se3       1.0  0.7424956861930354  0.25750432522285327  0.25750425682098577  1.0000
  Se  Se4       1.0  0.2575042541411635  0.7424956898098957  0.7424957667886521  1.0000
  Se  Se5       1.0  0.25750430695612336  0.7424957280996421  0.2575042531859907  1.0000
  Se  Se6       1.0  0.742495694789405  0.25750422953413105  0.7424957698820351  1.0000
