data_image0
_chemical_formula_structural       Pb2GeO6
_chemical_formula_sum              "Pb2 Ge1 O6"
_cell_length_a       5.661810723941661
_cell_length_b       5.661810556028695
_cell_length_c       5.661811224996236
_cell_angle_alpha    59.99999479982127
_cell_angle_beta     59.999996665313915
_cell_angle_gamma    59.99999550399834

_space_group_name_H-M_alt    "P 1"
_space_group_IT_number       1

loop_
  _space_group_symop_operation_xyz
  'x, y, z'

loop_
  _atom_site_type_symbol
  _atom_site_label
  _atom_site_symmetry_multiplicity
  _atom_site_fract_x
  _atom_site_fract_y
  _atom_site_fract_z
  _atom_site_occupancy
  Pb  Pb1       1.0  0.24999988426247066  0.2500001340377312  0.25000002605567057  1.0000
  Pb  Pb2       1.0  0.7500000962611543  0.7500000689852614  0.7500000318252047  1.0000
  Ge  Ge1       1.0  0.9999998970975933  1.5574812341408015e-07  0.9999999488500709  1.0000
  O   O1        1.0  0.23720122013156328  0.23720167277104737  0.7627985937762257  1.0000
  O   O2        1.0  0.7627987428641612  0.7627983442194678  0.23720144931436957  1.0000
  O   O3        1.0  0.762798583491514  0.23720148295686427  0.2372011039616206  1.0000
  O   O4        1.0  0.23720143399336863  0.7627984929334566  0.7627985403338186  1.0000
  O   O5        1.0  0.23720138465635962  0.7627987269534712  0.23720148409813535  1.0000
  O   O6        1.0  0.7627987406121551  0.23720115808377007  0.7627987116235319  1.0000
