data_image0
_chemical_formula_structural       Pb2GeTe6
_chemical_formula_sum              "Pb2 Ge1 Te6"
_cell_length_a       7.390305446851484
_cell_length_b       7.390305438356198
_cell_length_c       7.390305189848194
_cell_angle_alpha    59.99999952323779
_cell_angle_beta     59.99999938938944
_cell_angle_gamma    59.99999950794391

_space_group_name_H-M_alt    "P 1"
_space_group_IT_number       1

loop_
  _space_group_symop_operation_xyz
  'x, y, z'

loop_
  _atom_site_type_symbol
  _atom_site_label
  _atom_site_symmetry_multiplicity
  _atom_site_fract_x
  _atom_site_fract_y
  _atom_site_fract_z
  _atom_site_occupancy
  Pb  Pb1       1.0  0.25000006874987885  0.24999989904353154  0.24999998881056582  1.0000
  Pb  Pb2       1.0  0.7500001462399114  0.7500000037184674  0.7499998539676133  1.0000
  Ge  Ge1       1.0  0.999999971735071  0.999999925424571  1.0554514399046445e-07  1.0000
  Te  Te1       1.0  0.26814176501833115  0.26814190092274354  0.7318581859704648  1.0000
  Te  Te2       1.0  0.7318582074878424  0.7318582089932222  0.26814184496617566  1.0000
  Te  Te3       1.0  0.7318582293474619  0.2681417271915427  0.2681418113303765  1.0000
  Te  Te4       1.0  0.26814174718541184  0.7318582534603478  0.7318581848000183  1.0000
  Te  Te5       1.0  0.268141677176323  0.7318582819295101  0.26814179441181263  1.0000
  Te  Te6       1.0  0.7318581959015271  0.26814179815628525  0.7318582186135068  1.0000
