data_image0
_chemical_formula_structural       Pb2GeS6
_chemical_formula_sum              "Pb2 Ge1 S6"
_cell_length_a       6.569112443730476
_cell_length_b       6.569112449685025
_cell_length_c       6.569112144359147
_cell_angle_alpha    60.000001590006605
_cell_angle_beta     60.000001978891476
_cell_angle_gamma    60.00000159788885

_space_group_name_H-M_alt    "P 1"
_space_group_IT_number       1

loop_
  _space_group_symop_operation_xyz
  'x, y, z'

loop_
  _atom_site_type_symbol
  _atom_site_label
  _atom_site_symmetry_multiplicity
  _atom_site_fract_x
  _atom_site_fract_y
  _atom_site_fract_z
  _atom_site_occupancy
  Pb  Pb1       1.0  0.25000009637676746  0.24999993414152913  0.25000000975523284  1.0000
  Pb  Pb2       1.0  0.7500000609549148  0.7499999385257335  0.7500000418127524  1.0000
  Ge  Ge1       1.0  2.13948557318352e-08  1.4915194391339373e-08  0.9999999270430486  1.0000
  S   S1        1.0  0.25149888989699326  0.25149901684566117  0.7485010408716819  1.0000
  S   S2        1.0  0.748500994888482  0.7485010142955385  0.25149898096272066  1.0000
  S   S3        1.0  0.7485009758836805  0.251499057009263  0.25149897149673617  1.0000
  S   S4        1.0  0.2514989226075061  0.7485010543011057  0.7485010216675351  1.0000
  S   S5        1.0  0.2514990522397738  0.7485009747214229  0.2514989942011547  1.0000
  S   S6        1.0  0.7485009854018696  0.25149899862339997  0.7485010212047973  1.0000
