data_image0
_chemical_formula_structural       Pb2HgO6
_chemical_formula_sum              "Pb2 Hg1 O6"
_cell_length_a       5.764498198495154
_cell_length_b       5.764498094400659
_cell_length_c       5.764498484116414
_cell_angle_alpha    59.99999711229469
_cell_angle_beta     59.99999697890025
_cell_angle_gamma    59.99999844087722

_space_group_name_H-M_alt    "P 1"
_space_group_IT_number       1

loop_
  _space_group_symop_operation_xyz
  'x, y, z'

loop_
  _atom_site_type_symbol
  _atom_site_label
  _atom_site_symmetry_multiplicity
  _atom_site_fract_x
  _atom_site_fract_y
  _atom_site_fract_z
  _atom_site_occupancy
  Pb  Pb1       1.0  0.2499999014761244  0.25000006193522156  0.24999998113512426  1.0000
  Pb  Pb2       1.0  0.7500000407137897  0.7499999882146983  0.7500000232471861  1.0000
  Hg  Hg1       1.0  0.9999999823572603  0.999999944759514  0.9999999878684371  1.0000
  O   O1        1.0  0.2517401432725018  0.2517399959480731  0.7482599500936776  1.0000
  O   O2        1.0  0.7482598542794063  0.7482598821064872  0.25174014561568536  1.0000
  O   O3        1.0  0.7482599048512792  0.2517401915680785  0.2517401005205257  1.0000
  O   O4        1.0  0.25174009965765654  0.7482598819528166  0.748259847138735  1.0000
  O   O5        1.0  0.2517401497974712  0.748259908521399  0.2517401153738232  1.0000
  O   O6        1.0  0.7482599163639697  0.25174011825754694  0.7482598543210162  1.0000
