data_image0
_chemical_formula_structural       Pb2HgTe6
_chemical_formula_sum              "Pb2 Hg1 Te6"
_cell_length_a       7.486081955421224
_cell_length_b       7.486082803221827
_cell_length_c       7.486083723212268
_cell_angle_alpha    60.000000768438454
_cell_angle_beta     59.99998776791676
_cell_angle_gamma    59.99997940147651

_space_group_name_H-M_alt    "P 1"
_space_group_IT_number       1

loop_
  _space_group_symop_operation_xyz
  'x, y, z'

loop_
  _atom_site_type_symbol
  _atom_site_label
  _atom_site_symmetry_multiplicity
  _atom_site_fract_x
  _atom_site_fract_y
  _atom_site_fract_z
  _atom_site_occupancy
  Pb  Pb1       1.0  0.24999973131021014  0.2499999388582348  0.250000508785609  1.0000
  Pb  Pb2       1.0  0.7499996506194255  0.7500010239639581  0.7499992342753842  1.0000
  Hg  Hg1       1.0  1.648620473932414e-07  0.9999996858823371  0.9999995242732727  1.0000
  Te  Te1       1.0  0.2765745875506416  0.2765739347968808  0.7234257098729487  1.0000
  Te  Te2       1.0  0.7234258305197295  0.7234255114261389  0.27657475564528256  1.0000
  Te  Te3       1.0  0.7234254745192917  0.27657385917883803  0.2765749333900674  1.0000
  Te  Te4       1.0  0.27657423155799093  0.7234263903346325  0.7234255065167149  1.0000
  Te  Te5       1.0  0.27657418258660726  0.7234256483480169  0.27657436604137275  1.0000
  Te  Te6       1.0  0.7234260989796505  0.2765740269190665  0.723425485486823  1.0000
