data_image0
_chemical_formula_structural       Pb2HgSe6
_chemical_formula_sum              "Pb2 Hg1 Se6"
_cell_length_a       6.927354305398315
_cell_length_b       6.927354290049414
_cell_length_c       6.927354406452023
_cell_angle_alpha    59.99999964187351
_cell_angle_beta     59.99999911039892
_cell_angle_gamma    59.99999693459002

_space_group_name_H-M_alt    "P 1"
_space_group_IT_number       1

loop_
  _space_group_symop_operation_xyz
  'x, y, z'

loop_
  _atom_site_type_symbol
  _atom_site_label
  _atom_site_symmetry_multiplicity
  _atom_site_fract_x
  _atom_site_fract_y
  _atom_site_fract_z
  _atom_site_occupancy
  Pb  Pb1       1.0  0.2499999964978804  0.24999998465258882  0.2500000937331831  1.0000
  Pb  Pb2       1.0  0.7499999844409828  0.7500000441249298  0.7499999412704753  1.0000
  Hg  Hg1       1.0  0.9999999984342424  0.9999999946960488  0.9999999153781499  1.0000
  Se  Se1       1.0  0.2786704624195095  0.2786704565931743  0.7213294741615651  1.0000
  Se  Se2       1.0  0.721329577096761  0.7213295014649976  0.27867047019504276  1.0000
  Se  Se3       1.0  0.7213295640099417  0.27867033081763815  0.27867040796587905  1.0000
  Se  Se4       1.0  0.27867036641722914  0.7213297244796361  0.7213296130498023  1.0000
  Se  Se5       1.0  0.27867036658640265  0.7213296344073973  0.27867039299477586  1.0000
  Se  Se6       1.0  0.7213296911643348  0.2786703289547255  0.7213296810607717  1.0000
