data_image0
_chemical_formula_structural       Pb2HgS6
_chemical_formula_sum              "Pb2 Hg1 S6"
_cell_length_a       6.621554319444701
_cell_length_b       6.621554208536228
_cell_length_c       6.621554168062909
_cell_angle_alpha    60.00000393111287
_cell_angle_beta     60.000001887376946
_cell_angle_gamma    60.00000155977632

_space_group_name_H-M_alt    "P 1"
_space_group_IT_number       1

loop_
  _space_group_symop_operation_xyz
  'x, y, z'

loop_
  _atom_site_type_symbol
  _atom_site_label
  _atom_site_symmetry_multiplicity
  _atom_site_fract_x
  _atom_site_fract_y
  _atom_site_fract_z
  _atom_site_occupancy
  Pb  Pb1       1.0  0.2500000530716063  0.2500000686350426  0.24999980273918077  1.0000
  Pb  Pb2       1.0  0.7499999075231206  0.7499999617535203  0.7499998766312281  1.0000
  Hg  Hg1       1.0  0.9999998667118004  0.9999998871723651  2.725696400675002e-07  1.0000
  S   S1        1.0  0.2714641648604635  0.2714640924645291  0.7285360220512362  1.0000
  S   S2        1.0  0.7285358976149915  0.728536082195468  0.2714641791068087  1.0000
  S   S3        1.0  0.7285358505100012  0.27146407408515827  0.271464189809214  1.0000
  S   S4        1.0  0.27146425627213994  0.728535758392635  0.7285358219974201  1.0000
  S   S5        1.0  0.2714642459292249  0.7285358261080717  0.27146397101941805  1.0000
  S   S6        1.0  0.7285357662405603  0.27146424312280104  0.7285358549401807  1.0000
