data_image0
_chemical_formula_structural       Pb2HfN6
_chemical_formula_sum              "Pb2 Hf1 N6"
_cell_length_a       5.749849160314392
_cell_length_b       5.74984911745794
_cell_length_c       5.749849434045163
_cell_angle_alpha    59.99999932473451
_cell_angle_beta     59.99999836675935
_cell_angle_gamma    59.999999858270264

_space_group_name_H-M_alt    "P 1"
_space_group_IT_number       1

loop_
  _space_group_symop_operation_xyz
  'x, y, z'

loop_
  _atom_site_type_symbol
  _atom_site_label
  _atom_site_symmetry_multiplicity
  _atom_site_fract_x
  _atom_site_fract_y
  _atom_site_fract_z
  _atom_site_occupancy
  Pb  Pb1       1.0  0.2499999850539723  0.25000001653173515  0.24999992177791333  1.0000
  Pb  Pb2       1.0  0.750000086023948  0.7499998919717337  0.7500000848094307  1.0000
  Hf  Hf1       1.0  6.913247283415171e-08  0.9999999552690134  0.9999999599724408  1.0000
  N   N1        1.0  0.264598029909119  0.264598136222041  0.7354019844946172  1.0000
  N   N2        1.0  0.7354017587360465  0.7354019448152336  0.2645982283505128  1.0000
  N   N3        1.0  0.7354018768583063  0.26459821081957124  0.2645979672463494  1.0000
  N   N4        1.0  0.26459809409009194  0.7354018233566683  0.7354019796116201  1.0000
  N   N5        1.0  0.2645981909285226  0.7354018469564344  0.26459801555959644  1.0000
  N   N6        1.0  0.7354019332542673  0.2645981552691009  0.7354018358730096  1.0000
