data_image0
_chemical_formula_structural       Pb2InTe6
_chemical_formula_sum              "Pb2 In1 Te6"
_cell_length_a       7.545980142842044
_cell_length_b       7.545979654796598
_cell_length_c       7.545979599160014
_cell_angle_alpha    60.00000022796539
_cell_angle_beta     60.000000172461554
_cell_angle_gamma    59.99999757777922

_space_group_name_H-M_alt    "P 1"
_space_group_IT_number       1

loop_
  _space_group_symop_operation_xyz
  'x, y, z'

loop_
  _atom_site_type_symbol
  _atom_site_label
  _atom_site_symmetry_multiplicity
  _atom_site_fract_x
  _atom_site_fract_y
  _atom_site_fract_z
  _atom_site_occupancy
  Pb  Pb1       1.0  0.2500001816337886  0.24999993501479167  0.24999985138544703  1.0000
  Pb  Pb2       1.0  0.7499997986634452  0.7499998586048039  0.7499998647144567  1.0000
  In  In1       1.0  0.9999999852388191  0.9999999983769576  4.927359058468442e-08  1.0000
  Te  Te1       1.0  0.2720483373895073  0.2720482448037703  0.7279517521438086  1.0000
  Te  Te2       1.0  0.7279515294671595  0.7279517468270685  0.27204857367358204  1.0000
  Te  Te3       1.0  0.7279516976812226  0.27204838777896034  0.2720482939255461  1.0000
  Te  Te4       1.0  0.27204868088938733  0.7279514642701775  0.727951678849382  1.0000
  Te  Te5       1.0  0.2720483299631246  0.7279516569318863  0.27204831896588044  1.0000
  Te  Te6       1.0  0.7279514636841534  0.2720486966375231  0.7279516345509742  1.0000
