data_image0
_chemical_formula_structural       Pb2InO6
_chemical_formula_sum              "Pb2 In1 O6"
_cell_length_a       5.534587225722135
_cell_length_b       5.534586804071128
_cell_length_c       5.534587472473147
_cell_angle_alpha    59.999998348150974
_cell_angle_beta     60.000003457659474
_cell_angle_gamma    60.000000519593

_space_group_name_H-M_alt    "P 1"
_space_group_IT_number       1

loop_
  _space_group_symop_operation_xyz
  'x, y, z'

loop_
  _atom_site_type_symbol
  _atom_site_label
  _atom_site_symmetry_multiplicity
  _atom_site_fract_x
  _atom_site_fract_y
  _atom_site_fract_z
  _atom_site_occupancy
  Pb  Pb1       1.0  0.24999913169163868  0.2500004052849951  0.2500001826992918  1.0000
  Pb  Pb2       1.0  0.749999994696568  0.7499996447009342  0.7499998911254119  1.0000
  In  In1       1.0  0.9999997875375117  0.9999996171694885  5.234989098512982e-07  1.0000
  O   O1        1.0  0.27610798014097093  0.276107936905861  0.7238920833139069  1.0000
  O   O2        1.0  0.723892553449742  0.723892059970671  0.2761079440442633  1.0000
  O   O3        1.0  0.7238922744457565  0.27610787683336435  0.2761077802346449  1.0000
  O   O4        1.0  0.27610823976059234  0.7238918965409623  0.7238922908735711  1.0000
  O   O5        1.0  0.27610761345446433  0.7238922315654692  0.2761079264083987  1.0000
  O   O6        1.0  0.7238924865072585  0.27610825878621303  0.7238916012536407  1.0000
