data_image0
_chemical_formula_structural       Pb2InS6
_chemical_formula_sum              "Pb2 In1 S6"
_cell_length_a       6.660671915794384
_cell_length_b       6.6606715222117066
_cell_length_c       6.66067211746936
_cell_angle_alpha    60.00000259340736
_cell_angle_beta     60.00000423207346
_cell_angle_gamma    60.00000259225116

_space_group_name_H-M_alt    "P 1"
_space_group_IT_number       1

loop_
  _space_group_symop_operation_xyz
  'x, y, z'

loop_
  _atom_site_type_symbol
  _atom_site_label
  _atom_site_symmetry_multiplicity
  _atom_site_fract_x
  _atom_site_fract_y
  _atom_site_fract_z
  _atom_site_occupancy
  Pb  Pb1       1.0  0.2499999320442569  0.2500000900224004  0.2500000470642478  1.0000
  Pb  Pb2       1.0  0.7500000226288918  0.7499999078293432  0.7499999688476078  1.0000
  In  In1       1.0  0.9999999867440515  0.9999999981612343  1.3215940544882275e-07  1.0000
  S   S1        1.0  0.27156195859977433  0.27156189533119285  0.72843810305226  1.0000
  S   S2        1.0  0.7284380707417912  0.7284380657451354  0.27156188790769614  1.0000
  S   S3        1.0  0.7284380864050166  0.2715620646016985  0.2715618340364321  1.0000
  S   S4        1.0  0.27156202340067365  0.7284378891195455  0.7284380678217569  1.0000
  S   S5        1.0  0.27156199559367894  0.7284380146745743  0.2715619370252199  1.0000
  S   S6        1.0  0.7284379208859265  0.2715620769544781  0.7284379940434558  1.0000
