data_image0
_chemical_formula_structural       Pb2InSe6
_chemical_formula_sum              "Pb2 In1 Se6"
_cell_length_a       7.030619869530105
_cell_length_b       7.030619847766972
_cell_length_c       7.03061988922016
_cell_angle_alpha    59.99999990900546
_cell_angle_beta     60.00000006048916
_cell_angle_gamma    60.000000096098965

_space_group_name_H-M_alt    "P 1"
_space_group_IT_number       1

loop_
  _space_group_symop_operation_xyz
  'x, y, z'

loop_
  _atom_site_type_symbol
  _atom_site_label
  _atom_site_symmetry_multiplicity
  _atom_site_fract_x
  _atom_site_fract_y
  _atom_site_fract_z
  _atom_site_occupancy
  Pb  Pb1       1.0  0.250000045740307  0.24999995104504344  0.25000000997161703  1.0000
  Pb  Pb2       1.0  0.7500000300330069  0.749999933267843  0.7499999097415813  1.0000
  In  In1       1.0  1.4602262155912265e-09  0.9999999808378295  0.999999977559279  1.0000
  Se  Se1       1.0  0.27181063594452665  0.2718106944052684  0.7281893240855262  1.0000
  Se  Se2       1.0  0.7281893352936974  0.7281893606251365  0.2718106905479294  1.0000
  Se  Se3       1.0  0.7281893033469125  0.2718106934714364  0.27181069864580654  1.0000
  Se  Se4       1.0  0.2718106808311603  0.7281893720110617  0.7281893298939728  1.0000
  Se  Se5       1.0  0.2718106325236505  0.7281893177343682  0.2718107032661245  1.0000
  Se  Se6       1.0  0.7281893441569686  0.2718106815515409  0.7281893606983262  1.0000
