data_image0
_chemical_formula_structural       Pb2MgO6
_chemical_formula_sum              "Pb2 Mg1 O6"
_cell_length_a       5.322747671965141
_cell_length_b       5.322748645458953
_cell_length_c       5.322748212131512
_cell_angle_alpha    59.999992190736265
_cell_angle_beta     59.9999885951277
_cell_angle_gamma    59.999999041058125

_space_group_name_H-M_alt    "P 1"
_space_group_IT_number       1

loop_
  _space_group_symop_operation_xyz
  'x, y, z'

loop_
  _atom_site_type_symbol
  _atom_site_label
  _atom_site_symmetry_multiplicity
  _atom_site_fract_x
  _atom_site_fract_y
  _atom_site_fract_z
  _atom_site_occupancy
  Pb  Pb1       1.0  0.24999957972592665  0.2499994386865201  0.25000067253860464  1.0000
  Pb  Pb2       1.0  0.7499999397107793  0.7499999014233271  0.7500002601938581  1.0000
  Mg  Mg1       1.0  0.9999999527402081  0.9999996341468089  5.033956630445665e-07  1.0000
  O   O1        1.0  0.2691995141264972  0.26919925144671586  0.7308007068267007  1.0000
  O   O2        1.0  0.7308003874722201  0.7308012460477078  0.26919909917389395  1.0000
  O   O3        1.0  0.7308009708620224  0.26919956215522656  0.2691991595229951  1.0000
  O   O4        1.0  0.26919938574048663  0.7308005855928061  0.7308003665227226  1.0000
  O   O5        1.0  0.26919945177893423  0.7308008382004463  0.2691992179963528  1.0000
  O   O6        1.0  0.730800823041659  0.2691995028285163  0.7308000832142616  1.0000
