data_image0
_chemical_formula_structural       Pb2MnS6
_chemical_formula_sum              "Pb2 Mn1 S6"
_cell_length_a       6.508442288542382
_cell_length_b       6.508442569255587
_cell_length_c       6.508442282672394
_cell_angle_alpha    60.00000020416692
_cell_angle_beta     59.999999442251
_cell_angle_gamma    60.00000106258068

_space_group_name_H-M_alt    "P 1"
_space_group_IT_number       1

loop_
  _space_group_symop_operation_xyz
  'x, y, z'

loop_
  _atom_site_type_symbol
  _atom_site_label
  _atom_site_symmetry_multiplicity
  _atom_site_fract_x
  _atom_site_fract_y
  _atom_site_fract_z
  _atom_site_occupancy
  Pb  Pb1       1.0  0.24999997809018976  0.2500000045499031  0.2500000649203728  1.0000
  Pb  Pb2       1.0  0.7500000309176066  0.7500000004772617  0.7499999317727254  1.0000
  Mn  Mn1       1.0  6.750716348364014e-08  2.6344902939715114e-08  0.9999998793236003  1.0000
  S   S1        1.0  0.24173899358860348  0.24173893734777765  0.7582610215408349  1.0000
  S   S2        1.0  0.7582609680919559  0.7582609754722297  0.2417391355709532  1.0000
  S   S3        1.0  0.7582609956318244  0.24173888974257615  0.24173903470920932  1.0000
  S   S4        1.0  0.2417389973193927  0.7582610889396866  0.7582609985492894  1.0000
  S   S5        1.0  0.2417388918475172  0.7582611271165056  0.24173896531914252  1.0000
  S   S6        1.0  0.7582610603502926  0.2417389418911353  0.7582609832311978  1.0000
