data_image0
_chemical_formula_structural       Pb2MnO6
_chemical_formula_sum              "Pb2 Mn1 O6"
_cell_length_a       5.474210288843607
_cell_length_b       5.474210493602093
_cell_length_c       5.474209775499604
_cell_angle_alpha    59.99999171127037
_cell_angle_beta     59.99999382702811
_cell_angle_gamma    60.00000040552519

_space_group_name_H-M_alt    "P 1"
_space_group_IT_number       1

loop_
  _space_group_symop_operation_xyz
  'x, y, z'

loop_
  _atom_site_type_symbol
  _atom_site_label
  _atom_site_symmetry_multiplicity
  _atom_site_fract_x
  _atom_site_fract_y
  _atom_site_fract_z
  _atom_site_occupancy
  Pb  Pb1       1.0  0.25000001395053  0.2500000746233482  0.24999988185944375  1.0000
  Pb  Pb2       1.0  0.7499999622778368  0.7499998614274771  0.7499999780181402  1.0000
  Mn  Mn1       1.0  2.45883388458832e-08  0.999999964203201  5.309967137343304e-08  1.0000
  O   O1        1.0  0.2407997817144618  0.24079972687905996  0.7592002450267911  1.0000
  O   O2        1.0  0.7592002679352042  0.7592002673415317  0.24079982672089656  1.0000
  O   O3        1.0  0.7592001815936356  0.24079987801591196  0.24079986994071184  1.0000
  O   O4        1.0  0.24079987240267728  0.7592001094927825  0.7592001865488721  1.0000
  O   O5        1.0  0.24079980166922743  0.7592001632983268  0.2407999205657197  1.0000
  O   O6        1.0  0.75920009429421  0.24079996292294847  0.759200068860607  1.0000
