data_image0
_chemical_formula_structural       Pb2MoN6
_chemical_formula_sum              "Pb2 Mo1 N6"
_cell_length_a       5.745909645573219
_cell_length_b       5.745909690628472
_cell_length_c       5.745909484896794
_cell_angle_alpha    60.00000242642556
_cell_angle_beta     60.00000029116329
_cell_angle_gamma    60.00000194161682

_space_group_name_H-M_alt    "P 1"
_space_group_IT_number       1

loop_
  _space_group_symop_operation_xyz
  'x, y, z'

loop_
  _atom_site_type_symbol
  _atom_site_label
  _atom_site_symmetry_multiplicity
  _atom_site_fract_x
  _atom_site_fract_y
  _atom_site_fract_z
  _atom_site_occupancy
  Pb  Pb1       1.0  0.25000003512724667  0.24999998856709268  0.24999994362614755  1.0000
  Pb  Pb2       1.0  0.7500000104427202  0.7499999912793668  0.7499999908654422  1.0000
  Mo  Mo1       1.0  2.20847347131419e-08  3.6235622689259905e-08  0.9999998960039751  1.0000
  N   N1        1.0  0.2459482473728609  0.24594813785374758  0.754051816366703  1.0000
  N   N2        1.0  0.7540517540867967  0.7540518718338146  0.24594819835496845  1.0000
  N   N3        1.0  0.7540518720955648  0.24594815175785809  0.24594818370281274  1.0000
  N   N4        1.0  0.24594813845780644  0.7540518728502554  0.754051831194306  1.0000
  N   N5        1.0  0.24594817181648898  0.7540518367696826  0.24594818461683576  1.0000
  N   N6        1.0  0.7540518008191189  0.245948138813763  0.7540518546074446  1.0000
