data_image0
_chemical_formula_structural       Pb2MgSe6
_chemical_formula_sum              "Pb2 Mg1 Se6"
_cell_length_a       6.91094760312134
_cell_length_b       6.910947303562972
_cell_length_c       6.910947633040607
_cell_angle_alpha    59.999999997023735
_cell_angle_beta     59.999999575462994
_cell_angle_gamma    59.99999754508884

_space_group_name_H-M_alt    "P 1"
_space_group_IT_number       1

loop_
  _space_group_symop_operation_xyz
  'x, y, z'

loop_
  _atom_site_type_symbol
  _atom_site_label
  _atom_site_symmetry_multiplicity
  _atom_site_fract_x
  _atom_site_fract_y
  _atom_site_fract_z
  _atom_site_occupancy
  Pb  Pb1       1.0  0.24999997158950454  0.2500000729145848  0.24999990834499933  1.0000
  Pb  Pb2       1.0  0.7499998801938652  0.7499998412692257  0.7500001090380688  1.0000
  Mg  Mg1       1.0  9.668793444285912e-08  4.076015821044504e-08  0.9999998893135466  1.0000
  Se  Se1       1.0  0.268659254613975  0.26865931274502275  0.7313407691496356  1.0000
  Se  Se2       1.0  0.7313406686761618  0.7313406776425692  0.26865937984925725  1.0000
  Se  Se3       1.0  0.7313407096289618  0.2686594130536429  0.2686591954507181  1.0000
  Se  Se4       1.0  0.26865935328387586  0.7313406446768203  0.7313408283606958  1.0000
  Se  Se5       1.0  0.26865937293700076  0.7313406447896401  0.2686591748326872  1.0000
  Se  Se6       1.0  0.7313406906013458  0.26865935091448884  0.7313407436630593  1.0000
