data_image0
_chemical_formula_structural       Pb2NbTe6
_chemical_formula_sum              "Pb2 Nb1 Te6"
_cell_length_a       7.42902316765675
_cell_length_b       7.42902304305181
_cell_length_c       7.429023421413133
_cell_angle_alpha    60.00000065512859
_cell_angle_beta     59.99999833851492
_cell_angle_gamma    60.00000107645911

_space_group_name_H-M_alt    "P 1"
_space_group_IT_number       1

loop_
  _space_group_symop_operation_xyz
  'x, y, z'

loop_
  _atom_site_type_symbol
  _atom_site_label
  _atom_site_symmetry_multiplicity
  _atom_site_fract_x
  _atom_site_fract_y
  _atom_site_fract_z
  _atom_site_occupancy
  Pb  Pb1       1.0  0.25000005548710835  0.24999999532604958  0.2500000061824117  1.0000
  Pb  Pb2       1.0  0.749999917927934  0.7500000321387924  0.749999893593524  1.0000
  Nb  Nb1       1.0  0.9999999584107628  0.9999999802168694  2.89131996962404e-07  1.0000
  Te  Te1       1.0  0.26209793012121074  0.26209792742041077  0.7379020651983915  1.0000
  Te  Te2       1.0  0.7379021188273829  0.7379020786127042  0.26209795155632937  1.0000
  Te  Te3       1.0  0.7379020748408217  0.2620978205028032  0.2620978801652945  1.0000
  Te  Te4       1.0  0.26209803270290616  0.7379020470483476  0.7379020351952844  1.0000
  Te  Te5       1.0  0.26209791175793196  0.7379020631463774  0.26209792878254456  1.0000
  Te  Te6       1.0  0.7379020008962044  0.26209805334258124  0.7379019514774998  1.0000
