data_image0
_chemical_formula_structural       Pb2NiN6
_chemical_formula_sum              "Pb2 Ni1 N6"
_cell_length_a       5.575098081951142
_cell_length_b       5.5750980267874235
_cell_length_c       5.57509784481715
_cell_angle_alpha    59.999999244973985
_cell_angle_beta     60.00000158755498
_cell_angle_gamma    59.999997556891906

_space_group_name_H-M_alt    "P 1"
_space_group_IT_number       1

loop_
  _space_group_symop_operation_xyz
  'x, y, z'

loop_
  _atom_site_type_symbol
  _atom_site_label
  _atom_site_symmetry_multiplicity
  _atom_site_fract_x
  _atom_site_fract_y
  _atom_site_fract_z
  _atom_site_occupancy
  Pb  Pb1       1.0  0.24999995790075502  0.2499999728904973  0.2499999557119134  1.0000
  Pb  Pb2       1.0  0.7500000059593875  0.7500002240285183  0.7499999120011641  1.0000
  Ni  Ni1       1.0  1.3159322761791891e-08  0.9999999978031865  0.9999999945187454  1.0000
  N   N1        1.0  0.24112371426170678  0.2411237012714234  0.7588762255757533  1.0000
  N   N2        1.0  0.7588762966109829  0.7588763111152821  0.24112370551613688  1.0000
  N   N3        1.0  0.758876329297031  0.2411235732915093  0.24112378000908846  1.0000
  N   N4        1.0  0.2411236727921132  0.7588762479724441  0.7588764178491688  1.0000
  N   N5        1.0  0.24112368537994908  0.7588763689350826  0.2411236962602686  1.0000
  N   N6        1.0  0.7588763057645358  0.24112362807392962  0.7588763151637379  1.0000
