data_image0
_chemical_formula_structural       Pb2NiS6
_chemical_formula_sum              "Pb2 Ni1 S6"
_cell_length_a       6.354625132036841
_cell_length_b       6.35462542777136
_cell_length_c       6.354625343313298
_cell_angle_alpha    59.99999963679489
_cell_angle_beta     59.99999902870054
_cell_angle_gamma    60.000001002151286

_space_group_name_H-M_alt    "P 1"
_space_group_IT_number       1

loop_
  _space_group_symop_operation_xyz
  'x, y, z'

loop_
  _atom_site_type_symbol
  _atom_site_label
  _atom_site_symmetry_multiplicity
  _atom_site_fract_x
  _atom_site_fract_y
  _atom_site_fract_z
  _atom_site_occupancy
  Pb  Pb1       1.0  0.24999985887801557  0.24999990233633856  0.25000017765701166  1.0000
  Pb  Pb2       1.0  0.749999902972266  0.7500000635647334  0.7499999318706767  1.0000
  Ni  Ni1       1.0  0.9999999959248923  2.3127938508980705e-08  0.9999999495585051  1.0000
  S   S1        1.0  0.24498128044195103  0.24498117733414343  0.7550187536054878  1.0000
  S   S2        1.0  0.7550188184162837  0.7550188078402121  0.24498122341763248  1.0000
  S   S3        1.0  0.7550187423187531  0.24498118118148876  0.24498135649484715  1.0000
  S   S4        1.0  0.24498133260538302  0.7550187885742408  0.7550186842670287  1.0000
  S   S5        1.0  0.2449812231058569  0.7550187934640209  0.24498118677198003  1.0000
  S   S6        1.0  0.7550188621508552  0.2449812379662115  0.7550187062567164  1.0000
