data_image0
_chemical_formula_structural       Pb2NiTe6
_chemical_formula_sum              "Pb2 Ni1 Te6"
_cell_length_a       7.141444217982956
_cell_length_b       7.141443864080065
_cell_length_c       7.141443998512114
_cell_angle_alpha    59.99999750669867
_cell_angle_beta     59.99999593063662
_cell_angle_gamma    59.99999996922293

_space_group_name_H-M_alt    "P 1"
_space_group_IT_number       1

loop_
  _space_group_symop_operation_xyz
  'x, y, z'

loop_
  _atom_site_type_symbol
  _atom_site_label
  _atom_site_symmetry_multiplicity
  _atom_site_fract_x
  _atom_site_fract_y
  _atom_site_fract_z
  _atom_site_occupancy
  Pb  Pb1       1.0  0.25000003310727237  0.24999987521575678  0.24999980735449098  1.0000
  Pb  Pb2       1.0  0.7500000960653685  0.7499999943684365  0.7500002489308484  1.0000
  Ni  Ni1       1.0  2.1746146348720416e-09  0.9999998576564793  1.3449719843326388e-07  1.0000
  Te  Te1       1.0  0.25478968088702514  0.25478968753736975  0.7452104216243163  1.0000
  Te  Te2       1.0  0.745210176379962  0.7452104787387323  0.25478939822357694  1.0000
  Te  Te3       1.0  0.7452104598495602  0.25478977342607084  0.2547896626899491  1.0000
  Te  Te4       1.0  0.25478953786083774  0.7452102916660865  0.7452103615725322  1.0000
  Te  Te5       1.0  0.2547898418191367  0.7452104641387791  0.25478967747385156  1.0000
  Te  Te6       1.0  0.7452101679773913  0.2547895889485034  0.745210307540245  1.0000
