data_image0
_chemical_formula_structural       Pb2NbO6
_chemical_formula_sum              "Pb2 Nb1 O6"
_cell_length_a       5.786249428794162
_cell_length_b       5.786249058127283
_cell_length_c       5.786249272442238
_cell_angle_alpha    59.99999644879913
_cell_angle_beta     59.99999616960245
_cell_angle_gamma    59.99999353382076

_space_group_name_H-M_alt    "P 1"
_space_group_IT_number       1

loop_
  _space_group_symop_operation_xyz
  'x, y, z'

loop_
  _atom_site_type_symbol
  _atom_site_label
  _atom_site_symmetry_multiplicity
  _atom_site_fract_x
  _atom_site_fract_y
  _atom_site_fract_z
  _atom_site_occupancy
  Pb  Pb1       1.0  0.24999987142247687  0.2499999156280212  0.25000008689437453  1.0000
  Pb  Pb2       1.0  0.7499999592008055  0.7499998675329562  0.7500001436837377  1.0000
  Nb  Nb1       1.0  0.9999997648278882  0.9999996698030058  5.1101042695063446e-08  1.0000
  O   O1        1.0  0.24508746284981292  0.24508724050966663  0.7549127402617681  1.0000
  O   O2        1.0  0.7549128663640285  0.7549128728482979  0.24508709838960546  1.0000
  O   O3        1.0  0.7549127218831067  0.2450874645657129  0.24508716557154595  1.0000
  O   O4        1.0  0.24508726878169446  0.7549128562237152  0.754912640129215  1.0000
  O   O5        1.0  0.24508733599184915  0.7549128351656164  0.2450872101095802  1.0000
  O   O6        1.0  0.7549126850323369  0.24508735862496236  0.7549127182250303  1.0000
