data_image0
_chemical_formula_structural       Pb2OsN6
_chemical_formula_sum              "Pb2 Os1 N6"
_cell_length_a       5.696203243609917
_cell_length_b       5.696203418262191
_cell_length_c       5.696203975011892
_cell_angle_alpha    59.99999674736967
_cell_angle_beta     59.99999666964784
_cell_angle_gamma    60.00000080553831

_space_group_name_H-M_alt    "P 1"
_space_group_IT_number       1

loop_
  _space_group_symop_operation_xyz
  'x, y, z'

loop_
  _atom_site_type_symbol
  _atom_site_label
  _atom_site_symmetry_multiplicity
  _atom_site_fract_x
  _atom_site_fract_y
  _atom_site_fract_z
  _atom_site_occupancy
  Pb  Pb1       1.0  0.24999986877776706  0.24999979207153994  0.2500002401760066  1.0000
  Pb  Pb2       1.0  0.74999991708622  0.7500001954055372  0.7500000186228052  1.0000
  Os  Os1       1.0  0.9999999761872732  0.9999999376468856  4.3082920450596286e-08  1.0000
  N   N1        1.0  0.24037058291360316  0.24037072545964894  0.7596293009199101  1.0000
  N   N2        1.0  0.7596294288026725  0.7596292534170059  0.24037060698636478  1.0000
  N   N3        1.0  0.7596293832590434  0.24037056900503745  0.24037068620579397  1.0000
  N   N4        1.0  0.24037068589168398  0.7596294808251618  0.7596292645953449  1.0000
  N   N5        1.0  0.2403707360906754  0.7596293644830272  0.24037056097572873  1.0000
  N   N6        1.0  0.7596293938953701  0.24037064879534864  0.759629340817006  1.0000
