data_image0
_chemical_formula_structural       Pb2PdO6
_chemical_formula_sum              "Pb2 Pd1 O6"
_cell_length_a       5.681729760584089
_cell_length_b       5.681729750117796
_cell_length_c       5.6817295731324435
_cell_angle_alpha    60.00000358206086
_cell_angle_beta     60.00000162987673
_cell_angle_gamma    60.00000079523454

_space_group_name_H-M_alt    "P 1"
_space_group_IT_number       1

loop_
  _space_group_symop_operation_xyz
  'x, y, z'

loop_
  _atom_site_type_symbol
  _atom_site_label
  _atom_site_symmetry_multiplicity
  _atom_site_fract_x
  _atom_site_fract_y
  _atom_site_fract_z
  _atom_site_occupancy
  Pb  Pb1       1.0  0.2500000363543323  0.249999993189275  0.24999997759076464  1.0000
  Pb  Pb2       1.0  0.7500000228855495  0.7499999515452285  0.7499999898723151  1.0000
  Pd  Pd1       1.0  2.053455865576562e-09  0.9999999633550677  1.4401771375498593e-07  1.0000
  O   O1        1.0  0.23689380228009108  0.23689383133379618  0.7631061793739561  1.0000
  O   O2        1.0  0.7631061960504789  0.7631062168687612  0.23689375272953478  1.0000
  O   O3        1.0  0.7631062831002575  0.23689384274672975  0.23689365222263647  1.0000
  O   O4        1.0  0.23689363810486763  0.7631062356340117  0.7631063244748144  1.0000
  O   O5        1.0  0.2368937684733908  0.7631062322615407  0.23689359606256102  1.0000
  O   O6        1.0  0.7631062563405935  0.23689370600621046  0.7631064164872277  1.0000
