data_image0
_chemical_formula_structural       Pb2PdS6
_chemical_formula_sum              "Pb2 Pd1 S6"
_cell_length_a       6.474726634327529
_cell_length_b       6.4747261306946005
_cell_length_c       6.474726570757648
_cell_angle_alpha    59.999997812941096
_cell_angle_beta     59.99999943754211
_cell_angle_gamma    59.99999936678563

_space_group_name_H-M_alt    "P 1"
_space_group_IT_number       1

loop_
  _space_group_symop_operation_xyz
  'x, y, z'

loop_
  _atom_site_type_symbol
  _atom_site_label
  _atom_site_symmetry_multiplicity
  _atom_site_fract_x
  _atom_site_fract_y
  _atom_site_fract_z
  _atom_site_occupancy
  Pb  Pb1       1.0  0.24999995295551936  0.25000009774252396  0.2500000046934327  1.0000
  Pb  Pb2       1.0  0.749999998302411  0.7499999016709431  0.7500000258501444  1.0000
  Pd  Pd1       1.0  2.449770398516989e-08  8.701258541596326e-08  0.9999999905788581  1.0000
  S   S1        1.0  0.2581117681042073  0.25811187651920353  0.7418881543375  1.0000
  S   S2        1.0  0.7418881757512775  0.7418880434479902  0.25811191190810256  1.0000
  S   S3        1.0  0.741888101489538  0.2581119291408274  0.2581118578152501  1.0000
  S   S4        1.0  0.25811202783919185  0.7418879908263702  0.7418880631818567  1.0000
  S   S5        1.0  0.2581118689051562  0.741888073989547  0.2581119159621505  1.0000
  S   S6        1.0  0.741888135295204  0.258111985954415  0.7418880655672977  1.0000
