data_image0
_chemical_formula_structural       Pb2PdN6
_chemical_formula_sum              "Pb2 Pd1 N6"
_cell_length_a       5.687798645845096
_cell_length_b       5.687798507579747
_cell_length_c       5.687798727037695
_cell_angle_alpha    59.99999886806392
_cell_angle_beta     59.999999532038245
_cell_angle_gamma    59.99999904317395

_space_group_name_H-M_alt    "P 1"
_space_group_IT_number       1

loop_
  _space_group_symop_operation_xyz
  'x, y, z'

loop_
  _atom_site_type_symbol
  _atom_site_label
  _atom_site_symmetry_multiplicity
  _atom_site_fract_x
  _atom_site_fract_y
  _atom_site_fract_z
  _atom_site_occupancy
  Pb  Pb1       1.0  0.250000402732509  0.2500000460108024  0.24999969969012587  1.0000
  Pb  Pb2       1.0  0.7500003054026989  0.7500001057331376  0.7499997881442524  1.0000
  Pd  Pd1       1.0  2.030136111766082e-08  6.043027313874557e-17  1.4463411210335113e-08  1.0000
  N   N1        1.0  0.2478355507620855  0.24783568572974915  0.7521643245344102  1.0000
  N   N2        1.0  0.7521643146203386  0.752164478933897  0.24783535668968049  1.0000
  N   N3        1.0  0.7521643881051169  0.24783539944413302  0.24783584124462413  1.0000
  N   N4        1.0  0.2478355259269389  0.752164272117342  0.7521644929523424  1.0000
  N   N5        1.0  0.24783531034656703  0.7521643402049109  0.24783594368258183  1.0000
  N   N6        1.0  0.7521641835034464  0.2478356478893992  0.7521645654094476  1.0000
