data_image0
_chemical_formula_structural       Pb2PN6
_chemical_formula_sum              "Pb2 P1 N6"
_cell_length_a       5.576086328772915
_cell_length_b       5.576086807607948
_cell_length_c       5.576086741494022
_cell_angle_alpha    59.999998417091085
_cell_angle_beta     59.99999768014756
_cell_angle_gamma    60.000004558826724

_space_group_name_H-M_alt    "P 1"
_space_group_IT_number       1

loop_
  _space_group_symop_operation_xyz
  'x, y, z'

loop_
  _atom_site_type_symbol
  _atom_site_label
  _atom_site_symmetry_multiplicity
  _atom_site_fract_x
  _atom_site_fract_y
  _atom_site_fract_z
  _atom_site_occupancy
  Pb  Pb1       1.0  0.2500000825963075  0.25000000803755673  0.2500000102415872  1.0000
  Pb  Pb2       1.0  0.7499999191800335  0.7499999538271112  0.749999715474111  1.0000
  P   P1        1.0  0.9999999202218508  0.9999999846250293  1.2469157283125307e-07  1.0000
  N   N1        1.0  0.23059978819024798  0.2306001941718578  0.769400010713056  1.0000
  N   N2        1.0  0.7694000989164046  0.7693998445676209  0.23060012664863283  1.0000
  N   N3        1.0  0.769400071532567  0.2306000487900959  0.23060012126336682  1.0000
  N   N4        1.0  0.23059997860450981  0.7693999108781372  0.7694001731830692  1.0000
  N   N5        1.0  0.23059995503120728  0.7694001472391457  0.2306001055829022  1.0000
  N   N6        1.0  0.7694001042647272  0.2305999837501297  0.7693999946079827  1.0000
