data_image0
_chemical_formula_structural       Pb2PtO6
_chemical_formula_sum              "Pb2 Pt1 O6"
_cell_length_a       5.663533199030825
_cell_length_b       5.6635336624808
_cell_length_c       5.663533475205448
_cell_angle_alpha    59.999999315939284
_cell_angle_beta     59.9999995934875
_cell_angle_gamma    60.00000044463435

_space_group_name_H-M_alt    "P 1"
_space_group_IT_number       1

loop_
  _space_group_symop_operation_xyz
  'x, y, z'

loop_
  _atom_site_type_symbol
  _atom_site_label
  _atom_site_symmetry_multiplicity
  _atom_site_fract_x
  _atom_site_fract_y
  _atom_site_fract_z
  _atom_site_occupancy
  Pb  Pb1       1.0  0.25000013612488087  0.25000016158259886  0.24999973042370507  1.0000
  Pb  Pb2       1.0  0.7499999233266992  0.7499999397952501  0.7499999534668648  1.0000
  Pt  Pt1       1.0  0.9999999996501909  0.9999999826999193  8.824945130035018e-09  1.0000
  O   O1        1.0  0.24176812982083762  0.24176820211847824  0.7582318620839146  1.0000
  O   O2        1.0  0.7582318457311732  0.7582318084339393  0.2417682393517195  1.0000
  O   O3        1.0  0.7582318294208342  0.24176815151588305  0.24176820409637603  1.0000
  O   O4        1.0  0.24176823003438735  0.7582317357734601  0.7582318640487278  1.0000
  O   O5        1.0  0.24176814367132612  0.7582318047626636  0.24176822458993708  1.0000
  O   O6        1.0  0.7582317841429836  0.24176821443979557  0.7582318593102007  1.0000
