data_image0
_chemical_formula_structural       Pb2PtN6
_chemical_formula_sum              "Pb2 Pt1 N6"
_cell_length_a       5.626012846086832
_cell_length_b       5.626012898261385
_cell_length_c       5.626012840902663
_cell_angle_alpha    59.99999900526732
_cell_angle_beta     59.999999640694135
_cell_angle_gamma    60.00000065795727

_space_group_name_H-M_alt    "P 1"
_space_group_IT_number       1

loop_
  _space_group_symop_operation_xyz
  'x, y, z'

loop_
  _atom_site_type_symbol
  _atom_site_label
  _atom_site_symmetry_multiplicity
  _atom_site_fract_x
  _atom_site_fract_y
  _atom_site_fract_z
  _atom_site_occupancy
  Pb  Pb1       1.0  0.250000009588061  0.24999998587060576  0.2499999278390541  1.0000
  Pb  Pb2       1.0  0.7499998486055026  0.7500000055043229  0.7499999403005938  1.0000
  Pt  Pt1       1.0  0.9999999973464253  0.9999999956461354  1.0613550593906949e-08  1.0000
  N   N1        1.0  0.2512514213999192  0.2512512122309532  0.748748681532214  1.0000
  N   N2        1.0  0.7487486505382319  0.7487486920666856  0.2512513596756631  1.0000
  N   N3        1.0  0.7487487018761603  0.25125133263256044  0.2512513419023778  1.0000
  N   N4        1.0  0.25125141421947556  0.7487486239114517  0.748748707982217  1.0000
  N   N5        1.0  0.2512512944351474  0.7487487613067058  0.2512513704022727  1.0000
  N   N6        1.0  0.7487486549332408  0.25125139986893336  0.7487486783047083  1.0000
