data_image0
_chemical_formula_structural       Pb2PtSe6
_chemical_formula_sum              "Pb2 Pt1 Se6"
_cell_length_a       6.797398911471585
_cell_length_b       6.79739859813788
_cell_length_c       6.797398874026736
_cell_angle_alpha    59.99999945454457
_cell_angle_beta     59.99999857923273
_cell_angle_gamma    59.99999833567573

_space_group_name_H-M_alt    "P 1"
_space_group_IT_number       1

loop_
  _space_group_symop_operation_xyz
  'x, y, z'

loop_
  _atom_site_type_symbol
  _atom_site_label
  _atom_site_symmetry_multiplicity
  _atom_site_fract_x
  _atom_site_fract_y
  _atom_site_fract_z
  _atom_site_occupancy
  Pb  Pb1       1.0  0.25000000507118686  0.2499999537334038  0.25000004305298834  1.0000
  Pb  Pb2       1.0  0.7500000093929879  0.7500000774143752  0.7499999386354139  1.0000
  Pt  Pt1       1.0  0.9999999066370497  5.58553255788555e-08  0.9999999643212276  1.0000
  Se  Se1       1.0  0.25733046178401403  0.2573303799962694  0.7426695813637642  1.0000
  Se  Se2       1.0  0.7426696317318804  0.7426696331336622  0.25733036980770113  1.0000
  Se  Se3       1.0  0.7426696199261816  0.25733034354419404  0.2573303904827953  1.0000
  Se  Se4       1.0  0.2573303734848474  0.7426696335500439  0.7426696214031957  1.0000
  Se  Se5       1.0  0.2573303431350542  0.7426695595582157  0.2573304664537878  1.0000
  Se  Se6       1.0  0.742669658101388  0.25733036348248167  0.7426696215077014  1.0000
