data_image0
_chemical_formula_structural       Pb2RhN6
_chemical_formula_sum              "Pb2 Rh1 N6"
_cell_length_a       5.638384739005214
_cell_length_b       5.638384899141918
_cell_length_c       5.638384398188458
_cell_angle_alpha    60.000000905271214
_cell_angle_beta     60.00000423590538
_cell_angle_gamma    60.00000016299175

_space_group_name_H-M_alt    "P 1"
_space_group_IT_number       1

loop_
  _space_group_symop_operation_xyz
  'x, y, z'

loop_
  _atom_site_type_symbol
  _atom_site_label
  _atom_site_symmetry_multiplicity
  _atom_site_fract_x
  _atom_site_fract_y
  _atom_site_fract_z
  _atom_site_occupancy
  Pb  Pb1       1.0  0.2499999176115591  0.24999993634479592  0.25000022786479176  1.0000
  Pb  Pb2       1.0  0.7500000504443058  0.749999917642169  0.750000097397213  1.0000
  Rh  Rh1       1.0  0.9999999443332663  1.954939955166807e-08  4.111491575457014e-08  1.0000
  N   N1        1.0  0.24756023113624484  0.2475603423984373  0.7524396447642664  1.0000
  N   N2        1.0  0.7524396912830282  0.752439685360976  0.24756032911346126  1.0000
  N   N3        1.0  0.752439601995477  0.24756047446626284  0.2475602294949017  1.0000
  N   N4        1.0  0.24756037699909234  0.7524396293185928  0.7524396390641873  1.0000
  N   N5        1.0  0.24756038071698583  0.7524395778884706  0.24756025084711858  1.0000
  N   N6        1.0  0.7524397797588224  0.24756042380507579  0.7524395319045104  1.0000
