data_image0
_chemical_formula_structural       Pb2ReN6
_chemical_formula_sum              "Pb2 Re1 N6"
_cell_length_a       5.84788155438843
_cell_length_b       5.847881901297549
_cell_length_c       5.847881725353274
_cell_angle_alpha    59.999999656672195
_cell_angle_beta     60.00000056415682
_cell_angle_gamma    59.99999907444586

_space_group_name_H-M_alt    "P 1"
_space_group_IT_number       1

loop_
  _space_group_symop_operation_xyz
  'x, y, z'

loop_
  _atom_site_type_symbol
  _atom_site_label
  _atom_site_symmetry_multiplicity
  _atom_site_fract_x
  _atom_site_fract_y
  _atom_site_fract_z
  _atom_site_occupancy
  Pb  Pb1       1.0  0.24999997386527226  0.2499999844140104  0.24999997972615706  1.0000
  Pb  Pb2       1.0  0.7500001044908859  0.7500000265438961  0.7500001000735385  1.0000
  Re  Re1       1.0  0.9999999735128019  8.377357772251564e-09  3.9248570564150184e-09  1.0000
  N   N1        1.0  0.23693697976793276  0.23693697695238747  0.7630630535598065  1.0000
  N   N2        1.0  0.7630629991209013  0.7630631073073992  0.23693687687062287  1.0000
  N   N3        1.0  0.7630630360166827  0.23693700506656176  0.2369369354400499  1.0000
  N   N4        1.0  0.23693690713157964  0.7630630205517261  0.763063030211269  1.0000
  N   N5        1.0  0.2369369141659814  0.763063010636374  0.23693703005000463  1.0000
  N   N6        1.0  0.7630631174201189  0.23693693330268026  0.7630629219618884  1.0000
