data_image0
_chemical_formula_structural       Pb2SO6
_chemical_formula_sum              "Pb2 S1 O6"
_cell_length_a       5.353122491533164
_cell_length_b       5.3531226377638115
_cell_length_c       5.353122593620447
_cell_angle_alpha    60.000001143576355
_cell_angle_beta     60.00000373822558
_cell_angle_gamma    60.00000058865912

_space_group_name_H-M_alt    "P 1"
_space_group_IT_number       1

loop_
  _space_group_symop_operation_xyz
  'x, y, z'

loop_
  _atom_site_type_symbol
  _atom_site_label
  _atom_site_symmetry_multiplicity
  _atom_site_fract_x
  _atom_site_fract_y
  _atom_site_fract_z
  _atom_site_occupancy
  Pb  Pb1       1.0  0.2499999341428387  0.2500000071495133  0.2500000080926003  1.0000
  Pb  Pb2       1.0  0.7500000136035802  0.7499999573871311  0.7500000478605447  1.0000
  S   S1        1.0  8.26449589197624e-08  0.9999999267869638  0.9999999971521094  1.0000
  O   O1        1.0  0.22415206605361743  0.22415219241486242  0.7758478957785402  1.0000
  O   O2        1.0  0.7758478929565922  0.7758478224557434  0.22415217607744362  1.0000
  O   O3        1.0  0.775847806440704  0.2241521533105645  0.22415212335703993  1.0000
  O   O4        1.0  0.22415227236296573  0.775847838680967  0.77584780290219  1.0000
  O   O5        1.0  0.2241521369742252  0.7758478354794787  0.22415209494766714  1.0000
  O   O6        1.0  0.7758478306193195  0.22415225717997717  0.7758478646036883  1.0000
