data_image0
_chemical_formula_structural       Pb2ScTe6
_chemical_formula_sum              "Pb2 Sc1 Te6"
_cell_length_a       7.482777265723316
_cell_length_b       7.482776930041518
_cell_length_c       7.482777470636036
_cell_angle_alpha    59.99999828408918
_cell_angle_beta     59.9999999635801
_cell_angle_gamma    60.0000083540446

_space_group_name_H-M_alt    "P 1"
_space_group_IT_number       1

loop_
  _space_group_symop_operation_xyz
  'x, y, z'

loop_
  _atom_site_type_symbol
  _atom_site_label
  _atom_site_symmetry_multiplicity
  _atom_site_fract_x
  _atom_site_fract_y
  _atom_site_fract_z
  _atom_site_occupancy
  Pb  Pb1       1.0  0.24999965951006592  0.24999994626146313  0.2500003636970502  1.0000
  Pb  Pb2       1.0  0.7500000575276174  0.7500000368314755  0.7499998525243343  1.0000
  Sc  Sc1       1.0  0.9999998951597951  0.9999999950897325  0.9999999720183014  1.0000
  Te  Te1       1.0  0.26906438487872586  0.26906327729228113  0.7309361532582839  1.0000
  Te  Te2       1.0  0.730935705926128  0.7309367696340198  0.2690638842549024  1.0000
  Te  Te3       1.0  0.7309366593578148  0.269063870201361  0.2690639227866601  1.0000
  Te  Te4       1.0  0.2690633013709414  0.730936173451421  0.7309360611251384  1.0000
  Te  Te5       1.0  0.26906344723055836  0.7309360061282851  0.26906436131059575  1.0000
  Te  Te6       1.0  0.7309368802851849  0.26906392786216793  0.7309354419191911  1.0000
