data_image0
_chemical_formula_structural       Pb2SnO6
_chemical_formula_sum              "Pb2 Sn1 O6"
_cell_length_a       5.738070391540486
_cell_length_b       5.738070289456318
_cell_length_c       5.738070492122438
_cell_angle_alpha    60.000001804461604
_cell_angle_beta     60.0000009732901
_cell_angle_gamma    60.000001210111904

_space_group_name_H-M_alt    "P 1"
_space_group_IT_number       1

loop_
  _space_group_symop_operation_xyz
  'x, y, z'

loop_
  _atom_site_type_symbol
  _atom_site_label
  _atom_site_symmetry_multiplicity
  _atom_site_fract_x
  _atom_site_fract_y
  _atom_site_fract_z
  _atom_site_occupancy
  Pb  Pb1       1.0  0.24999991547776046  0.24999996714205136  0.2500000574712872  1.0000
  Pb  Pb2       1.0  0.749999925797502  0.7499998523345041  0.7499999312602208  1.0000
  Sn  Sn1       1.0  0.9999999431659248  2.5613029046211664e-08  0.9999998953610417  1.0000
  O   O1        1.0  0.25205869983039336  0.25205883133938894  0.7479412548661072  1.0000
  O   O2        1.0  0.7479412527308689  0.7479411674284051  0.2520589249267849  1.0000
  O   O3        1.0  0.7479413445292254  0.2520586967121698  0.252058750493234  1.0000
  O   O4        1.0  0.2520588398394245  0.7479412465607187  0.7479412487778753  1.0000
  O   O5        1.0  0.2520588911555106  0.7479411900710647  0.2520587079371515  1.0000
  O   O6        1.0  0.7479411854773209  0.25205898585353625  0.7479412149340456  1.0000
