data_image0
_chemical_formula_structural       Pb2SN6
_chemical_formula_sum              "Pb2 S1 N6"
_cell_length_a       5.395183497717931
_cell_length_b       5.395183609118519
_cell_length_c       5.395181178123403
_cell_angle_alpha    59.99999456356991
_cell_angle_beta     60.00000045292402
_cell_angle_gamma    59.99999245238626

_space_group_name_H-M_alt    "P 1"
_space_group_IT_number       1

loop_
  _space_group_symop_operation_xyz
  'x, y, z'

loop_
  _atom_site_type_symbol
  _atom_site_label
  _atom_site_symmetry_multiplicity
  _atom_site_fract_x
  _atom_site_fract_y
  _atom_site_fract_z
  _atom_site_occupancy
  Pb  Pb1       1.0  0.2500000454189111  0.24999944294771131  0.24999992834438134  1.0000
  Pb  Pb2       1.0  0.7500002478635379  0.7500001834909498  0.749999695295368  1.0000
  S   S1        1.0  1.1474958875087957e-07  1.1804362037966356e-07  2.3762298710549328e-07  1.0000
  N   N1        1.0  0.23042751877355125  0.23042804919666654  0.769572153252833  1.0000
  N   N2        1.0  0.7695723246383145  0.7695720857378219  0.23042798229797762  1.0000
  N   N3        1.0  0.7695721286908335  0.23042796992512973  0.2304280469342071  1.0000
  N   N4        1.0  0.23042823550846037  0.7695724646586942  0.769571687665651  1.0000
  N   N5        1.0  0.2304275435185231  0.7695722930640613  0.23042824384646368  1.0000
  N   N6        1.0  0.7695721602174996  0.23042772155668173  0.7695719790685392  1.0000
