data_image0
_chemical_formula_structural       Pb2SiN6
_chemical_formula_sum              "Pb2 Si1 N6"
_cell_length_a       5.639621826120973
_cell_length_b       5.639622531974506
_cell_length_c       5.639622110043357
_cell_angle_alpha    60.000000561276856
_cell_angle_beta     60.00000887161736
_cell_angle_gamma    60.000004441224775

_space_group_name_H-M_alt    "P 1"
_space_group_IT_number       1

loop_
  _space_group_symop_operation_xyz
  'x, y, z'

loop_
  _atom_site_type_symbol
  _atom_site_label
  _atom_site_symmetry_multiplicity
  _atom_site_fract_x
  _atom_site_fract_y
  _atom_site_fract_z
  _atom_site_occupancy
  Pb  Pb1       1.0  0.24999988531883935  0.24999986589109618  0.25000020717781374  1.0000
  Pb  Pb2       1.0  0.7499999606934954  0.7499999733737334  0.7500000454833448  1.0000
  Si  Si1       1.0  0.9999999427984294  0.9999997784887765  0.9999999443078661  1.0000
  N   N1        1.0  0.23012340365829792  0.23012388596180236  0.76987635954068  1.0000
  N   N2        1.0  0.7698761544114584  0.7698767372790718  0.23012350502340378  1.0000
  N   N3        1.0  0.7698765313361916  0.23012348499995874  0.23012347114288056  1.0000
  N   N4        1.0  0.23012396068572002  0.7698764063851761  0.7698762675487217  1.0000
  N   N5        1.0  0.23012378348795753  0.7698761333784815  0.23012370769410995  1.0000
  N   N6        1.0  0.7698763191228082  0.23012359947408864  0.7698764893788378  1.0000
