data_image0
_chemical_formula_structural       Pb2SeS6
_chemical_formula_sum              "Pb2 Se1 S6"
_cell_length_a       6.603134487869282
_cell_length_b       6.603134364565219
_cell_length_c       6.6031344039959885
_cell_angle_alpha    60.000000838455456
_cell_angle_beta     59.999999903342264
_cell_angle_gamma    59.99999982267444

_space_group_name_H-M_alt    "P 1"
_space_group_IT_number       1

loop_
  _space_group_symop_operation_xyz
  'x, y, z'

loop_
  _atom_site_type_symbol
  _atom_site_label
  _atom_site_symmetry_multiplicity
  _atom_site_fract_x
  _atom_site_fract_y
  _atom_site_fract_z
  _atom_site_occupancy
  Pb  Pb1       1.0  0.2499999796780152  0.25000000117032956  0.2500000147974169  1.0000
  Pb  Pb2       1.0  0.7500000207296997  0.7499999682699182  0.7500000363092814  1.0000
  Se  Se1       1.0  0.9999999881832988  0.9999999777424825  6.85278072848734e-08  1.0000
  S   S1        1.0  0.2458197785691943  0.24581986618898558  0.7541801991822714  1.0000
  S   S2        1.0  0.7541802121220452  0.7541801848621618  0.24581977811640796  1.0000
  S   S3        1.0  0.7541802151930993  0.24581982775601732  0.24581976984707565  1.0000
  S   S4        1.0  0.24581985652405405  0.7541801008787784  0.754180164540665  1.0000
  S   S5        1.0  0.2458197858189534  0.7541802107676054  0.24581983836946109  1.0000
  S   S6        1.0  0.7541801693675836  0.2458198681054397  0.7541801351984597  1.0000
