data_image0
_chemical_formula_structural       Pb2SnTe6
_chemical_formula_sum              "Pb2 Sn1 Te6"
_cell_length_a       7.559925696751106
_cell_length_b       7.559925904121825
_cell_length_c       7.559925618663553
_cell_angle_alpha    59.99999998053883
_cell_angle_beta     60.00000032356566
_cell_angle_gamma    60.00000137970289

_space_group_name_H-M_alt    "P 1"
_space_group_IT_number       1

loop_
  _space_group_symop_operation_xyz
  'x, y, z'

loop_
  _atom_site_type_symbol
  _atom_site_label
  _atom_site_symmetry_multiplicity
  _atom_site_fract_x
  _atom_site_fract_y
  _atom_site_fract_z
  _atom_site_occupancy
  Pb  Pb1       1.0  0.2500000163410661  0.24999983128738104  0.25000012807653915  1.0000
  Pb  Pb2       1.0  0.7500000748113604  0.7499999571960911  0.7500001052766854  1.0000
  Sn  Sn1       1.0  0.9999999981337873  0.9999999643589272  1.346258577786408e-08  1.0000
  Te  Te1       1.0  0.2712055545977904  0.2712057216057949  0.7287943462101759  1.0000
  Te  Te2       1.0  0.7287944106990593  0.7287944994307001  0.2712055023105626  1.0000
  Te  Te3       1.0  0.7287943350953076  0.27120566303254573  0.27120556877870566  1.0000
  Te  Te4       1.0  0.2712055884853998  0.7287944494606824  0.7287942913790502  1.0000
  Te  Te5       1.0  0.2712056512937306  0.7287943895876562  0.2712056568354632  1.0000
  Te  Te6       1.0  0.7287943619746369  0.2712055317398164  0.7287943929515975  1.0000
