data_image0
_chemical_formula_structural       Pb2SrTe6
_chemical_formula_sum              "Pb2 Sr1 Te6"
_cell_length_a       7.9020909625236895
_cell_length_b       7.902091084332673
_cell_length_c       7.902091002507852
_cell_angle_alpha    60.00000060447575
_cell_angle_beta     60.00000088830173
_cell_angle_gamma    60.00000144565092

_space_group_name_H-M_alt    "P 1"
_space_group_IT_number       1

loop_
  _space_group_symop_operation_xyz
  'x, y, z'

loop_
  _atom_site_type_symbol
  _atom_site_label
  _atom_site_symmetry_multiplicity
  _atom_site_fract_x
  _atom_site_fract_y
  _atom_site_fract_z
  _atom_site_occupancy
  Pb  Pb1       1.0  0.2499999957438596  0.2499999279677062  0.2500000265546525  1.0000
  Pb  Pb2       1.0  0.7499999607616216  0.750000073734362  0.7499999986028278  1.0000
  Sr  Sr1       1.0  0.9999999975941134  0.9999999984501003  0.9999999171902084  1.0000
  Te  Te1       1.0  0.28887104866984836  0.2888709239936072  0.7111290301478324  1.0000
  Te  Te2       1.0  0.7111289465805168  0.7111291149060541  0.28887095956938535  1.0000
  Te  Te3       1.0  0.7111291024012316  0.2888709200035905  0.28887099741719446  1.0000
  Te  Te4       1.0  0.28887090197125165  0.7111291002972744  0.7111290425959242  1.0000
  Te  Te5       1.0  0.28887096301908133  0.7111290790292714  0.2888709724075476  1.0000
  Te  Te6       1.0  0.7111290823142906  0.2888708622267093  0.711129057541349  1.0000
