data_image0
_chemical_formula_structural       Pb2SeN6
_chemical_formula_sum              "Pb2 Se1 N6"
_cell_length_a       5.584153475700609
_cell_length_b       5.584153279126282
_cell_length_c       5.584153432512173
_cell_angle_alpha    60.00000043695065
_cell_angle_beta     60.00000150688461
_cell_angle_gamma    60.000000198552456

_space_group_name_H-M_alt    "P 1"
_space_group_IT_number       1

loop_
  _space_group_symop_operation_xyz
  'x, y, z'

loop_
  _atom_site_type_symbol
  _atom_site_label
  _atom_site_symmetry_multiplicity
  _atom_site_fract_x
  _atom_site_fract_y
  _atom_site_fract_z
  _atom_site_occupancy
  Pb  Pb1       1.0  0.250000020664259  0.2499998471886307  0.2500001003025198  1.0000
  Pb  Pb2       1.0  0.7500000840863702  0.7499998288817472  0.7500000065218626  1.0000
  Se  Se1       1.0  0.9999999710720893  0.9999999627147359  1.8780332849485918e-08  1.0000
  N   N1        1.0  0.2388307849131352  0.2388310165459783  0.7611691088797355  1.0000
  N   N2        1.0  0.7611690907611555  0.7611691420395778  0.23883089092382886  1.0000
  N   N3        1.0  0.7611691602710879  0.23883094764854074  0.23883080977124202  1.0000
  N   N4        1.0  0.23883088571676767  0.7611691714585005  0.761169052983529  1.0000
  N   N5        1.0  0.2388309002023213  0.7611691330613303  0.238830883288086  1.0000
  N   N6        1.0  0.7611690909579606  0.23883093340769193  0.761169103039968  1.0000
