data_image0
_chemical_formula_structural       Pb2SnSe6
_chemical_formula_sum              "Pb2 Sn1 Se6"
_cell_length_a       7.025385380223547
_cell_length_b       7.025385138668148
_cell_length_c       7.025385189902904
_cell_angle_alpha    60.00000040423406
_cell_angle_beta     60.00000088366191
_cell_angle_gamma    59.999999680106725

_space_group_name_H-M_alt    "P 1"
_space_group_IT_number       1

loop_
  _space_group_symop_operation_xyz
  'x, y, z'

loop_
  _atom_site_type_symbol
  _atom_site_label
  _atom_site_symmetry_multiplicity
  _atom_site_fract_x
  _atom_site_fract_y
  _atom_site_fract_z
  _atom_site_occupancy
  Pb  Pb1       1.0  0.2500000807371574  0.2499999450619348  0.24999996197025398  1.0000
  Pb  Pb2       1.0  0.7500000064257727  0.7499999607043771  0.7500000292957149  1.0000
  Sn  Sn1       1.0  0.99999990843915  3.486627348530462e-09  7.81989393135792e-08  1.0000
  Se  Se1       1.0  0.2662219910080852  0.26622208399490904  0.7337779723263506  1.0000
  Se  Se2       1.0  0.7337779978001004  0.7337780379422767  0.2662219657251926  1.0000
  Se  Se3       1.0  0.7337779839750046  0.2662220154941668  0.2662219743109186  1.0000
  Se  Se4       1.0  0.2662221021254187  0.7337778885288311  0.7337779372236194  1.0000
  Se  Se5       1.0  0.2662220078343876  0.7337780088607903  0.26622208901265915  1.0000
  Se  Se6       1.0  0.7337779217382896  0.2662220590336778  0.7337779882357478  1.0000
