data_image0
_chemical_formula_structural       Pb2SnN6
_chemical_formula_sum              "Pb2 Sn1 N6"
_cell_length_a       5.771169947062471
_cell_length_b       5.771169836953139
_cell_length_c       5.771170104116817
_cell_angle_alpha    59.99999957061438
_cell_angle_beta     60.00000056894574
_cell_angle_gamma    60.00000017814825

_space_group_name_H-M_alt    "P 1"
_space_group_IT_number       1

loop_
  _space_group_symop_operation_xyz
  'x, y, z'

loop_
  _atom_site_type_symbol
  _atom_site_label
  _atom_site_symmetry_multiplicity
  _atom_site_fract_x
  _atom_site_fract_y
  _atom_site_fract_z
  _atom_site_occupancy
  Pb  Pb1       1.0  0.24999997963978907  0.2499999854093497  0.2499999786578204  1.0000
  Pb  Pb2       1.0  0.7500000025394814  0.7500000474816977  0.749999965967135  1.0000
  Sn  Sn1       1.0  1.2126219940082682e-08  0.9999999936334666  9.249412865981264e-09  1.0000
  N   N1        1.0  0.2604892415106441  0.2604891203591157  0.7395108268789317  1.0000
  N   N2        1.0  0.739510825937098  0.7395108127895742  0.2604892185515135  1.0000
  N   N3        1.0  0.7395108208908814  0.2604891856940582  0.26048921652377593  1.0000
  N   N4        1.0  0.26048918600548304  0.7395108450748118  0.7395107653207457  1.0000
  N   N5        1.0  0.26048916027762253  0.7395107929400342  0.26048920202482134  1.0000
  N   N6        1.0  0.7395107635349204  0.2604892229735903  0.7395108166599765  1.0000
