data_image0
_chemical_formula_structural       Pb2ScS6
_chemical_formula_sum              "Pb2 Sc1 S6"
_cell_length_a       6.603974996538552
_cell_length_b       6.603974954969469
_cell_length_c       6.60397476604011
_cell_angle_alpha    60.000000884321395
_cell_angle_beta     60.00000048089624
_cell_angle_gamma    60.00000066643215

_space_group_name_H-M_alt    "P 1"
_space_group_IT_number       1

loop_
  _space_group_symop_operation_xyz
  'x, y, z'

loop_
  _atom_site_type_symbol
  _atom_site_label
  _atom_site_symmetry_multiplicity
  _atom_site_fract_x
  _atom_site_fract_y
  _atom_site_fract_z
  _atom_site_occupancy
  Pb  Pb1       1.0  0.2500000206371931  0.24999986147261674  0.25000004952653226  1.0000
  Pb  Pb2       1.0  0.7499998966074767  0.7500001537668772  0.7499999117296249  1.0000
  Sc  Sc1       1.0  2.0521267387312457e-08  8.530962637737195e-08  0.9999999622269488  1.0000
  S   S1        1.0  0.2660720283205795  0.2660719382489752  0.7339280249208623  1.0000
  S   S2        1.0  0.7339279324788844  0.73392799353545  0.26607203805436935  1.0000
  S   S3        1.0  0.7339280829910012  0.2660718946251746  0.26607200173233675  1.0000
  S   S4        1.0  0.266071983830164  0.7339280705412787  0.7339280142546236  1.0000
  S   S5        1.0  0.26607197505408064  0.7339280696792949  0.2660719809360888  1.0000
  S   S6        1.0  0.7339280499789806  0.2660719474147567  0.7339280148387286  1.0000
