data_image0
_chemical_formula_structural       Pb2SrO6
_chemical_formula_sum              "Pb2 Sr1 O6"
_cell_length_a       5.7515960344787125
_cell_length_b       5.75159621442812
_cell_length_c       5.751596414906297
_cell_angle_alpha    59.99999665177502
_cell_angle_beta     60.00000009174148
_cell_angle_gamma    59.99999837841367

_space_group_name_H-M_alt    "P 1"
_space_group_IT_number       1

loop_
  _space_group_symop_operation_xyz
  'x, y, z'

loop_
  _atom_site_type_symbol
  _atom_site_label
  _atom_site_symmetry_multiplicity
  _atom_site_fract_x
  _atom_site_fract_y
  _atom_site_fract_z
  _atom_site_occupancy
  Pb  Pb1       1.0  0.24999989586765214  0.24999989697871405  0.25000003115614444  1.0000
  Pb  Pb2       1.0  0.7500000924456365  0.7500000784869416  0.7499998154997392  1.0000
  Sr  Sr1       1.0  0.9999998636419903  1.3202280164427863e-07  3.172461073743383e-08  1.0000
  O   O1        1.0  0.29264701944799315  0.2926470353398229  0.7073530380086444  1.0000
  O   O2        1.0  0.7073530119368502  0.7073529976196237  0.2926470487187358  1.0000
  O   O3        1.0  0.7073530894375766  0.29264688032337377  0.29264710356181006  1.0000
  O   O4        1.0  0.29264702247822144  0.707352965248875  0.7073528731608103  1.0000
  O   O5        1.0  0.29264691864592196  0.7073530494116392  0.2926471234227588  1.0000
  O   O6        1.0  0.707353084044256  0.292646979289009  0.7073529293605689  1.0000
