data_image0
_chemical_formula_structural       Pb2TiTe6
_chemical_formula_sum              "Pb2 Ti1 Te6"
_cell_length_a       7.356677388159984
_cell_length_b       7.356677415560947
_cell_length_c       7.356677746607491
_cell_angle_alpha    59.99999932225873
_cell_angle_beta     59.99999994472344
_cell_angle_gamma    59.999998249311254

_space_group_name_H-M_alt    "P 1"
_space_group_IT_number       1

loop_
  _space_group_symop_operation_xyz
  'x, y, z'

loop_
  _atom_site_type_symbol
  _atom_site_label
  _atom_site_symmetry_multiplicity
  _atom_site_fract_x
  _atom_site_fract_y
  _atom_site_fract_z
  _atom_site_occupancy
  Pb  Pb1       1.0  0.2500001533500967  0.2499998942613674  0.25000001284138573  1.0000
  Pb  Pb2       1.0  0.7500001262076827  0.7500002887738948  0.7499995571860186  1.0000
  Ti  Ti1       1.0  1.515735218543887e-08  0.9999999733630859  0.9999999867094517  1.0000
  Te  Te1       1.0  0.26137063350086037  0.2613704433855207  0.7386294653348553  1.0000
  Te  Te2       1.0  0.7386293611224292  0.7386295914819146  0.261370714084072  1.0000
  Te  Te3       1.0  0.7386293961652203  0.26137032979093083  0.26137068343271436  1.0000
  Te  Te4       1.0  0.2613704744628515  0.738629540260602  0.7386294174650561  1.0000
  Te  Te5       1.0  0.26137031791633814  0.7386295636529264  0.2613706178889989  1.0000
  Te  Te6       1.0  0.7386295217468823  0.2613703663316633  0.7386295555204596  1.0000
