data_image0
_chemical_formula_structural       Pb2TiSe6
_chemical_formula_sum              "Pb2 Ti1 Se6"
_cell_length_a       6.865408635267573
_cell_length_b       6.86540871587892
_cell_length_c       6.865408784313909
_cell_angle_alpha    59.99999884053763
_cell_angle_beta     59.999998675581146
_cell_angle_gamma    60.00000325395343

_space_group_name_H-M_alt    "P 1"
_space_group_IT_number       1

loop_
  _space_group_symop_operation_xyz
  'x, y, z'

loop_
  _atom_site_type_symbol
  _atom_site_label
  _atom_site_symmetry_multiplicity
  _atom_site_fract_x
  _atom_site_fract_y
  _atom_site_fract_z
  _atom_site_occupancy
  Pb  Pb1       1.0  0.25000002585951836  0.2500000658576393  0.24999990596022514  1.0000
  Pb  Pb2       1.0  0.7499999918391016  0.7499999603094467  0.750000010474115  1.0000
  Ti  Ti1       1.0  0.9999999791028963  3.746265131132783e-08  4.7067171287357435e-08  1.0000
  Se  Se1       1.0  0.25522075927637283  0.2552207418418419  0.7447792562388071  1.0000
  Se  Se2       1.0  0.7447792516275854  0.744779229023232  0.25522076844247815  1.0000
  Se  Se3       1.0  0.7447791910108779  0.25522077927818065  0.25522083978743104  1.0000
  Se  Se4       1.0  0.2552208220005935  0.7447791398527545  0.7447791732927297  1.0000
  Se  Se5       1.0  0.2552208261913829  0.7447791665271247  0.2552208525077784  1.0000
  Se  Se6       1.0  0.744779149255416  0.2552208703435737  0.7447791452466538  1.0000
