data_image0
_chemical_formula_structural       Pb2TaN6
_chemical_formula_sum              "Pb2 Ta1 N6"
_cell_length_a       5.7641885962839625
_cell_length_b       5.7641885166073985
_cell_length_c       5.764188516324871
_cell_angle_alpha    59.99999920574265
_cell_angle_beta     59.99999947393919
_cell_angle_gamma    59.99999854497825

_space_group_name_H-M_alt    "P 1"
_space_group_IT_number       1

loop_
  _space_group_symop_operation_xyz
  'x, y, z'

loop_
  _atom_site_type_symbol
  _atom_site_label
  _atom_site_symmetry_multiplicity
  _atom_site_fract_x
  _atom_site_fract_y
  _atom_site_fract_z
  _atom_site_occupancy
  Pb  Pb1       1.0  0.2500000391139833  0.24999994026730915  0.250000116559047  1.0000
  Pb  Pb2       1.0  0.7499999937664367  0.7499999631600558  0.7500000765886983  1.0000
  Ta  Ta1       1.0  2.5962194651551488e-08  0.9999999341328071  4.5975242969772386e-08  1.0000
  N   N1        1.0  0.2569869234465127  0.2569869869877668  0.7430129795072015  1.0000
  N   N2        1.0  0.74301319055258  0.7430130396749918  0.25698679225118726  1.0000
  N   N3        1.0  0.7430130349277367  0.256986988439392  0.2569869339814304  1.0000
  N   N4        1.0  0.2569868284833232  0.7430131529597674  0.7430131468468666  1.0000
  N   N5        1.0  0.2569869209759288  0.7430131002924792  0.2569868090811945  1.0000
  N   N6        1.0  0.7430130734368421  0.25698689449905776  0.7430130869817553  1.0000
