data_image0
_chemical_formula_structural       Pb2TiS6
_chemical_formula_sum              "Pb2 Ti1 S6"
_cell_length_a       6.48620778014988
_cell_length_b       6.486207743697849
_cell_length_c       6.48620771725886
_cell_angle_alpha    59.999998278964604
_cell_angle_beta     59.999998297199326
_cell_angle_gamma    59.99999956074884

_space_group_name_H-M_alt    "P 1"
_space_group_IT_number       1

loop_
  _space_group_symop_operation_xyz
  'x, y, z'

loop_
  _atom_site_type_symbol
  _atom_site_label
  _atom_site_symmetry_multiplicity
  _atom_site_fract_x
  _atom_site_fract_y
  _atom_site_fract_z
  _atom_site_occupancy
  Pb  Pb1       1.0  0.24999993586512834  0.25000003870214266  0.2500000194735897  1.0000
  Pb  Pb2       1.0  0.7500001428236025  0.7499999008482666  0.7499999814766768  1.0000
  Ti  Ti1       1.0  1.1881023359647559e-07  0.9999998999238372  0.9999999644235045  1.0000
  S   S1        1.0  0.25483952517885056  0.2548395435247498  0.7451604493488472  1.0000
  S   S2        1.0  0.7451604290349592  0.7451605130958888  0.25483951213524336  1.0000
  S   S3        1.0  0.7451604483217906  0.25483957579067723  0.25483951919616454  1.0000
  S   S4        1.0  0.25483943338654863  0.7451605488062223  0.7451605154722455  1.0000
  S   S5        1.0  0.2548394856492478  0.7451604647376747  0.25483954897159705  1.0000
  S   S6        1.0  0.7451604775028162  0.2548395276831599  0.7451604894787228  1.0000
