data_image0
_chemical_formula_structural       Pb2TiN6
_chemical_formula_sum              "Pb2 Ti1 N6"
_cell_length_a       5.607236214512671
_cell_length_b       5.607236207409311
_cell_length_c       5.607236224651587
_cell_angle_alpha    59.999998738101226
_cell_angle_beta     59.99999527769741
_cell_angle_gamma    59.9999979688693

_space_group_name_H-M_alt    "P 1"
_space_group_IT_number       1

loop_
  _space_group_symop_operation_xyz
  'x, y, z'

loop_
  _atom_site_type_symbol
  _atom_site_label
  _atom_site_symmetry_multiplicity
  _atom_site_fract_x
  _atom_site_fract_y
  _atom_site_fract_z
  _atom_site_occupancy
  Pb  Pb1       1.0  0.24999984615304377  0.2500000888753741  0.24999989088089983  1.0000
  Pb  Pb2       1.0  0.749999981984162  0.7499999739403693  0.7500000181077588  1.0000
  Ti  Ti1       1.0  0.9999998388745879  2.621066557213141e-08  9.95587550315001e-08  1.0000
  N   N1        1.0  0.26218478958842706  0.26218475177287004  0.7378152526205939  1.0000
  N   N2        1.0  0.7378153737585659  0.737815262989988  0.26218485163746347  1.0000
  N   N3        1.0  0.7378152107629806  0.26218480430754554  0.2621846998866712  1.0000
  N   N4        1.0  0.26218484171347833  0.7378152650608629  0.7378151721260513  1.0000
  N   N5        1.0  0.26218489401568784  0.7378151690150058  0.2621846956295417  1.0000
  N   N6        1.0  0.7378152419394454  0.26218466227320125  0.7378153143198767  1.0000
