data_image0
_chemical_formula_structural       Pb2TiO6
_chemical_formula_sum              "Pb2 Ti1 O6"
_cell_length_a       5.686859096629346
_cell_length_b       5.686859548260046
_cell_length_c       5.686858941620732
_cell_angle_alpha    60.00000344319817
_cell_angle_beta     60.00000271815369
_cell_angle_gamma    60.000000961187745

_space_group_name_H-M_alt    "P 1"
_space_group_IT_number       1

loop_
  _space_group_symop_operation_xyz
  'x, y, z'

loop_
  _atom_site_type_symbol
  _atom_site_label
  _atom_site_symmetry_multiplicity
  _atom_site_fract_x
  _atom_site_fract_y
  _atom_site_fract_z
  _atom_site_occupancy
  Pb  Pb1       1.0  0.25000004243869717  0.25000007590317974  0.24999984020900715  1.0000
  Pb  Pb2       1.0  0.7500001314229262  0.7499999412754164  0.749999776089263  1.0000
  Ti  Ti1       1.0  0.9999999011650009  0.9999998944716441  0.9999998647922819  1.0000
  O   O1        1.0  0.23887134436117635  0.23887141535589443  0.7611286106722089  1.0000
  O   O2        1.0  0.7611286649900033  0.761128675046463  0.23887153835726876  1.0000
  O   O3        1.0  0.7611286114066238  0.23887132060240737  0.23887142709274736  1.0000
  O   O4        1.0  0.23887132884875367  0.7611286664252315  0.7611288028966698  1.0000
  O   O5        1.0  0.23887130149881394  0.7611285736026974  0.2388714761743001  1.0000
  O   O6        1.0  0.7611285698437014  0.23887140696402376  0.7611287510578871  1.0000
