data_image0
_chemical_formula_structural       Pb2VO6
_chemical_formula_sum              "Pb2 V1 O6"
_cell_length_a       5.7330396948130025
_cell_length_b       5.733040102665079
_cell_length_c       5.733039231940211
_cell_angle_alpha    60.00000240882372
_cell_angle_beta     60.00000571039054
_cell_angle_gamma    60.000002252699694

_space_group_name_H-M_alt    "P 1"
_space_group_IT_number       1

loop_
  _space_group_symop_operation_xyz
  'x, y, z'

loop_
  _atom_site_type_symbol
  _atom_site_label
  _atom_site_symmetry_multiplicity
  _atom_site_fract_x
  _atom_site_fract_y
  _atom_site_fract_z
  _atom_site_occupancy
  Pb  Pb1       1.0  0.2500000353491006  0.2499999614810526  0.25000007286059567  1.0000
  Pb  Pb2       1.0  0.7500001661844825  0.7499999698948516  0.749999913798705  1.0000
  V   V1        1.0  1.6489936205301853e-07  0.9999996261488722  2.1087670091051665e-07  1.0000
  O   O1        1.0  0.23107318602986568  0.23107359994687646  0.7689265603187846  1.0000
  O   O2        1.0  0.7689264478824486  0.7689267351882487  0.23107343675622277  1.0000
  O   O3        1.0  0.7689265043004926  0.23107346770038228  0.2310733968105613  1.0000
  O   O4        1.0  0.23107327532287272  0.768926690122499  0.7689265166413443  1.0000
  O   O5        1.0  0.23107342005279027  0.7689265327976194  0.231073515964649  1.0000
  O   O6        1.0  0.7689266344084266  0.23107347121222074  0.7689264590741476  1.0000
