data_image0
_chemical_formula_structural       Pb2VN6
_chemical_formula_sum              "Pb2 V1 N6"
_cell_length_a       5.653281501645896
_cell_length_b       5.653281715601868
_cell_length_c       5.653281534727573
_cell_angle_alpha    59.999998779736465
_cell_angle_beta     59.999999436058616
_cell_angle_gamma    59.999997899355066

_space_group_name_H-M_alt    "P 1"
_space_group_IT_number       1

loop_
  _space_group_symop_operation_xyz
  'x, y, z'

loop_
  _atom_site_type_symbol
  _atom_site_label
  _atom_site_symmetry_multiplicity
  _atom_site_fract_x
  _atom_site_fract_y
  _atom_site_fract_z
  _atom_site_occupancy
  Pb  Pb1       1.0  0.24999993526682307  0.24999994100944786  0.2500000431721524  1.0000
  Pb  Pb2       1.0  0.7500000246981332  0.7500000548365306  0.7500000456742575  1.0000
  V   V1        1.0  0.9999999770365519  2.5997181724245575e-08  0.9999999825631756  1.0000
  N   N1        1.0  0.24500635573571228  0.24500633409113357  0.7549936493453405  1.0000
  N   N2        1.0  0.7549936624927124  0.7549936769198676  0.24500632318703747  1.0000
  N   N3        1.0  0.7549936399799629  0.24500630479755814  0.24500640458513606  1.0000
  N   N4        1.0  0.24500633032155103  0.7549936845491263  0.7549936222005816  1.0000
  N   N5        1.0  0.24500635705997645  0.7549936406817308  0.24500637074814074  1.0000
  N   N6        1.0  0.7549936986349008  0.24500640499217677  0.7549935851772823  1.0000
