data_image0
_chemical_formula_structural       Pb2VS6
_chemical_formula_sum              "Pb2 V1 S6"
_cell_length_a       6.460828531431869
_cell_length_b       6.460828754536574
_cell_length_c       6.460828322055042
_cell_angle_alpha    60.00000067711863
_cell_angle_beta     59.99999996935472
_cell_angle_gamma    59.99999892042763

_space_group_name_H-M_alt    "P 1"
_space_group_IT_number       1

loop_
  _space_group_symop_operation_xyz
  'x, y, z'

loop_
  _atom_site_type_symbol
  _atom_site_label
  _atom_site_symmetry_multiplicity
  _atom_site_fract_x
  _atom_site_fract_y
  _atom_site_fract_z
  _atom_site_occupancy
  Pb  Pb1       1.0  0.2500000162547176  0.24999991135464159  0.2500000511698392  1.0000
  Pb  Pb2       1.0  0.7500000047832316  0.74999997860235  0.7499999758413054  1.0000
  V   V1        1.0  0.9999999943316608  0.9999999848348268  0.999999996486654  1.0000
  S   S1        1.0  0.24758750178350616  0.24758756545917984  0.7524124781466888  1.0000
  S   S2        1.0  0.7524124295829634  0.7524124970016622  0.24758755542973304  1.0000
  S   S3        1.0  0.752412467523961  0.24758752712060147  0.24758753018067786  1.0000
  S   S4        1.0  0.2475875508934539  0.752412531548946  0.7524123983065624  1.0000
  S   S5        1.0  0.24758753820491847  0.7524125060166609  0.24758754088124066  1.0000
  S   S6        1.0  0.7524125089352377  0.24758751473995136  0.7524124525648737  1.0000
