data_image0
_chemical_formula_structural       Pb2VTe6
_chemical_formula_sum              "Pb2 V1 Te6"
_cell_length_a       7.254415118791084
_cell_length_b       7.254416113481799
_cell_length_c       7.254415214100541
_cell_angle_alpha    60.00000439110388
_cell_angle_beta     59.99999776052754
_cell_angle_gamma    60.00000534732132

_space_group_name_H-M_alt    "P 1"
_space_group_IT_number       1

loop_
  _space_group_symop_operation_xyz
  'x, y, z'

loop_
  _atom_site_type_symbol
  _atom_site_label
  _atom_site_symmetry_multiplicity
  _atom_site_fract_x
  _atom_site_fract_y
  _atom_site_fract_z
  _atom_site_occupancy
  Pb  Pb1       1.0  0.2499996115913681  0.2500004055932116  0.25000008406662355  1.0000
  Pb  Pb2       1.0  0.7500001481597472  0.7499998695363688  0.749999629518181  1.0000
  V   V1        1.0  0.9999999295283666  1.0636131056676773e-07  0.9999999958398712  1.0000
  Te  Te1       1.0  0.25923443529592927  0.25923490918307607  0.7407652814947372  1.0000
  Te  Te2       1.0  0.7407656455719783  0.7407649421895423  0.2592349121145853  1.0000
  Te  Te3       1.0  0.7407654904619467  0.25923464855289424  0.2592347245136503  1.0000
  Te  Te4       1.0  0.25923474541535496  0.7407651150294381  0.740765475461771  1.0000
  Te  Te5       1.0  0.2592345299005913  0.7407650476962642  0.259234873620571  1.0000
  Te  Te6       1.0  0.7407654264405982  0.25923496237417953  0.740765040993736  1.0000
