data_image0
_chemical_formula_structural       Pb2WN6
_chemical_formula_sum              "Pb2 W1 N6"
_cell_length_a       5.753413056176609
_cell_length_b       5.753413123772996
_cell_length_c       5.753413047147779
_cell_angle_alpha    60.000000851580154
_cell_angle_beta     60.00000211819331
_cell_angle_gamma    60.000000652116015

_space_group_name_H-M_alt    "P 1"
_space_group_IT_number       1

loop_
  _space_group_symop_operation_xyz
  'x, y, z'

loop_
  _atom_site_type_symbol
  _atom_site_label
  _atom_site_symmetry_multiplicity
  _atom_site_fract_x
  _atom_site_fract_y
  _atom_site_fract_z
  _atom_site_occupancy
  Pb  Pb1       1.0  0.2500000746761219  0.2500000071887279  0.24999992662686876  1.0000
  Pb  Pb2       1.0  0.7500000478208256  0.7499999300309024  0.74999996068068  1.0000
  W   W1        1.0  1.6417527970460372e-09  1.9158547141036803e-08  4.695710871995401e-08  1.0000
  N   N1        1.0  0.24512500145243044  0.24512507920503798  0.7548749838753693  1.0000
  N   N2        1.0  0.7548749306627653  0.754874983609514  0.24512505054010925  1.0000
  N   N3        1.0  0.7548749211221278  0.24512508453857912  0.2451250363544535  1.0000
  N   N4        1.0  0.24512503945606842  0.7548749591174255  0.7548749603849227  1.0000
  N   N5        1.0  0.24512502976838638  0.7548748840882175  0.2451250584987212  1.0000
  N   N6        1.0  0.7548749721878079  0.24512505951759544  0.7548749606243571  1.0000
