data_image0
_chemical_formula_structural       Pb2YTe6
_chemical_formula_sum              "Pb2 Y1 Te6"
_cell_length_a       7.709560154416367
_cell_length_b       7.709560049617228
_cell_length_c       7.709560298966314
_cell_angle_alpha    59.9999989471622
_cell_angle_beta     59.999998561920314
_cell_angle_gamma    59.999998337255526

_space_group_name_H-M_alt    "P 1"
_space_group_IT_number       1

loop_
  _space_group_symop_operation_xyz
  'x, y, z'

loop_
  _atom_site_type_symbol
  _atom_site_label
  _atom_site_symmetry_multiplicity
  _atom_site_fract_x
  _atom_site_fract_y
  _atom_site_fract_z
  _atom_site_occupancy
  Pb  Pb1       1.0  0.24999993462959144  0.25000007398278923  0.2500000707762007  1.0000
  Pb  Pb2       1.0  0.7500000285853595  0.7500000106638444  0.7500000486745788  1.0000
  Y   Y1        1.0  3.675569341516876e-09  4.2892346344128684e-08  0.9999999767160421  1.0000
  Te  Te1       1.0  0.2767001059655778  0.27670007969054705  0.7232998861750558  1.0000
  Te  Te2       1.0  0.7232999413234334  0.7232998111462241  0.27670012471017935  1.0000
  Te  Te3       1.0  0.7232998187582305  0.27670016610655485  0.2767000843036299  1.0000
  Te  Te4       1.0  0.27670008135386165  0.7232999550780033  0.7232998590543556  1.0000
  Te  Te5       1.0  0.2767001519565204  0.7232997947509169  0.27670011787408283  1.0000
  Te  Te6       1.0  0.723299932882722  0.27670006431374533  0.723299833050094  1.0000
