data_image0
_chemical_formula_structural       Pb2YO6
_chemical_formula_sum              "Pb2 Y1 O6"
_cell_length_a       5.614265861512878
_cell_length_b       5.614266304176251
_cell_length_c       5.61426610867716
_cell_angle_alpha    60.00000196158133
_cell_angle_beta     59.99999922773778
_cell_angle_gamma    60.000001305965235

_space_group_name_H-M_alt    "P 1"
_space_group_IT_number       1

loop_
  _space_group_symop_operation_xyz
  'x, y, z'

loop_
  _atom_site_type_symbol
  _atom_site_label
  _atom_site_symmetry_multiplicity
  _atom_site_fract_x
  _atom_site_fract_y
  _atom_site_fract_z
  _atom_site_occupancy
  Pb  Pb1       1.0  0.249999967454793  0.25000044053207904  0.2499998871148472  1.0000
  Pb  Pb2       1.0  0.7499998062798529  0.7500001043265501  0.7499999421933559  1.0000
  Y   Y1        1.0  0.9999998604313105  1.2870772854633324e-07  9.62704924185883e-08  1.0000
  O   O1        1.0  0.2787703057672749  0.27877022862664197  0.7212297611221442  1.0000
  O   O2        1.0  0.7212298596724108  0.7212295483485981  0.2787703471152424  1.0000
  O   O3        1.0  0.7212297903297085  0.27877020326992497  0.2787701943303528  1.0000
  O   O4        1.0  0.27877040502698835  0.7212295148051676  0.7212297805609356  1.0000
  O   O5        1.0  0.2787702483386722  0.7212297104029292  0.2787702299912367  1.0000
  O   O6        1.0  0.721229783121504  0.27877015383178694  0.7212297608932071  1.0000
