data_image0
_chemical_formula_structural       Pb2YSe6
_chemical_formula_sum              "Pb2 Y1 Se6"
_cell_length_a       7.197463439072485
_cell_length_b       7.197463425459009
_cell_length_c       7.1974636414566255
_cell_angle_alpha    60.00000042032112
_cell_angle_beta     59.99999905410013
_cell_angle_gamma    60.00000081978584

_space_group_name_H-M_alt    "P 1"
_space_group_IT_number       1

loop_
  _space_group_symop_operation_xyz
  'x, y, z'

loop_
  _atom_site_type_symbol
  _atom_site_label
  _atom_site_symmetry_multiplicity
  _atom_site_fract_x
  _atom_site_fract_y
  _atom_site_fract_z
  _atom_site_occupancy
  Pb  Pb1       1.0  0.24999980358310736  0.2499999418290536  0.250000252098073  1.0000
  Pb  Pb2       1.0  0.7500001457512012  0.7499999258835662  0.7499998328613664  1.0000
  Y   Y1        1.0  5.414077333988161e-08  4.9347388347734934e-08  3.1618619356675206e-08  1.0000
  Se  Se1       1.0  0.27216891851345854  0.2721690541607355  0.7278309371401191  1.0000
  Se  Se2       1.0  0.7278310369599941  0.7278309684005801  0.27216907844042854  1.0000
  Se  Se3       1.0  0.7278310517154383  0.272168979750691  0.2721689797843415  1.0000
  Se  Se4       1.0  0.2721690012320159  0.727831063230233  0.7278309198848899  1.0000
  Se  Se5       1.0  0.2721689211338506  0.7278309572092497  0.27216905987674733  1.0000
  Se  Se6       1.0  0.7278310772835576  0.2721690568438958  0.7278309051408277  1.0000
