data_image0
_chemical_formula_structural       Pb2ZnO6
_chemical_formula_sum              "Pb2 Zn1 O6"
_cell_length_a       5.348205681134762
_cell_length_b       5.348205498006197
_cell_length_c       5.3482053259999525
_cell_angle_alpha    60.00000091271306
_cell_angle_beta     60.00000235753206
_cell_angle_gamma    59.99999981555421

_space_group_name_H-M_alt    "P 1"
_space_group_IT_number       1

loop_
  _space_group_symop_operation_xyz
  'x, y, z'

loop_
  _atom_site_type_symbol
  _atom_site_label
  _atom_site_symmetry_multiplicity
  _atom_site_fract_x
  _atom_site_fract_y
  _atom_site_fract_z
  _atom_site_occupancy
  Pb  Pb1       1.0  0.24999998352426087  0.2500000279124074  0.24999997878090852  1.0000
  Pb  Pb2       1.0  0.7499999858621945  0.7499998936663199  0.7500001408789261  1.0000
  Zn  Zn1       1.0  2.3072159446482115e-08  7.328034742543215e-08  6.047543524959365e-09  1.0000
  O   O1        1.0  0.26084334358555783  0.26084347087992343  0.739156552399152  1.0000
  O   O2        1.0  0.7391566253855215  0.7391565102390867  0.26084337502683813  1.0000
  O   O3        1.0  0.7391567478156532  0.2608432948601544  0.26084335231359207  1.0000
  O   O4        1.0  0.2608433467952858  0.7391566267185725  0.7391565701094015  1.0000
  O   O5        1.0  0.26084332822353357  0.7391566736294423  0.2608433641175543  1.0000
  O   O6        1.0  0.7391566032355381  0.26084338763994785  0.7391567214887154  1.0000
