data_image0
_chemical_formula_structural       Pb2ZnTe6
_chemical_formula_sum              "Pb2 Zn1 Te6"
_cell_length_a       7.298728174774245
_cell_length_b       7.298728442380384
_cell_length_c       7.2987285892991896
_cell_angle_alpha    59.99999673448429
_cell_angle_beta     59.99999645347174
_cell_angle_gamma    59.999997139302785

_space_group_name_H-M_alt    "P 1"
_space_group_IT_number       1

loop_
  _space_group_symop_operation_xyz
  'x, y, z'

loop_
  _atom_site_type_symbol
  _atom_site_label
  _atom_site_symmetry_multiplicity
  _atom_site_fract_x
  _atom_site_fract_y
  _atom_site_fract_z
  _atom_site_occupancy
  Pb  Pb1       1.0  0.2499998214370978  0.2499999016770485  0.2500001749564622  1.0000
  Pb  Pb2       1.0  0.7500002519151854  0.7499999953294728  0.7499997310793566  1.0000
  Zn  Zn1       1.0  1.863374469283374e-08  0.9999999630834441  2.1054634696618245e-07  1.0000
  Te  Te1       1.0  0.2656827056663888  0.2656829602787963  0.7343171585548546  1.0000
  Te  Te2       1.0  0.7343172490287736  0.7343171028522013  0.26568293200273374  1.0000
  Te  Te3       1.0  0.7343174500310571  0.26568264531176644  0.2656829265580205  1.0000
  Te  Te4       1.0  0.2656826768397346  0.7343172382705536  0.734316967651254  1.0000
  Te  Te5       1.0  0.26568245807289204  0.7343173296730758  0.2656830647252085  1.0000
  Te  Te6       1.0  0.7343173812417011  0.2656828660219062  0.7343168267965433  1.0000
