data_image0
_chemical_formula_structural       Pb2ZrN6
_chemical_formula_sum              "Pb2 Zr1 N6"
_cell_length_a       5.833549113918411
_cell_length_b       5.833549391500736
_cell_length_c       5.833549452165499
_cell_angle_alpha    59.999996827421434
_cell_angle_beta     59.99999976315714
_cell_angle_gamma    59.99999890045382

_space_group_name_H-M_alt    "P 1"
_space_group_IT_number       1

loop_
  _space_group_symop_operation_xyz
  'x, y, z'

loop_
  _atom_site_type_symbol
  _atom_site_label
  _atom_site_symmetry_multiplicity
  _atom_site_fract_x
  _atom_site_fract_y
  _atom_site_fract_z
  _atom_site_occupancy
  Pb  Pb1       1.0  0.2500000296460545  0.249999951362949  0.25000001314189435  1.0000
  Pb  Pb2       1.0  0.7499999802693651  0.7499999128744276  0.750000012940623  1.0000
  Zr  Zr1       1.0  0.9999999544734913  6.874773234761263e-17  2.447747593608103e-08  1.0000
  N   N1        1.0  0.266096437868851  0.26609642489896734  0.7339035419384163  1.0000
  N   N2        1.0  0.7339034592164663  0.7339036471874225  0.2660963286386409  1.0000
  N   N3        1.0  0.7339036001330955  0.2660964450989218  0.2660964162433349  1.0000
  N   N4        1.0  0.2660965019330571  0.7339035346101201  0.7339036637364249  1.0000
  N   N5        1.0  0.2660964720823189  0.7339035231896961  0.2660964527067347  1.0000
  N   N6        1.0  0.7339035630816584  0.26609657409050463  0.7339035453691972  1.0000
