data_image0
_chemical_formula_structural       Pd2AuSe6
_chemical_formula_sum              "Pd2 Au1 Se6"
_cell_length_a       6.493849860872401
_cell_length_b       6.49384949691001
_cell_length_c       6.4938496319400025
_cell_angle_alpha    60.00000055990726
_cell_angle_beta     59.999999372232885
_cell_angle_gamma    59.999997565811135

_space_group_name_H-M_alt    "P 1"
_space_group_IT_number       1

loop_
  _space_group_symop_operation_xyz
  'x, y, z'

loop_
  _atom_site_type_symbol
  _atom_site_label
  _atom_site_symmetry_multiplicity
  _atom_site_fract_x
  _atom_site_fract_y
  _atom_site_fract_z
  _atom_site_occupancy
  Pd  Pd1       1.0  0.24999983925768515  0.24999948712276285  0.2500004934700836  1.0000
  Pd  Pd2       1.0  0.7500000569352588  0.7500001512309779  0.7499998176867824  1.0000
  Au  Au1       1.0  0.9999999984899204  7.921231525360411e-08  0.9999999919472554  1.0000
  Se  Se1       1.0  0.2915038902966457  0.29150384518158845  0.7084961677168843  1.0000
  Se  Se2       1.0  0.7084961606625633  0.7084960383531237  0.29150397426473623  1.0000
  Se  Se3       1.0  0.708496165962194  0.2915036612390009  0.2915039857493943  1.0000
  Se  Se4       1.0  0.2915038672832378  0.7084964674766812  0.7084958469289669  1.0000
  Se  Se5       1.0  0.29150372471975317  0.708496432347554  0.2915037672653554  1.0000
  Se  Se6       1.0  0.7084963041588282  0.29150383216066655  0.7084959535026042  1.0000
