data_image0
_chemical_formula_structural       Pd2AuO6
_chemical_formula_sum              "Pd2 Au1 O6"
_cell_length_a       5.331549768583589
_cell_length_b       5.33154995296156
_cell_length_c       5.33154985554708
_cell_angle_alpha    59.999999564672244
_cell_angle_beta     59.99999789987256
_cell_angle_gamma    60.00000088294159

_space_group_name_H-M_alt    "P 1"
_space_group_IT_number       1

loop_
  _space_group_symop_operation_xyz
  'x, y, z'

loop_
  _atom_site_type_symbol
  _atom_site_label
  _atom_site_symmetry_multiplicity
  _atom_site_fract_x
  _atom_site_fract_y
  _atom_site_fract_z
  _atom_site_occupancy
  Pd  Pd1       1.0  0.24999993259395903  0.25000021485031515  0.2499997511004489  1.0000
  Pd  Pd2       1.0  0.7499999511477085  0.7500000220192911  0.7500006864100508  1.0000
  Au  Au1       1.0  4.3075542116219115e-08  0.999999974731188  1.3604161207588195e-08  1.0000
  O   O1        1.0  0.2637058517521411  0.2637058619338488  0.7362942719794574  1.0000
  O   O2        1.0  0.7362941952382854  0.7362940671156861  0.26370547818767726  1.0000
  O   O3        1.0  0.7362941817646044  0.26370601964563584  0.26370563833392185  1.0000
  O   O4        1.0  0.263705680672105  0.7362940472337818  0.736294300250326  1.0000
  O   O5        1.0  0.2637060592521567  0.7362941487953046  0.2637056199948254  1.0000
  O   O6        1.0  0.7362941180159106  0.26370564931584006  0.7362942242840443  1.0000
