data_image0
_chemical_formula_structural       Pd2BeSe6
_chemical_formula_sum              "Pd2 Be1 Se6"
_cell_length_a       7.536660553875663
_cell_length_b       6.17093261304649
_cell_length_c       6.16750185692961
_cell_angle_alpha    62.24375212163022
_cell_angle_beta     84.45819447252101
_cell_angle_gamma    66.05326115086008

_space_group_name_H-M_alt    "P 1"
_space_group_IT_number       1

loop_
  _space_group_symop_operation_xyz
  'x, y, z'

loop_
  _atom_site_type_symbol
  _atom_site_label
  _atom_site_symmetry_multiplicity
  _atom_site_fract_x
  _atom_site_fract_y
  _atom_site_fract_z
  _atom_site_occupancy
  Pd  Pd1       1.0  0.5012444260558812  0.037280774504631096  0.06946188028318019  1.0000
  Pd  Pd2       1.0  0.6268182584173739  0.8539403100618087  0.5671964142460519  1.0000
  Be  Be1       1.0  0.9277573837606006  0.004028264885932818  0.11179046687036778  1.0000
  Se  Se1       1.0  0.3398934173016263  0.1181189431219688  0.7004651331865891  1.0000
  Se  Se2       1.0  0.8333995370893197  0.6840461384319421  0.29819516313224664  1.0000
  Se  Se3       1.0  0.6556525688650824  0.27068247207333357  0.24900544432945898  1.0000
  Se  Se4       1.0  0.19422190894950914  0.8041025527323538  0.920557031571866  1.0000
  Se  Se5       1.0  0.2443916556469647  0.8668415883202122  0.26158285409083953  1.0000
  Se  Se6       1.0  0.6767233456059598  0.3609996576024069  0.8215854126992163  1.0000
