data_image0
_chemical_formula_structural       Pd2BeS6
_chemical_formula_sum              "Pd2 Be1 S6"
_cell_length_a       5.748760411948609
_cell_length_b       5.748760728025448
_cell_length_c       5.748760482612088
_cell_angle_alpha    59.99999988579963
_cell_angle_beta     60.00000016120888
_cell_angle_gamma    60.000002513100085

_space_group_name_H-M_alt    "P 1"
_space_group_IT_number       1

loop_
  _space_group_symop_operation_xyz
  'x, y, z'

loop_
  _atom_site_type_symbol
  _atom_site_label
  _atom_site_symmetry_multiplicity
  _atom_site_fract_x
  _atom_site_fract_y
  _atom_site_fract_z
  _atom_site_occupancy
  Pd  Pd1       1.0  0.2500000324637966  0.24999905680428508  0.25000012108220043  1.0000
  Pd  Pd2       1.0  0.750000404104632  0.7500004683498045  0.7499986165856424  1.0000
  Be  Be1       1.0  0.9999999287066601  0.9999998764338894  0.9999999095631413  1.0000
  S   S1        1.0  0.25684734982184215  0.2568470428359262  0.7431529213819675  1.0000
  S   S2        1.0  0.7431524559493953  0.7431532599324449  0.2568477032999234  1.0000
  S   S3        1.0  0.7431530281691927  0.2568468648321865  0.25684766516458224  1.0000
  S   S4        1.0  0.25684704803662567  0.743153265369728  0.7431525765982095  1.0000
  S   S5        1.0  0.2568467554205567  0.7431531406094711  0.2568477777189449  1.0000
  S   S6        1.0  0.7431529971557145  0.25684700237513675  0.7431527220980916  1.0000
