data_image0
_chemical_formula_structural       Pd2CoN6
_chemical_formula_sum              "Pd2 Co1 N6"
_cell_length_a       5.027966148616916
_cell_length_b       5.027966103095849
_cell_length_c       5.027966220310884
_cell_angle_alpha    59.99999987794624
_cell_angle_beta     60.000000217760565
_cell_angle_gamma    59.999999635712506

_space_group_name_H-M_alt    "P 1"
_space_group_IT_number       1

loop_
  _space_group_symop_operation_xyz
  'x, y, z'

loop_
  _atom_site_type_symbol
  _atom_site_label
  _atom_site_symmetry_multiplicity
  _atom_site_fract_x
  _atom_site_fract_y
  _atom_site_fract_z
  _atom_site_occupancy
  Pd  Pd1       1.0  0.25000018620010417  0.2500001408169576  0.24999990263363292  1.0000
  Pd  Pd2       1.0  0.750000196926558  0.7500004809116428  0.7499997043750821  1.0000
  Co  Co1       1.0  3.40304099978403e-08  2.1922788647697593e-08  0.9999999620790223  1.0000
  N   N1        1.0  0.2630823373037414  0.26308234326328567  0.7369176563494262  1.0000
  N   N2        1.0  0.7369176910750433  0.7369175720643434  0.2630823340569037  1.0000
  N   N3        1.0  0.7369175547221726  0.2630820390702583  0.26308260813191187  1.0000
  N   N4        1.0  0.26308216155992614  0.7369177033109269  0.7369176446847379  1.0000
  N   N5        1.0  0.2630822491656338  0.7369176304185217  0.26308236763673787  1.0000
  N   N6        1.0  0.7369176021038292  0.2630820583736238  0.7369177907811051  1.0000
