data_image0
_chemical_formula_structural       Pd2CrO6
_chemical_formula_sum              "Pd2 Cr1 O6"
_cell_length_a       5.200888811456644
_cell_length_b       5.20088874967154
_cell_length_c       5.200888862767441
_cell_angle_alpha    59.99999995211009
_cell_angle_beta     59.999999687642145
_cell_angle_gamma    60.00000005431904

_space_group_name_H-M_alt    "P 1"
_space_group_IT_number       1

loop_
  _space_group_symop_operation_xyz
  'x, y, z'

loop_
  _atom_site_type_symbol
  _atom_site_label
  _atom_site_symmetry_multiplicity
  _atom_site_fract_x
  _atom_site_fract_y
  _atom_site_fract_z
  _atom_site_occupancy
  Pd  Pd1       1.0  0.25000018283067316  0.2500006711240041  0.2500000470477439  1.0000
  Pd  Pd2       1.0  0.7500006886735271  0.7499996679153854  0.7499996402087323  1.0000
  Cr  Cr1       1.0  4.852879693236736e-08  9.419504573115674e-08  2.86209885579847e-08  1.0000
  O   O1        1.0  0.25028897698801983  0.2502893426838599  0.7497106967223928  1.0000
  O   O2        1.0  0.7497108151920825  0.7497106242850964  0.25028939705513636  1.0000
  O   O3        1.0  0.749710474267888  0.25028925316133027  0.25028920993840975  1.0000
  O   O4        1.0  0.2502889808460793  0.7497106926137381  0.7497108687715565  1.0000
  O   O5        1.0  0.25028903642322403  0.7497103591560677  0.25028942256802733  1.0000
  O   O6        1.0  0.7497107541024619  0.25028930638874436  0.7497107189203744  1.0000
