data_image0
_chemical_formula_structural       Pd2CoS6
_chemical_formula_sum              "Pd2 Co1 S6"
_cell_length_a       5.908018954866566
_cell_length_b       5.908018902479077
_cell_length_c       5.90801883932883
_cell_angle_alpha    60.00000044344549
_cell_angle_beta     60.00000045740101
_cell_angle_gamma    60.00000216979612

_space_group_name_H-M_alt    "P 1"
_space_group_IT_number       1

loop_
  _space_group_symop_operation_xyz
  'x, y, z'

loop_
  _atom_site_type_symbol
  _atom_site_label
  _atom_site_symmetry_multiplicity
  _atom_site_fract_x
  _atom_site_fract_y
  _atom_site_fract_z
  _atom_site_occupancy
  Pd  Pd1       1.0  0.25000015533189196  0.24999991294709606  0.25000000635178643  1.0000
  Pd  Pd2       1.0  0.7499998698199133  0.7500000497944573  0.7499995878702469  1.0000
  Co  Co1       1.0  0.9999999687285898  0.9999999999999993  5.795107495711298e-08  1.0000
  S   S1        1.0  0.25750975777446367  0.2575095639723937  0.7424903051939477  1.0000
  S   S2        1.0  0.7424902939099185  0.742490442302607  0.2575097922465732  1.0000
  S   S3        1.0  0.7424902575947764  0.25750956428405763  0.25750980026166964  1.0000
  S   S4        1.0  0.2575097929853891  0.7424903632161364  0.7424903388109777  1.0000
  S   S5        1.0  0.25750958875655744  0.7424903395715661  0.25750973452005976  1.0000
  S   S6        1.0  0.7424903012188119  0.25750977657355567  0.7424903617580707  1.0000
