data_image0
_chemical_formula_structural       Pd2CdS6
_chemical_formula_sum              "Pd2 Cd1 S6"
_cell_length_a       6.2502829640048985
_cell_length_b       6.250283043371509
_cell_length_c       6.250283938493309
_cell_angle_alpha    60.000005926946294
_cell_angle_beta     60.00000089076927
_cell_angle_gamma    60.00000449598818

_space_group_name_H-M_alt    "P 1"
_space_group_IT_number       1

loop_
  _space_group_symop_operation_xyz
  'x, y, z'

loop_
  _atom_site_type_symbol
  _atom_site_label
  _atom_site_symmetry_multiplicity
  _atom_site_fract_x
  _atom_site_fract_y
  _atom_site_fract_z
  _atom_site_occupancy
  Pd  Pd1       1.0  0.2500019005088592  0.2500007213873987  0.24999767599647893  1.0000
  Pd  Pd2       1.0  0.7499989548980524  0.7500006671022262  0.7500006744731301  1.0000
  Cd  Cd1       1.0  6.596663674252721e-08  0.999999996080994  0.9999999577766961  1.0000
  S   S1        1.0  0.27369270920494326  0.2736910531687915  0.7263081088250943  1.0000
  S   S2        1.0  0.7263075198064388  0.7263082739237213  0.27369118555881217  1.0000
  S   S3        1.0  0.7263077069861533  0.2736918952678463  0.2736919387946551  1.0000
  S   S4        1.0  0.2736929287531454  0.7263067381608102  0.726309226978684  1.0000
  S   S5        1.0  0.2736923511548883  0.7263084436225865  0.27369111193431467  1.0000
  S   S6        1.0  0.7263058753428685  0.2736922022155157  0.726310111461521  1.0000
