data_image0
_chemical_formula_structural       Pd2CS6
_chemical_formula_sum              "Pd2 C1 S6"
_cell_length_a       5.754402441440526
_cell_length_b       5.754403153968305
_cell_length_c       5.754401257622211
_cell_angle_alpha    60.00000555081289
_cell_angle_beta     60.00001219316456
_cell_angle_gamma    59.999992804268

_space_group_name_H-M_alt    "P 1"
_space_group_IT_number       1

loop_
  _space_group_symop_operation_xyz
  'x, y, z'

loop_
  _atom_site_type_symbol
  _atom_site_label
  _atom_site_symmetry_multiplicity
  _atom_site_fract_x
  _atom_site_fract_y
  _atom_site_fract_z
  _atom_site_occupancy
  Pd  Pd1       1.0  0.24999878322383215  0.25000148043870446  0.24999890744227118  1.0000
  Pd  Pd2       1.0  0.7500002091441739  0.7499974922158636  0.7500008477744237  1.0000
  C   C1        1.0  0.9999930925361937  8.628378059013797e-06  0.999992720108084  1.0000
  S   S1        1.0  0.24300173877476797  0.24300388734844608  0.7569975332423823  1.0000
  S   S2        1.0  0.7569974284280103  0.7569954577691865  0.24300347237621392  1.0000
  S   S3        1.0  0.7569978235981663  0.24300380075439149  0.2430014567681624  1.0000
  S   S4        1.0  0.24300392990067712  0.7569953826074088  0.7569979229839672  1.0000
  S   S5        1.0  0.24300682475321886  0.7569934108178008  0.2430059343442506  1.0000
  S   S6        1.0  0.7570001905483994  0.24300038353190365  0.7570011101513079  1.0000
