data_image0
_chemical_formula_structural       Pd2CoS6
_chemical_formula_sum              "Pd2 Co1 S6"
_cell_length_a       5.909141385199753
_cell_length_b       5.909141682148959
_cell_length_c       5.909141452724222
_cell_angle_alpha    60.000003689867206
_cell_angle_beta     60.00000224136563
_cell_angle_gamma    60.00000537760174

_space_group_name_H-M_alt    "P 1"
_space_group_IT_number       1

loop_
  _space_group_symop_operation_xyz
  'x, y, z'

loop_
  _atom_site_type_symbol
  _atom_site_label
  _atom_site_symmetry_multiplicity
  _atom_site_fract_x
  _atom_site_fract_y
  _atom_site_fract_z
  _atom_site_occupancy
  Pd  Pd1       1.0  0.2499997598479806  0.2500010805807512  0.24999947481927629  1.0000
  Pd  Pd2       1.0  0.7499999644765668  0.7500001141477669  0.7500001940917187  1.0000
  Co  Co1       1.0  1.1152210463760316e-08  0.9999999958547456  0.999999988035056  1.0000
  S   S1        1.0  0.25744570204474115  0.25744544215645426  0.7425544405996505  1.0000
  S   S2        1.0  0.7425545337445485  0.7425542416268098  0.2574454335925634  1.0000
  S   S3        1.0  0.7425545375163457  0.2574456476445013  0.25744550426762747  1.0000
  S   S4        1.0  0.25744561280772166  0.7425539407979128  0.742554785247917  1.0000
  S   S5        1.0  0.2574455450974179  0.7425539530969805  0.2574456625069056  1.0000
  S   S6        1.0  0.7425543261674498  0.2574455814571124  0.7425544804081474  1.0000
