data_image0
_chemical_formula_structural       Pd2CrS6
_chemical_formula_sum              "Pd2 Cr1 S6"
_cell_length_a       5.847438978691871
_cell_length_b       5.847439037283959
_cell_length_c       5.847438890146427
_cell_angle_alpha    60.000002281045745
_cell_angle_beta     60.000001258516235
_cell_angle_gamma    60.00000239824526

_space_group_name_H-M_alt    "P 1"
_space_group_IT_number       1

loop_
  _space_group_symop_operation_xyz
  'x, y, z'

loop_
  _atom_site_type_symbol
  _atom_site_label
  _atom_site_symmetry_multiplicity
  _atom_site_fract_x
  _atom_site_fract_y
  _atom_site_fract_z
  _atom_site_occupancy
  Pd  Pd1       1.0  0.24999992013992262  0.24999983968274606  0.2500003850425539  1.0000
  Pd  Pd2       1.0  0.7500002016254006  0.7500002688784464  0.7499991846488244  1.0000
  Cr  Cr1       1.0  1.7912741580545576e-08  0.9999999581100439  3.76408629763144e-08  1.0000
  S   S1        1.0  0.26374407052854365  0.2637440272189911  0.7362559777307875  1.0000
  S   S2        1.0  0.7362558614865563  0.7362559870898068  0.26374443341341436  1.0000
  S   S3        1.0  0.7362558617622244  0.26374395752822793  0.26374428083451185  1.0000
  S   S4        1.0  0.26374404865083373  0.736256050497071  0.7362557611787687  1.0000
  S   S5        1.0  0.263743963327781  0.736255815789699  0.2637442452436866  1.0000
  S   S6        1.0  0.7362560353107847  0.2637440875107081  0.7362557092508627  1.0000
