data_image0
_chemical_formula_structural       Pd2CoSe6
_chemical_formula_sum              "Pd2 Co1 Se6"
_cell_length_a       6.17704872236297
_cell_length_b       6.177048345005671
_cell_length_c       6.177048941570182
_cell_angle_alpha    60.00000222395594
_cell_angle_beta     60.000003660816816
_cell_angle_gamma    60.00000040563157

_space_group_name_H-M_alt    "P 1"
_space_group_IT_number       1

loop_
  _space_group_symop_operation_xyz
  'x, y, z'

loop_
  _atom_site_type_symbol
  _atom_site_label
  _atom_site_symmetry_multiplicity
  _atom_site_fract_x
  _atom_site_fract_y
  _atom_site_fract_z
  _atom_site_occupancy
  Pd  Pd1       1.0  0.2499999649991348  0.2500002054297912  0.2499999146042945  1.0000
  Pd  Pd2       1.0  0.7500001222375863  0.749999940176797  0.7499995732384304  1.0000
  Co  Co1       1.0  2.979604588557804e-08  5.948202618901391e-09  0.9999999448932684  1.0000
  Se  Se1       1.0  0.26749943173447316  0.2674996458116752  0.7325005513139071  1.0000
  Se  Se2       1.0  0.7325005493484417  0.7325003808308603  0.2674998245389362  1.0000
  Se  Se3       1.0  0.7325004468864066  0.2674994041666765  0.2674995823836797  1.0000
  Se  Se4       1.0  0.26749944832358885  0.7325004202368959  0.7325005619412148  1.0000
  Se  Se5       1.0  0.2674994412913448  0.7325003565479015  0.2674996029483904  1.0000
  Se  Se6       1.0  0.7325005710422797  0.2674996324226588  0.7325004393847113  1.0000
