data_image0
_chemical_formula_structural       Pd2CdO6
_chemical_formula_sum              "Pd2 Cd1 O6"
_cell_length_a       5.445041232354333
_cell_length_b       5.445041044785658
_cell_length_c       5.445041436587516
_cell_angle_alpha    60.00000179838106
_cell_angle_beta     60.00000249391858
_cell_angle_gamma    60.00000227433989

_space_group_name_H-M_alt    "P 1"
_space_group_IT_number       1

loop_
  _space_group_symop_operation_xyz
  'x, y, z'

loop_
  _atom_site_type_symbol
  _atom_site_label
  _atom_site_symmetry_multiplicity
  _atom_site_fract_x
  _atom_site_fract_y
  _atom_site_fract_z
  _atom_site_occupancy
  Pd  Pd1       1.0  0.25000035157136  0.2499993822055478  0.2500002934622754  1.0000
  Pd  Pd2       1.0  0.7500003013581344  0.7500001394829743  0.7499985030692929  1.0000
  Cd  Cd1       1.0  9.853467692050522e-09  2.249284010939586e-09  0.9999999627275581  1.0000
  O   O1        1.0  0.2853982495069358  0.28539840869052463  0.7146015067794332  1.0000
  O   O2        1.0  0.7146013676979412  0.7146019362363016  0.2853991039712713  1.0000
  O   O3        1.0  0.7146015495377993  0.2853977859421029  0.28539888040766154  1.0000
  O   O4        1.0  0.28539849585407107  0.7146020124084919  0.714601381827261  1.0000
  O   O5        1.0  0.28539796430642533  0.7146017327184834  0.28539873596944426  1.0000
  O   O6        1.0  0.7146017124051733  0.285398605460482  0.7146016261813004  1.0000
