data_image0
_chemical_formula_structural       Pd2CrSe6
_chemical_formula_sum              "Pd2 Cr1 Se6"
_cell_length_a       6.176217633911942
_cell_length_b       6.17621768058342
_cell_length_c       6.176217660461997
_cell_angle_alpha    60.000000591345284
_cell_angle_beta     59.999999491059405
_cell_angle_gamma    60.00000026645107

_space_group_name_H-M_alt    "P 1"
_space_group_IT_number       1

loop_
  _space_group_symop_operation_xyz
  'x, y, z'

loop_
  _atom_site_type_symbol
  _atom_site_label
  _atom_site_symmetry_multiplicity
  _atom_site_fract_x
  _atom_site_fract_y
  _atom_site_fract_z
  _atom_site_occupancy
  Pd  Pd1       1.0  0.25000004779353807  0.24999985749945447  0.24999994067533063  1.0000
  Pd  Pd2       1.0  0.7500000043987274  0.7500000960107481  0.7499998985336563  1.0000
  Cr  Cr1       1.0  0.9999999992061319  4.164303051561518e-08  0.9999999892901025  1.0000
  Se  Se1       1.0  0.27281833756369567  0.2728182248885574  0.727181752941359  1.0000
  Se  Se2       1.0  0.727181711417518  0.7271817662986741  0.272818268185652  1.0000
  Se  Se3       1.0  0.7271817512179821  0.2728182428009643  0.27281831609267737  1.0000
  Se  Se4       1.0  0.2728182321007015  0.7271817602842762  0.7271817367739362  1.0000
  Se  Se5       1.0  0.2728182691336055  0.7271817551808242  0.2728183232941546  1.0000
  Se  Se6       1.0  0.7271816535837324  0.27281825583642216  0.7271817753364962  1.0000
