data_image0
_chemical_formula_structural       Pd2CuS6
_chemical_formula_sum              "Pd2 Cu1 S6"
_cell_length_a       6.015839944010051
_cell_length_b       6.015839098406886
_cell_length_c       6.015839584343213
_cell_angle_alpha    60.00000006199165
_cell_angle_beta     60.00000088152416
_cell_angle_gamma    59.999998787041896

_space_group_name_H-M_alt    "P 1"
_space_group_IT_number       1

loop_
  _space_group_symop_operation_xyz
  'x, y, z'

loop_
  _atom_site_type_symbol
  _atom_site_label
  _atom_site_symmetry_multiplicity
  _atom_site_fract_x
  _atom_site_fract_y
  _atom_site_fract_z
  _atom_site_occupancy
  Pd  Pd1       1.0  0.25000007673307134  0.24999994975930728  0.2499998747901184  1.0000
  Pd  Pd2       1.0  0.7499998804096678  0.7500002422002757  0.7499998172378716  1.0000
  Cu  Cu1       1.0  0.9999999864475325  6.1075995753203614e-09  0.9999999588409183  1.0000
  S   S1        1.0  0.26335850202575156  0.26335853338159176  0.7366414615623188  1.0000
  S   S2        1.0  0.7366414848433928  0.7366414081663428  0.26335846547916486  1.0000
  S   S3        1.0  0.7366415213213248  0.26335834074253356  0.26335870106569914  1.0000
  S   S4        1.0  0.26335862026683293  0.7366415397294023  0.7366415315572886  1.0000
  S   S5        1.0  0.26335844925384494  0.7366415271718212  0.26335858610699153  1.0000
  S   S6        1.0  0.7366414561840493  0.2633584571293297  0.7366415913302036  1.0000
