data_image0
_chemical_formula_structural       Pd2CdSe6
_chemical_formula_sum              "Pd2 Cd1 Se6"
_cell_length_a       6.533419554050936
_cell_length_b       6.5334192415802415
_cell_length_c       6.533419317813354
_cell_angle_alpha    60.00000049846688
_cell_angle_beta     60.00000083342358
_cell_angle_gamma    60.0000014850968

_space_group_name_H-M_alt    "P 1"
_space_group_IT_number       1

loop_
  _space_group_symop_operation_xyz
  'x, y, z'

loop_
  _atom_site_type_symbol
  _atom_site_label
  _atom_site_symmetry_multiplicity
  _atom_site_fract_x
  _atom_site_fract_y
  _atom_site_fract_z
  _atom_site_occupancy
  Pd  Pd1       1.0  0.2499999790838233  0.2500005460917975  0.24999952428244898  1.0000
  Pd  Pd2       1.0  0.7500000244236199  0.7499995687337395  0.7500000094343856  1.0000
  Cd  Cd1       1.0  0.9999999203976854  0.9999999418878671  0.9999999632463686  1.0000
  Se  Se1       1.0  0.29336896827466374  0.2933694197184059  0.7066307202512252  1.0000
  Se  Se2       1.0  0.706631112834905  0.7066307963347168  0.2933689919043718  1.0000
  Se  Se3       1.0  0.7066307508935118  0.29336933622839484  0.29336907267267803  1.0000
  Se  Se4       1.0  0.2933691114750989  0.7066307036137531  0.7066312272598706  1.0000
  Se  Se5       1.0  0.29336933642695695  0.7066304945741465  0.2933692520765026  1.0000
  Se  Se6       1.0  0.7066308189218425  0.29336916472728747  0.7066312385731469  1.0000
