data_image0
_chemical_formula_structural       Pd2CoO6
_chemical_formula_sum              "Pd2 Co1 O6"
_cell_length_a       5.142778812152457
_cell_length_b       5.142778513353368
_cell_length_c       5.142778749225685
_cell_angle_alpha    60.00000040706572
_cell_angle_beta     60.000001052754676
_cell_angle_gamma    60.00000020731739

_space_group_name_H-M_alt    "P 1"
_space_group_IT_number       1

loop_
  _space_group_symop_operation_xyz
  'x, y, z'

loop_
  _atom_site_type_symbol
  _atom_site_label
  _atom_site_symmetry_multiplicity
  _atom_site_fract_x
  _atom_site_fract_y
  _atom_site_fract_z
  _atom_site_occupancy
  Pd  Pd1       1.0  0.24999962555996563  0.25000010072165657  0.25000011359954494  1.0000
  Pd  Pd2       1.0  0.7500000607624016  0.7500002592982531  0.7499997001896791  1.0000
  Co  Co1       1.0  1.3358880529307008e-08  0.9999999666592135  2.3602271134209617e-08  1.0000
  O   O1        1.0  0.24873123212247092  0.24873115051998293  0.7512687942198791  1.0000
  O   O2        1.0  0.7512688656632833  0.7512686689028903  0.24873126691672787  1.0000
  O   O3        1.0  0.7512689933050015  0.24873112871730868  0.24873128351792423  1.0000
  O   O4        1.0  0.2487312089195618  0.7512687478612025  0.75126882515675  1.0000
  O   O5        1.0  0.24873111838971124  0.7512687738516939  0.2487313410323744  1.0000
  O   O6        1.0  0.7512688868606445  0.24873118846026435  0.7512686715937017  1.0000
