data_image0
_chemical_formula_structural       Pd2CO6
_chemical_formula_sum              "Pd2 C1 O6"
_cell_length_a       3.984255588549473
_cell_length_b       4.430411699153821
_cell_length_c       2.9362356695754417
_cell_angle_alpha    29.122396959164178
_cell_angle_beta     50.76014490974285
_cell_angle_gamma    39.58238487398679

_space_group_name_H-M_alt    "P 1"
_space_group_IT_number       1

loop_
  _space_group_symop_operation_xyz
  'x, y, z'

loop_
  _atom_site_type_symbol
  _atom_site_label
  _atom_site_symmetry_multiplicity
  _atom_site_fract_x
  _atom_site_fract_y
  _atom_site_fract_z
  _atom_site_occupancy
  Pd  Pd1       1.0  0.8990652306390743  0.16045789467260113  0.9378402538472108  1.0000
  Pd  Pd2       1.0  0.07322542728633552  0.9931345463092172  0.5031142043325584  1.0000
  C   C1        1.0  0.37758187226637835  0.5026561567485164  0.23698686312144976  1.0000
  O   O1        1.0  0.30085801739498724  0.7986846897456774  0.4062589261135714  1.0000
  O   O2        1.0  0.907038592513299  0.9486008247931972  0.6236348672047416  1.0000
  O   O3        1.0  0.7376970166856782  0.3544281781103099  0.7715007164652637  1.0000
  O   O4        1.0  0.5223970636831177  0.5362190607654052  0.24589744530012134  1.0000
  O   O5        1.0  0.735402078964456  0.2725253619623009  0.8645003124231418  1.0000
  O   O6        1.0  0.1980835526554046  0.4445236487222377  0.40967153709705  1.0000
