data_image0
_chemical_formula_structural       Pd2FeS6
_chemical_formula_sum              "Pd2 Fe1 S6"
_cell_length_a       5.876364251632163
_cell_length_b       5.87636426777349
_cell_length_c       5.87636483680807
_cell_angle_alpha    59.9999959194724
_cell_angle_beta     59.999998801530516
_cell_angle_gamma    60.000002415063165

_space_group_name_H-M_alt    "P 1"
_space_group_IT_number       1

loop_
  _space_group_symop_operation_xyz
  'x, y, z'

loop_
  _atom_site_type_symbol
  _atom_site_label
  _atom_site_symmetry_multiplicity
  _atom_site_fract_x
  _atom_site_fract_y
  _atom_site_fract_z
  _atom_site_occupancy
  Pd  Pd1       1.0  0.2500002240230191  0.25000139827464085  0.2499991165485148  1.0000
  Pd  Pd2       1.0  0.7500002749390471  0.7499985362529517  0.7500002005159042  1.0000
  Fe  Fe1       1.0  2.106332515713369e-08  0.999999754065792  2.1964457989306634e-07  1.0000
  S   S1        1.0  0.2598668541123696  0.2598676574986619  0.7401326314126975  1.0000
  S   S2        1.0  0.7401330570344786  0.7401325667310539  0.25986712570448517  1.0000
  S   S3        1.0  0.7401326004802746  0.2598676702116358  0.25986689346578074  1.0000
  S   S4        1.0  0.2598676126658279  0.7401322080428503  0.740133168126963  1.0000
  S   S5        1.0  0.25986715642742475  0.7401323437577176  0.25986745682092255  1.0000
  S   S6        1.0  0.7401321514670733  0.2598678804719568  0.7401331566871846  1.0000
