data_image0
_chemical_formula_structural       Pd2FeN6
_chemical_formula_sum              "Pd2 Fe1 N6"
_cell_length_a       4.882046580474637
_cell_length_b       4.882046536612687
_cell_length_c       4.882046580101573
_cell_angle_alpha    60.0000001206322
_cell_angle_beta     60.00000047097816
_cell_angle_gamma    60.00000007572291

_space_group_name_H-M_alt    "P 1"
_space_group_IT_number       1

loop_
  _space_group_symop_operation_xyz
  'x, y, z'

loop_
  _atom_site_type_symbol
  _atom_site_label
  _atom_site_symmetry_multiplicity
  _atom_site_fract_x
  _atom_site_fract_y
  _atom_site_fract_z
  _atom_site_occupancy
  Pd  Pd1       1.0  0.24999994745799006  0.25000003024914064  0.24999995954942014  1.0000
  Pd  Pd2       1.0  0.7499999549483793  0.7500000581346989  0.7499999492767677  1.0000
  Fe  Fe1       1.0  2.1028673895928302e-09  0.9999999724046187  2.9132827270664443e-08  1.0000
  N   N1        1.0  0.2793193834102723  0.2793193241452637  0.7206806726468472  1.0000
  N   N2        1.0  0.72068061214888  0.7206806337876828  0.27931941254913567  1.0000
  N   N3        1.0  0.7206806400923386  0.2793193289421228  0.27931941449126724  1.0000
  N   N4        1.0  0.27931939777804204  0.7206806013954422  0.7206806264770089  1.0000
  N   N5        1.0  0.2793193920645872  0.720680647763546  0.2793193604822642  1.0000
  N   N6        1.0  0.7206806649404727  0.2793193954642154  0.7206805857970763  1.0000
