data_image0
_chemical_formula_structural       Pd2GeS6
_chemical_formula_sum              "Pd2 Ge1 S6"
_cell_length_a       6.162217303079933
_cell_length_b       6.162217351304831
_cell_length_c       6.162217373858825
_cell_angle_alpha    59.99999965048566
_cell_angle_beta     59.999999554471025
_cell_angle_gamma    59.99999988131355

_space_group_name_H-M_alt    "P 1"
_space_group_IT_number       1

loop_
  _space_group_symop_operation_xyz
  'x, y, z'

loop_
  _atom_site_type_symbol
  _atom_site_label
  _atom_site_symmetry_multiplicity
  _atom_site_fract_x
  _atom_site_fract_y
  _atom_site_fract_z
  _atom_site_occupancy
  Pd  Pd1       1.0  0.2500000021439672  0.2500001267226328  0.2499999939300113  1.0000
  Pd  Pd2       1.0  0.7500000008560785  0.7499999190663259  0.7500003855219429  1.0000
  Ge  Ge1       1.0  0.9999999807907799  0.999999860874526  0.9999999363616093  1.0000
  S   S1        1.0  0.2635556137443735  0.26355555975675915  0.7364445175191062  1.0000
  S   S2        1.0  0.7364445798189517  0.736444515844802  0.26355537038867455  1.0000
  S   S3        1.0  0.7364443781847444  0.26355581471609857  0.2635553348959723  1.0000
  S   S4        1.0  0.2635552340303591  0.7364444814987151  0.7364446311433669  1.0000
  S   S5        1.0  0.26355565118071994  0.7364442878304926  0.2635553801191109  1.0000
  S   S6        1.0  0.7364445644011969  0.26355545188242385  0.7364444245504101  1.0000
