data_image0
_chemical_formula_structural       Pd2GeN6
_chemical_formula_sum              "Pd2 Ge1 N6"
_cell_length_a       4.983654024727593
_cell_length_b       4.983654421618978
_cell_length_c       4.98365438724938
_cell_angle_alpha    60.00000134348399
_cell_angle_beta     60.00000100490784
_cell_angle_gamma    59.99999808482925

_space_group_name_H-M_alt    "P 1"
_space_group_IT_number       1

loop_
  _space_group_symop_operation_xyz
  'x, y, z'

loop_
  _atom_site_type_symbol
  _atom_site_label
  _atom_site_symmetry_multiplicity
  _atom_site_fract_x
  _atom_site_fract_y
  _atom_site_fract_z
  _atom_site_occupancy
  Pd  Pd1       1.0  0.24999976141036367  0.25000020764091346  0.25000006343058306  1.0000
  Pd  Pd2       1.0  0.7500000658394074  0.7499997308416191  0.7499998080981521  1.0000
  Ge  Ge1       1.0  0.9999999877847228  0.9999999115291491  0.9999999961659514  1.0000
  N   N1        1.0  0.2886479985200616  0.2886474217285556  0.7113522180331402  1.0000
  N   N2        1.0  0.7113525362988401  0.7113523889627145  0.2886477227808625  1.0000
  N   N3        1.0  0.7113517411190363  0.2886480682588567  0.28864794648937203  1.0000
  N   N4        1.0  0.2886478286811988  0.7113523297806102  0.7113528172327075  1.0000
  N   N5        1.0  0.2886480784930232  0.711351912105638  0.2886473669703887  1.0000
  N   N6        1.0  0.7113519972112188  0.2886480386645015  0.711352057150883  1.0000
