data_image0
_chemical_formula_structural       Pd2GeS6
_chemical_formula_sum              "Pd2 Ge1 S6"
_cell_length_a       6.162624899345371
_cell_length_b       6.162624602592834
_cell_length_c       6.162625466601316
_cell_angle_alpha    59.999999720148494
_cell_angle_beta     59.99999780720985
_cell_angle_gamma    60.00000137148104

_space_group_name_H-M_alt    "P 1"
_space_group_IT_number       1

loop_
  _space_group_symop_operation_xyz
  'x, y, z'

loop_
  _atom_site_type_symbol
  _atom_site_label
  _atom_site_symmetry_multiplicity
  _atom_site_fract_x
  _atom_site_fract_y
  _atom_site_fract_z
  _atom_site_occupancy
  Pd  Pd1       1.0  0.25000034183635583  0.24999988280541952  0.2499997720405979  1.0000
  Pd  Pd2       1.0  0.7500000531933848  0.7500001651338091  0.7499989013376044  1.0000
  Ge  Ge1       1.0  6.035837496871505e-08  0.9999998807574756  9.969850981488508e-09  1.0000
  S   S1        1.0  0.26353092958843644  0.263530661709497  0.7364691779573794  1.0000
  S   S2        1.0  0.7364691094743578  0.7364693186590259  0.2635312081732838  1.0000
  S   S3        1.0  0.7364690504932478  0.2635305756893539  0.2635311946289458  1.0000
  S   S4        1.0  0.2635312645968597  0.7364691443329959  0.7364691609435501  1.0000
  S   S5        1.0  0.2635303276821545  0.7364692616074981  0.26353131485380765  1.0000
  S   S6        1.0  0.7364688279641987  0.2635311261729562  0.7364692443717175  1.0000
