data_image0
_chemical_formula_structural       Pd2GeO6
_chemical_formula_sum              "Pd2 Ge1 O6"
_cell_length_a       5.27152837928583
_cell_length_b       5.271528956143499
_cell_length_c       5.271528545206621
_cell_angle_alpha    60.0000006857866
_cell_angle_beta     60.000002009765225
_cell_angle_gamma    60.00000362078338

_space_group_name_H-M_alt    "P 1"
_space_group_IT_number       1

loop_
  _space_group_symop_operation_xyz
  'x, y, z'

loop_
  _atom_site_type_symbol
  _atom_site_label
  _atom_site_symmetry_multiplicity
  _atom_site_fract_x
  _atom_site_fract_y
  _atom_site_fract_z
  _atom_site_occupancy
  Pd  Pd1       1.0  0.2499999409967374  0.25000002453971903  0.25000069235485056  1.0000
  Pd  Pd2       1.0  0.7499998049995179  0.7500002130184427  0.749999337820267  1.0000
  Ge  Ge1       1.0  0.999999981591905  0.99999996979684  3.3790542505251766e-08  1.0000
  O   O1        1.0  0.25136838028277825  0.25136810896052125  0.7486314284125467  1.0000
  O   O2        1.0  0.7486318360903669  0.7486317754530117  0.25136857918913286  1.0000
  O   O3        1.0  0.7486315607979604  0.2513681700153632  0.2513684347119388  1.0000
  O   O4        1.0  0.2513684689012642  0.7486316632851289  0.748631674710371  1.0000
  O   O5        1.0  0.25136814495688464  0.7486316889817708  0.25136823557507804  1.0000
  O   O6        1.0  0.7486319011345411  0.25136831856772657  0.7486315300218541  1.0000
