data_image0
_chemical_formula_structural       Pd2GeSe6
_chemical_formula_sum              "Pd2 Ge1 Se6"
_cell_length_a       6.396452313200254
_cell_length_b       6.396451896795095
_cell_length_c       6.396452199550846
_cell_angle_alpha    59.999997872762435
_cell_angle_beta     59.99999937105586
_cell_angle_gamma    60.000000756069866

_space_group_name_H-M_alt    "P 1"
_space_group_IT_number       1

loop_
  _space_group_symop_operation_xyz
  'x, y, z'

loop_
  _atom_site_type_symbol
  _atom_site_label
  _atom_site_symmetry_multiplicity
  _atom_site_fract_x
  _atom_site_fract_y
  _atom_site_fract_z
  _atom_site_occupancy
  Pd  Pd1       1.0  0.2499996071471213  0.2500001263957213  0.25000019243866484  1.0000
  Pd  Pd2       1.0  0.7500002691029515  0.750000227923907  0.749999322530559  1.0000
  Ge  Ge1       1.0  8.931304017043744e-08  0.9999999865969246  3.34126277831466e-07  1.0000
  Se  Se1       1.0  0.2878054751896914  0.28780538621330426  0.712194567064337  1.0000
  Se  Se2       1.0  0.7121946776879741  0.7121944090065134  0.2878057645153851  1.0000
  Se  Se3       1.0  0.7121949360777922  0.2878052133843025  0.2878053810265943  1.0000
  Se  Se4       1.0  0.2878055700943124  0.7121945780060771  0.71219438185223  1.0000
  Se  Se5       1.0  0.2878049264257091  0.7121946074772089  0.28780564869665437  1.0000
  Se  Se6       1.0  0.7121944580067855  0.28780547303666915  0.7121944054209036  1.0000
