data_image0
_chemical_formula_structural       Pd2HgO6
_chemical_formula_sum              "Pd2 Hg1 O6"
_cell_length_a       5.397585900443864
_cell_length_b       5.397585893093771
_cell_length_c       5.397585672644336
_cell_angle_alpha    60.00000043927789
_cell_angle_beta     60.00000114819183
_cell_angle_gamma    60.00000089272143

_space_group_name_H-M_alt    "P 1"
_space_group_IT_number       1

loop_
  _space_group_symop_operation_xyz
  'x, y, z'

loop_
  _atom_site_type_symbol
  _atom_site_label
  _atom_site_symmetry_multiplicity
  _atom_site_fract_x
  _atom_site_fract_y
  _atom_site_fract_z
  _atom_site_occupancy
  Pd  Pd1       1.0  0.2500000616804061  0.25000018448311173  0.24999989578804327  1.0000
  Pd  Pd2       1.0  0.7499993397955826  0.7499998545787119  0.7500006206054415  1.0000
  Hg  Hg1       1.0  3.788064856947083e-08  0.999999995461879  1.2971619044933345e-08  1.0000
  O   O1        1.0  0.27446090131663564  0.27446066967462096  0.7255391689973738  1.0000
  O   O2        1.0  0.725539239297326  0.7255392377817049  0.27446065271435477  1.0000
  O   O3        1.0  0.7255391813410802  0.2744609693508412  0.27446053648660873  1.0000
  O   O4        1.0  0.27446095741157556  0.7255391105540772  0.7255393351771284  1.0000
  O   O5        1.0  0.27446107664358854  0.7255391669822955  0.27446045440824335  1.0000
  O   O6        1.0  0.7255392073880887  0.2744608108149043  0.7255393271206761  1.0000
