data_image0
_chemical_formula_structural       Pd2IrSe6
_chemical_formula_sum              "Pd2 Ir1 Se6"
_cell_length_a       6.321592547886584
_cell_length_b       6.3215925808613775
_cell_length_c       6.3215925429456705
_cell_angle_alpha    60.000001075287585
_cell_angle_beta     60.00000046831509
_cell_angle_gamma    60.00000041871688

_space_group_name_H-M_alt    "P 1"
_space_group_IT_number       1

loop_
  _space_group_symop_operation_xyz
  'x, y, z'

loop_
  _atom_site_type_symbol
  _atom_site_label
  _atom_site_symmetry_multiplicity
  _atom_site_fract_x
  _atom_site_fract_y
  _atom_site_fract_z
  _atom_site_occupancy
  Pd  Pd1       1.0  0.2500000959294719  0.24999998076057203  0.2499999291133672  1.0000
  Pd  Pd2       1.0  0.7500000098669561  0.7500000527134736  0.7499999596702253  1.0000
  Ir  Ir1       1.0  0.9999999865680175  1.93739917816008e-09  0.9999999946741325  1.0000
  Se  Se1       1.0  0.2774004103618357  0.27740043026601213  0.7225995898954443  1.0000
  Se  Se2       1.0  0.7225995673511622  0.7225996148324297  0.2774004140653402  1.0000
  Se  Se3       1.0  0.7225995945133501  0.27740036112429506  0.27740041195797777  1.0000
  Se  Se4       1.0  0.27740038508327675  0.7225995851667859  0.7225996151545939  1.0000
  Se  Se5       1.0  0.2774004098977706  0.7225995814856117  0.27740043351187654  1.0000
  Se  Se6       1.0  0.7225995453990797  0.2774003938664583  0.7225996418402449  1.0000
