data_image0
_chemical_formula_structural       Pd2InS6
_chemical_formula_sum              "Pd2 In1 S6"
_cell_length_a       6.392820845161522
_cell_length_b       6.392821582618256
_cell_length_c       6.392821285140541
_cell_angle_alpha    59.99999885093669
_cell_angle_beta     59.99999757324722
_cell_angle_gamma    59.99999819611605

_space_group_name_H-M_alt    "P 1"
_space_group_IT_number       1

loop_
  _space_group_symop_operation_xyz
  'x, y, z'

loop_
  _atom_site_type_symbol
  _atom_site_label
  _atom_site_symmetry_multiplicity
  _atom_site_fract_x
  _atom_site_fract_y
  _atom_site_fract_z
  _atom_site_occupancy
  Pd  Pd1       1.0  0.25000001165400665  0.24999978887952878  0.2500000845827764  1.0000
  Pd  Pd2       1.0  0.7499995076504978  0.7500002766496503  0.7499995837366378  1.0000
  In  In1       1.0  0.9999999881952191  1.9158129344890074e-08  0.9999999306246329  1.0000
  S   S1        1.0  0.2797967226550453  0.2797960631008627  0.7202035142818844  1.0000
  S   S2        1.0  0.7202033833914658  0.7202037648675044  0.2797966051487703  1.0000
  S   S3        1.0  0.7202035504095127  0.27979599856843695  0.2797967576030568  1.0000
  S   S4        1.0  0.27979687180520735  0.7202036991246504  0.7202034784912497  1.0000
  S   S5        1.0  0.2797964620758879  0.7202037544446316  0.27979637314850603  1.0000
  S   S6        1.0  0.7202034972355783  0.2797966329410445  0.7202036885451907  1.0000
