data_image0
_chemical_formula_structural       Pd2IrS6
_chemical_formula_sum              "Pd2 Ir1 S6"
_cell_length_a       6.049554000542373
_cell_length_b       6.049553987145352
_cell_length_c       6.049553944635735
_cell_angle_alpha    60.0000003508549
_cell_angle_beta     60.000000105146896
_cell_angle_gamma    59.99999981644217

_space_group_name_H-M_alt    "P 1"
_space_group_IT_number       1

loop_
  _space_group_symop_operation_xyz
  'x, y, z'

loop_
  _atom_site_type_symbol
  _atom_site_label
  _atom_site_symmetry_multiplicity
  _atom_site_fract_x
  _atom_site_fract_y
  _atom_site_fract_z
  _atom_site_occupancy
  Pd  Pd1       1.0  0.24999998647736407  0.25000000221649693  0.2500000051147088  1.0000
  Pd  Pd2       1.0  0.750000012665015  0.7499999843797603  0.750000026310761  1.0000
  Ir  Ir1       1.0  7.866515260252368e-09  0.9999999878528744  0.9999999789981031  1.0000
  S   S1        1.0  0.2649852266154223  0.26498524194712936  0.7350147697469562  1.0000
  S   S2        1.0  0.735014771061492  0.7350147547717325  0.2649852259426696  1.0000
  S   S3        1.0  0.735014767713008  0.2649852376180288  0.26498522550959974  1.0000
  S   S4        1.0  0.2649852128811955  0.7350147874441262  0.7350147777738505  1.0000
  S   S5        1.0  0.2649852398801315  0.7350147722853486  0.2649852248784338  1.0000
  S   S6        1.0  0.735014769924043  0.26498522240899225  0.7350147674128368  1.0000
