data_image0
_chemical_formula_structural       Pd2IrO6
_chemical_formula_sum              "Pd2 Ir1 O6"
_cell_length_a       5.310574880493559
_cell_length_b       5.310575206080623
_cell_length_c       5.310574535826938
_cell_angle_alpha    59.99999989977597
_cell_angle_beta     60.00000087930342
_cell_angle_gamma    59.999999398373525

_space_group_name_H-M_alt    "P 1"
_space_group_IT_number       1

loop_
  _space_group_symop_operation_xyz
  'x, y, z'

loop_
  _atom_site_type_symbol
  _atom_site_label
  _atom_site_symmetry_multiplicity
  _atom_site_fract_x
  _atom_site_fract_y
  _atom_site_fract_z
  _atom_site_occupancy
  Pd  Pd1       1.0  0.24999962316873747  0.24999994252342106  0.2500007550375435  1.0000
  Pd  Pd2       1.0  0.7499989246328362  0.7500011559632435  0.750000002901237  1.0000
  Ir  Ir1       1.0  1.4824705257652124e-08  2.07561396326223e-08  0.9999999671452933  1.0000
  O   O1        1.0  0.251253324021417  0.2512527704523131  0.7487469091292218  1.0000
  O   O2        1.0  0.7487473480979717  0.7487465799061614  0.2512530976871889  1.0000
  O   O3        1.0  0.7487467714585762  0.2512526494299939  0.25125337749943566  1.0000
  O   O4        1.0  0.25125342244847715  0.7487473397563356  0.748746456740463  1.0000
  O   O5        1.0  0.2512534172195889  0.7487469048494518  0.25125268963685937  1.0000
  O   O6        1.0  0.7487471808590263  0.25125264153925164  0.7487467195197206  1.0000
