data_image0
_chemical_formula_structural       Pd2InSe6
_chemical_formula_sum              "Pd2 In1 Se6"
_cell_length_a       6.569772084487449
_cell_length_b       6.5697712529791925
_cell_length_c       6.56977172878078
_cell_angle_alpha    59.99999906647819
_cell_angle_beta     59.99999834700059
_cell_angle_gamma    60.00000136069392

_space_group_name_H-M_alt    "P 1"
_space_group_IT_number       1

loop_
  _space_group_symop_operation_xyz
  'x, y, z'

loop_
  _atom_site_type_symbol
  _atom_site_label
  _atom_site_symmetry_multiplicity
  _atom_site_fract_x
  _atom_site_fract_y
  _atom_site_fract_z
  _atom_site_occupancy
  Pd  Pd1       1.0  0.2500002065064707  0.24999956622119293  0.25000003920582337  1.0000
  Pd  Pd2       1.0  0.7499997788789037  0.7500004771221493  0.750000071858647  1.0000
  In  In1       1.0  5.8000677835534836e-08  0.9999999999999971  0.9999997792121755  1.0000
  Se  Se1       1.0  0.29237525795582264  0.29237500180114795  0.7076247121935884  1.0000
  Se  Se2       1.0  0.7076244273557195  0.7076252932108329  0.2923748598880164  1.0000
  Se  Se3       1.0  0.7076248605353839  0.2923752297956668  0.2923754094362821  1.0000
  Se  Se4       1.0  0.2923750133353946  0.7076251006363814  0.7076248421595743  1.0000
  Se  Se5       1.0  0.2923752518860448  0.707624670765556  0.29237525143423326  1.0000
  Se  Se6       1.0  0.7076251317398697  0.2923746734981675  0.7076250085276354  1.0000
