data_image0
_chemical_formula_structural       Pd2MnS6
_chemical_formula_sum              "Pd2 Mn1 S6"
_cell_length_a       6.031599204625258
_cell_length_b       6.031599105618913
_cell_length_c       6.031599308135959
_cell_angle_alpha    59.99999755810228
_cell_angle_beta     59.99999831572678
_cell_angle_gamma    59.99999995302305

_space_group_name_H-M_alt    "P 1"
_space_group_IT_number       1

loop_
  _space_group_symop_operation_xyz
  'x, y, z'

loop_
  _atom_site_type_symbol
  _atom_site_label
  _atom_site_symmetry_multiplicity
  _atom_site_fract_x
  _atom_site_fract_y
  _atom_site_fract_z
  _atom_site_occupancy
  Pd  Pd1       1.0  0.24999996494721383  0.2500000997955944  0.2499999573555526  1.0000
  Pd  Pd2       1.0  0.7499999943350479  0.7500002019204973  0.7500002341408772  1.0000
  Mn  Mn1       1.0  0.9999999951459256  2.0305473784285872e-08  1.6967335222189536e-07  1.0000
  S   S1        1.0  0.2591337814629064  0.25913363157302116  0.7408662972869989  1.0000
  S   S2        1.0  0.7408662778803209  0.7408661746894672  0.25913366913231206  1.0000
  S   S3        1.0  0.7408663013560836  0.25913365580166253  0.25913375571785263  1.0000
  S   S4        1.0  0.2591337281494254  0.7408661423386362  0.7408661335211787  1.0000
  S   S5        1.0  0.2591337660277713  0.7408663953026815  0.2591336644556285  1.0000
  S   S6        1.0  0.7408661635363205  0.25913369117537144  0.7408661455066478  1.0000
