data_image0
_chemical_formula_structural       Pd2MgS6
_chemical_formula_sum              "Pd2 Mg1 S6"
_cell_length_a       6.163405685874254
_cell_length_b       6.163406000833567
_cell_length_c       6.163405349172957
_cell_angle_alpha    59.99999848490598
_cell_angle_beta     59.99999682929805
_cell_angle_gamma    59.99999943379357

_space_group_name_H-M_alt    "P 1"
_space_group_IT_number       1

loop_
  _space_group_symop_operation_xyz
  'x, y, z'

loop_
  _atom_site_type_symbol
  _atom_site_label
  _atom_site_symmetry_multiplicity
  _atom_site_fract_x
  _atom_site_fract_y
  _atom_site_fract_z
  _atom_site_occupancy
  Pd  Pd1       1.0  0.25000008547507385  0.2500000894335383  0.25000009735827927  1.0000
  Pd  Pd2       1.0  0.7500005247710404  0.7500000815110294  0.7499996672040296  1.0000
  Mg  Mg1       1.0  3.805728580678374e-08  0.9999999364120472  4.683740797440312e-08  1.0000
  S   S1        1.0  0.27044882211305077  0.2704490256173612  0.72955098932766  1.0000
  S   S2        1.0  0.7295509990383435  0.7295511969924247  0.2704489703441007  1.0000
  S   S3        1.0  0.7295509455226665  0.2704488469012721  0.2704490080341719  1.0000
  S   S4        1.0  0.27044869515479475  0.7295511134082203  0.7295510140217091  1.0000
  S   S5        1.0  0.27044876950208707  0.7295508526634797  0.2704491400944747  1.0000
  S   S6        1.0  0.729551100538557  0.2704488691911869  0.729551081204791  1.0000
