data_image0
_chemical_formula_structural       Pd2MgSe6
_chemical_formula_sum              "Pd2 Mg1 Se6"
_cell_length_a       6.3910876589574075
_cell_length_b       6.391087802765971
_cell_length_c       6.39108726320249
_cell_angle_alpha    60.00000045174729
_cell_angle_beta     60.00000298344261
_cell_angle_gamma    59.999999494313236

_space_group_name_H-M_alt    "P 1"
_space_group_IT_number       1

loop_
  _space_group_symop_operation_xyz
  'x, y, z'

loop_
  _atom_site_type_symbol
  _atom_site_label
  _atom_site_symmetry_multiplicity
  _atom_site_fract_x
  _atom_site_fract_y
  _atom_site_fract_z
  _atom_site_occupancy
  Pd  Pd1       1.0  0.2500005337410545  0.24999897772580904  0.2500002272775895  1.0000
  Pd  Pd2       1.0  0.7499996890999707  0.7500009133998934  0.7499996039720359  1.0000
  Mg  Mg1       1.0  0.9999999702342595  1.3414328494943532e-08  0.9999999737527677  1.0000
  Se  Se1       1.0  0.2878149387030774  0.28781424853800813  0.7121854309844603  1.0000
  Se  Se2       1.0  0.7121850323065236  0.7121857422369778  0.28781470167000744  1.0000
  Se  Se3       1.0  0.7121853164087816  0.2878140939102067  0.2878151097955248  1.0000
  Se  Se4       1.0  0.287814602787852  0.7121859926814034  0.712184924187842  1.0000
  Se  Se5       1.0  0.28781465052879407  0.7121858483035282  0.28781448305676516  1.0000
  Se  Se6       1.0  0.7121852848564707  0.28781417888177746  0.7121855490652542  1.0000
