data_image0
_chemical_formula_structural       Pd2MnS6
_chemical_formula_sum              "Pd2 Mn1 S6"
_cell_length_a       6.030926404865244
_cell_length_b       6.030925400413331
_cell_length_c       6.0309251552535335
_cell_angle_alpha    60.00000354219606
_cell_angle_beta     60.000004456468474
_cell_angle_gamma    60.000002212251125

_space_group_name_H-M_alt    "P 1"
_space_group_IT_number       1

loop_
  _space_group_symop_operation_xyz
  'x, y, z'

loop_
  _atom_site_type_symbol
  _atom_site_label
  _atom_site_symmetry_multiplicity
  _atom_site_fract_x
  _atom_site_fract_y
  _atom_site_fract_z
  _atom_site_occupancy
  Pd  Pd1       1.0  0.24999928338415392  0.25000026547377213  0.2500000232956519  1.0000
  Pd  Pd2       1.0  0.7499996202813071  0.7500006095901125  0.74999881728063  1.0000
  Mn  Mn1       1.0  1.1992838137681562e-07  0.9999998355072921  2.792908195642901e-07  1.0000
  S   S1        1.0  0.2591378950854672  0.259137573060843  0.7408622149200792  1.0000
  S   S2        1.0  0.7408623466162817  0.7408622460004812  0.2591379288621611  1.0000
  S   S3        1.0  0.740862755688718  0.25913719039692334  0.259138346059527  1.0000
  S   S4        1.0  0.25913829776748015  0.7408621290939591  0.740862185494176  1.0000
  S   S5        1.0  0.2591372600714233  0.7408622041138713  0.25913828372178555  1.0000
  S   S6        1.0  0.740862462044843  0.2591378870711972  0.7408619788169765  1.0000
