data_image0
_chemical_formula_structural       Pd2MnO6
_chemical_formula_sum              "Pd2 Mn1 O6"
_cell_length_a       5.232632675889555
_cell_length_b       5.232632749308215
_cell_length_c       5.232632713780804
_cell_angle_alpha    59.999999919042246
_cell_angle_beta     60.000000611187815
_cell_angle_gamma    59.99999944409551

_space_group_name_H-M_alt    "P 1"
_space_group_IT_number       1

loop_
  _space_group_symop_operation_xyz
  'x, y, z'

loop_
  _atom_site_type_symbol
  _atom_site_label
  _atom_site_symmetry_multiplicity
  _atom_site_fract_x
  _atom_site_fract_y
  _atom_site_fract_z
  _atom_site_occupancy
  Pd  Pd1       1.0  0.24999932334747135  0.2500007048783466  0.24999991680128913  1.0000
  Pd  Pd2       1.0  0.7500009194773141  0.7499997342548111  0.7499997697388925  1.0000
  Mn  Mn1       1.0  0.9999999636673754  0.9999999765940989  6.936256186735297e-09  1.0000
  O   O1        1.0  0.24528026356516203  0.24528081959523843  0.7547194453302594  1.0000
  O   O2        1.0  0.7547197884867787  0.7547190929051343  0.24528055213564015  1.0000
  O   O3        1.0  0.754719607890637  0.2452805004115567  0.2452806153972072  1.0000
  O   O4        1.0  0.24528028284825737  0.7547193465522924  0.7547195566481604  1.0000
  O   O5        1.0  0.24528035574133136  0.7547193663387315  0.2452807199687871  1.0000
  O   O6        1.0  0.7547194941176182  0.2452804642409873  0.7547194195539338  1.0000
