data_image0
_chemical_formula_structural       Pd2MgO6
_chemical_formula_sum              "Pd2 Mg1 O6"
_cell_length_a       5.237551634909153
_cell_length_b       5.237551760381779
_cell_length_c       5.23755174283552
_cell_angle_alpha    59.99999843719327
_cell_angle_beta     59.99999855836835
_cell_angle_gamma    59.99999983475079

_space_group_name_H-M_alt    "P 1"
_space_group_IT_number       1

loop_
  _space_group_symop_operation_xyz
  'x, y, z'

loop_
  _atom_site_type_symbol
  _atom_site_label
  _atom_site_symmetry_multiplicity
  _atom_site_fract_x
  _atom_site_fract_y
  _atom_site_fract_z
  _atom_site_occupancy
  Pd  Pd1       1.0  0.24999937167239447  0.25000028221889325  0.24999984742511228  1.0000
  Pd  Pd2       1.0  0.7499998646404182  0.7499998902543614  0.7500004993507913  1.0000
  Mg  Mg1       1.0  0.9999999537022003  0.9999999999999993  5.1788235668379014e-08  1.0000
  O   O1        1.0  0.2652512657585258  0.26525113322831373  0.7347489936527571  1.0000
  O   O2        1.0  0.7347491007717958  0.7347485785817353  0.2652509114258093  1.0000
  O   O3        1.0  0.7347490389989537  0.26525134757415303  0.2652510724040814  1.0000
  O   O4        1.0  0.26525124239017067  0.7347487056411176  0.7347488210090988  1.0000
  O   O5        1.0  0.2652512865769585  0.7347488418119916  0.2652511257013606  1.0000
  O   O6        1.0  0.7347488783435981  0.26525123011041607  0.7347486810330154  1.0000
