data_image0
_chemical_formula_structural       Pd2MoSe6
_chemical_formula_sum              "Pd2 Mo1 Se6"
_cell_length_a       6.322478478003556
_cell_length_b       6.3224785793712766
_cell_length_c       6.322478333256876
_cell_angle_alpha    60.00000125634328
_cell_angle_beta     59.99999985534253
_cell_angle_gamma    59.99999935281666

_space_group_name_H-M_alt    "P 1"
_space_group_IT_number       1

loop_
  _space_group_symop_operation_xyz
  'x, y, z'

loop_
  _atom_site_type_symbol
  _atom_site_label
  _atom_site_symmetry_multiplicity
  _atom_site_fract_x
  _atom_site_fract_y
  _atom_site_fract_z
  _atom_site_occupancy
  Pd  Pd1       1.0  0.2500003689753007  0.24999998956395894  0.24999979261203023  1.0000
  Pd  Pd2       1.0  0.7500002229733049  0.7500001604675374  0.7499996970363748  1.0000
  Mo  Mo1       1.0  3.226645631907338e-08  0.9999999360747842  0.9999999588896826  1.0000
  Se  Se1       1.0  0.2741603104118531  0.27416031264314683  0.725839705003441  1.0000
  Se  Se2       1.0  0.7258395841148392  0.7258397928344245  0.27416039446328344  1.0000
  Se  Se3       1.0  0.7258395558098313  0.2741602576979561  0.27416043833743664  1.0000
  Se  Se4       1.0  0.2741602094740066  0.7258396656896106  0.7258397978158191  1.0000
  Se  Se5       1.0  0.27416011218798403  0.7258396739962708  0.2741604423179115  1.0000
  Se  Se6       1.0  0.7258395831789586  0.2741602125858701  0.7258397902568083  1.0000
