data_image0
_chemical_formula_structural       Pd2MnSe6
_chemical_formula_sum              "Pd2 Mn1 Se6"
_cell_length_a       6.213625839877849
_cell_length_b       6.213625150608723
_cell_length_c       6.213625496844634
_cell_angle_alpha    59.99999900999357
_cell_angle_beta     59.999999406271336
_cell_angle_gamma    59.99999995799208

_space_group_name_H-M_alt    "P 1"
_space_group_IT_number       1

loop_
  _space_group_symop_operation_xyz
  'x, y, z'

loop_
  _atom_site_type_symbol
  _atom_site_label
  _atom_site_symmetry_multiplicity
  _atom_site_fract_x
  _atom_site_fract_y
  _atom_site_fract_z
  _atom_site_occupancy
  Pd  Pd1       1.0  0.2500000325527777  0.2500000037105199  0.2499998793814866  1.0000
  Pd  Pd2       1.0  0.7499999088230885  0.7499999086362629  0.7499999640587683  1.0000
  Mn  Mn1       1.0  2.0853925678072978e-08  4.33633928496988e-08  0.9999998745480904  1.0000
  Se  Se1       1.0  0.26865156102170323  0.268651567337993  0.7313485297090554  1.0000
  Se  Se2       1.0  0.7313484823178408  0.731348390343258  0.26865167943914786  1.0000
  Se  Se3       1.0  0.7313483817898145  0.2686516602591881  0.2686515142313447  1.0000
  Se  Se4       1.0  0.2686516691698525  0.731348352611833  0.7313484221069544  1.0000
  Se  Se5       1.0  0.2686515639318337  0.7313484345740858  0.26865162469833725  1.0000
  Se  Se6       1.0  0.7313483953863813  0.2686516413709635  0.7313484900790471  1.0000
