data_image0
_chemical_formula_structural       Pd2MoO6
_chemical_formula_sum              "Pd2 Mo1 O6"
_cell_length_a       5.284119642065493
_cell_length_b       5.284120043029901
_cell_length_c       5.284120460074661
_cell_angle_alpha    60.000007493769914
_cell_angle_beta     60.00000237047908
_cell_angle_gamma    60.000005292057054

_space_group_name_H-M_alt    "P 1"
_space_group_IT_number       1

loop_
  _space_group_symop_operation_xyz
  'x, y, z'

loop_
  _atom_site_type_symbol
  _atom_site_label
  _atom_site_symmetry_multiplicity
  _atom_site_fract_x
  _atom_site_fract_y
  _atom_site_fract_z
  _atom_site_occupancy
  Pd  Pd1       1.0  0.2500014658498483  0.24999872045751761  0.25000004606248394  1.0000
  Pd  Pd2       1.0  0.7500008260147023  0.7499994549431457  0.749998791586536  1.0000
  Mo  Mo1       1.0  0.9999997053880068  2.0860050620930614e-07  0.9999996701906234  1.0000
  O   O1        1.0  0.25905678270363086  0.2590573670900544  0.7409436994916538  1.0000
  O   O2        1.0  0.7409424052084497  0.740943531706718  0.2590575615413701  1.0000
  O   O3        1.0  0.7409419615884526  0.25905714177272327  0.25905723109078854  1.0000
  O   O4        1.0  0.25905701478076265  0.7409434673009513  0.7409427893147054  1.0000
  O   O5        1.0  0.25905662296088494  0.7409429668220774  0.2590573058680792  1.0000
  O   O6        1.0  0.7409431092170885  0.2590572366394603  0.7409427873517078  1.0000
