data_image0
_chemical_formula_structural       Pd2MnO6
_chemical_formula_sum              "Pd2 Mn1 O6"
_cell_length_a       5.232556566521957
_cell_length_b       5.232556708787601
_cell_length_c       5.232556152446516
_cell_angle_alpha    59.999998807316445
_cell_angle_beta     59.99999808983445
_cell_angle_gamma    59.99999748651805

_space_group_name_H-M_alt    "P 1"
_space_group_IT_number       1

loop_
  _space_group_symop_operation_xyz
  'x, y, z'

loop_
  _atom_site_type_symbol
  _atom_site_label
  _atom_site_symmetry_multiplicity
  _atom_site_fract_x
  _atom_site_fract_y
  _atom_site_fract_z
  _atom_site_occupancy
  Pd  Pd1       1.0  0.2500002445211177  0.24999981009166597  0.24999999991742267  1.0000
  Pd  Pd2       1.0  0.7500000856087691  0.7500002354497752  0.7499989674973581  1.0000
  Mn  Mn1       1.0  0.9999999797375558  2.106561778937219e-08  1.4887307812546646e-08  1.0000
  O   O1        1.0  0.24529919514510856  0.24529909539702696  0.7547008581582588  1.0000
  O   O2        1.0  0.7547007672357334  0.754700947803755  0.24529949830184383  1.0000
  O   O3        1.0  0.7547007599056785  0.24529886810878695  0.24529942513341008  1.0000
  O   O4        1.0  0.2452992298972918  0.7547008942170955  0.7547008841419102  1.0000
  O   O5        1.0  0.2452989273998322  0.7547008916335144  0.2452993212792065  1.0000
  O   O6        1.0  0.7547008391796274  0.24529923582974686  0.7547009953947594  1.0000
