data_image0
_chemical_formula_structural       Pd2NbO6
_chemical_formula_sum              "Pd2 Nb1 O6"
_cell_length_a       5.368041400502091
_cell_length_b       5.368041542690718
_cell_length_c       5.368041522609545
_cell_angle_alpha    59.9999969947076
_cell_angle_beta     59.99999693664604
_cell_angle_gamma    59.999997074003716

_space_group_name_H-M_alt    "P 1"
_space_group_IT_number       1

loop_
  _space_group_symop_operation_xyz
  'x, y, z'

loop_
  _atom_site_type_symbol
  _atom_site_label
  _atom_site_symmetry_multiplicity
  _atom_site_fract_x
  _atom_site_fract_y
  _atom_site_fract_z
  _atom_site_occupancy
  Pd  Pd1       1.0  0.250000026350181  0.24999994939922957  0.2500003462363861  1.0000
  Pd  Pd2       1.0  0.7500004989668335  0.7499997113047623  0.7500004407926568  1.0000
  Nb  Nb1       1.0  9.907947354181548e-08  0.9999999931553538  0.9999998812303896  1.0000
  O   O1        1.0  0.2635932199496358  0.2635935979094819  0.7364064847406885  1.0000
  O   O2        1.0  0.736406646895251  0.7364064894441905  0.2635932166440451  1.0000
  O   O3        1.0  0.7364063782232381  0.26359361067940607  0.2635932844449358  1.0000
  O   O4        1.0  0.2635931904026809  0.7364066614797307  0.7364064233488768  1.0000
  O   O5        1.0  0.26359337919267783  0.7364066056759521  0.2635934325685901  1.0000
  O   O6        1.0  0.7364065756520645  0.2635933790080138  0.7364065071477929  1.0000
