data_image0
_chemical_formula_structural       Pd2NbS6
_chemical_formula_sum              "Pd2 Nb1 S6"
_cell_length_a       6.166128890818059
_cell_length_b       6.1661292738419675
_cell_length_c       6.166129105328331
_cell_angle_alpha    60.00000006844248
_cell_angle_beta     60.00000032404927
_cell_angle_gamma    59.99999947549463

_space_group_name_H-M_alt    "P 1"
_space_group_IT_number       1

loop_
  _space_group_symop_operation_xyz
  'x, y, z'

loop_
  _atom_site_type_symbol
  _atom_site_label
  _atom_site_symmetry_multiplicity
  _atom_site_fract_x
  _atom_site_fract_y
  _atom_site_fract_z
  _atom_site_occupancy
  Pd  Pd1       1.0  0.25000050911146027  0.24999986272571736  0.24999951645275004  1.0000
  Pd  Pd2       1.0  0.7499996349120253  0.7499998722103327  0.7500001044290808  1.0000
  Nb  Nb1       1.0  4.3337135942229656e-08  0.9999999205501648  3.751750652317918e-08  1.0000
  S   S1        1.0  0.26855407945601273  0.2685540884332202  0.7314459586545177  1.0000
  S   S2        1.0  0.7314457539636107  0.7314461569680127  0.2685540131467585  1.0000
  S   S3        1.0  0.7314458074217416  0.26855419255236523  0.2685540505142252  1.0000
  S   S4        1.0  0.26855430359176224  0.7314456695034107  0.7314461347173811  1.0000
  S   S5        1.0  0.26855423928562994  0.7314459148173684  0.2685539750977613  1.0000
  S   S6        1.0  0.7314456247584904  0.26855432859761474  0.7314462045659217  1.0000
