data_image0
_chemical_formula_structural       Pd2NbSe6
_chemical_formula_sum              "Pd2 Nb1 Se6"
_cell_length_a       6.42701107376307
_cell_length_b       6.4270113951925705
_cell_length_c       6.427011048154407
_cell_angle_alpha    59.99999581157391
_cell_angle_beta     59.99999572294936
_cell_angle_gamma    59.99999399111461

_space_group_name_H-M_alt    "P 1"
_space_group_IT_number       1

loop_
  _space_group_symop_operation_xyz
  'x, y, z'

loop_
  _atom_site_type_symbol
  _atom_site_label
  _atom_site_symmetry_multiplicity
  _atom_site_fract_x
  _atom_site_fract_y
  _atom_site_fract_z
  _atom_site_occupancy
  Pd  Pd1       1.0  0.25000040551096525  0.2499997876446647  0.2500001787968167  1.0000
  Pd  Pd2       1.0  0.7499998156042613  0.7499996849841092  0.7499998264153658  1.0000
  Nb  Nb1       1.0  0.9999999511451525  4.954616374216705e-08  0.9999998113864216  1.0000
  Se  Se1       1.0  0.2737170332249306  0.2737171571160562  0.7262826424675731  1.0000
  Se  Se2       1.0  0.7262826760164585  0.7262831234961371  0.27371729559832625  1.0000
  Se  Se3       1.0  0.7262826201049987  0.2737171499073994  0.27371721891312606  1.0000
  Se  Se4       1.0  0.27371731918072273  0.72628300112253  0.726282864969323  1.0000
  Se  Se5       1.0  0.27371717700335907  0.726282776504253  0.2737171793796984  1.0000
  Se  Se6       1.0  0.7262829987503526  0.2737172849614599  0.726282986644182  1.0000
