data_image0
_chemical_formula_structural       Pd2NiS6
_chemical_formula_sum              "Pd2 Ni1 S6"
_cell_length_a       6.013025638931587
_cell_length_b       6.013025873218704
_cell_length_c       6.013025671876704
_cell_angle_alpha    60.00000092156156
_cell_angle_beta     60.000000137775864
_cell_angle_gamma    60.00000038856245

_space_group_name_H-M_alt    "P 1"
_space_group_IT_number       1

loop_
  _space_group_symop_operation_xyz
  'x, y, z'

loop_
  _atom_site_type_symbol
  _atom_site_label
  _atom_site_symmetry_multiplicity
  _atom_site_fract_x
  _atom_site_fract_y
  _atom_site_fract_z
  _atom_site_occupancy
  Pd  Pd1       1.0  0.25000004637401574  0.25000012623908896  0.2499997765864043  1.0000
  Pd  Pd2       1.0  0.7500000820048812  0.749999916359231  0.7500001582620561  1.0000
  Ni  Ni1       1.0  0.9999999177352161  5.092048920659963e-08  0.9999999724326842  1.0000
  S   S1        1.0  0.252699044264298  0.25269916300834594  0.7473008780118156  1.0000
  S   S2        1.0  0.7473008944277115  0.7473009244000058  0.25269895465416464  1.0000
  S   S3        1.0  0.7473010139045124  0.25269903339830874  0.25269907421960847  1.0000
  S   S4        1.0  0.2526990133791572  0.7473008055180583  0.7473010379632862  1.0000
  S   S5        1.0  0.2526991337344715  0.7473009293668647  0.252699071084505  1.0000
  S   S6        1.0  0.74730084658586  0.2526990562005091  0.7473010644290307  1.0000
