data_image0
_chemical_formula_structural       Pd2NiN6
_chemical_formula_sum              "Pd2 Ni1 N6"
_cell_length_a       4.961109580314103
_cell_length_b       4.961109607248725
_cell_length_c       4.961109543060905
_cell_angle_alpha    59.999998737600386
_cell_angle_beta     59.99999640861638
_cell_angle_gamma    59.99999908440095

_space_group_name_H-M_alt    "P 1"
_space_group_IT_number       1

loop_
  _space_group_symop_operation_xyz
  'x, y, z'

loop_
  _atom_site_type_symbol
  _atom_site_label
  _atom_site_symmetry_multiplicity
  _atom_site_fract_x
  _atom_site_fract_y
  _atom_site_fract_z
  _atom_site_occupancy
  Pd  Pd1       1.0  0.2500007800720041  0.249999828064382  0.24999991496203705  1.0000
  Pd  Pd2       1.0  0.7499981484036694  0.7500008666603494  0.7499993777777096  1.0000
  Ni  Ni1       1.0  0.9999999728443939  8.146681735050298e-08  0.999999986954141  1.0000
  N   N1        1.0  0.2690452762737649  0.269042926430425  0.7309555884660428  1.0000
  N   N2        1.0  0.7309553235121642  0.7309565388859666  0.26904508175546943  1.0000
  N   N3        1.0  0.7309548733082877  0.2690435557275766  0.2690447049116135  1.0000
  N   N4        1.0  0.26904561381341574  0.7309561218962799  0.7309555768543541  1.0000
  N   N5        1.0  0.26904456589617903  0.7309557093054567  0.2690434930272919  1.0000
  N   N6        1.0  0.7309554638525336  0.2690443559029573  0.730956265290059  1.0000
