data_image0
_chemical_formula_structural       Pd2NiO6
_chemical_formula_sum              "Pd2 Ni1 O6"
_cell_length_a       5.144077187833991
_cell_length_b       5.1440774758272845
_cell_length_c       5.144076984795965
_cell_angle_alpha    59.99999935485173
_cell_angle_beta     59.99999962730654
_cell_angle_gamma    59.99999965000172

_space_group_name_H-M_alt    "P 1"
_space_group_IT_number       1

loop_
  _space_group_symop_operation_xyz
  'x, y, z'

loop_
  _atom_site_type_symbol
  _atom_site_label
  _atom_site_symmetry_multiplicity
  _atom_site_fract_x
  _atom_site_fract_y
  _atom_site_fract_z
  _atom_site_occupancy
  Pd  Pd1       1.0  0.2500014181117273  0.25000141133806053  0.24999794265834224  1.0000
  Pd  Pd2       1.0  0.74999925480099  0.7499990032132023  0.7500034240244439  1.0000
  Ni  Ni1       1.0  0.9999999716122872  0.9999999976191198  0.9999999337369964  1.0000
  O   O1        1.0  0.24970130330507287  0.24970138736166647  0.7502988416770221  1.0000
  O   O2        1.0  0.7502987006895431  0.750298555774792  0.24970023168476727  1.0000
  O   O3        1.0  0.7502982649242718  0.2497022629098151  0.24970038121851343  1.0000
  O   O4        1.0  0.24970116328635086  0.7502978183178699  0.7502993872655829  1.0000
  O   O5        1.0  0.24970222976548143  0.7502982605207692  0.24970044055473184  1.0000
  O   O6        1.0  0.7502977036743523  0.24970130167432233  0.7502994320302315  1.0000
