data_image0
_chemical_formula_structural       Pd2OsO6
_chemical_formula_sum              "Pd2 Os1 O6"
_cell_length_a       5.3528391202144014
_cell_length_b       5.3528393874228195
_cell_length_c       5.352839316512639
_cell_angle_alpha    59.99999996579527
_cell_angle_beta     60.00000043078493
_cell_angle_gamma    60.00000081882656

_space_group_name_H-M_alt    "P 1"
_space_group_IT_number       1

loop_
  _space_group_symop_operation_xyz
  'x, y, z'

loop_
  _atom_site_type_symbol
  _atom_site_label
  _atom_site_symmetry_multiplicity
  _atom_site_fract_x
  _atom_site_fract_y
  _atom_site_fract_z
  _atom_site_occupancy
  Pd  Pd1       1.0  0.24999986116318898  0.2500001107156964  0.25000024638422186  1.0000
  Pd  Pd2       1.0  0.7499995278295776  0.749999593113923  0.7499999427402656  1.0000
  Os  Os1       1.0  0.9999999385747438  1.6016198687650456e-08  4.885887180778458e-08  1.0000
  O   O1        1.0  0.2464100661925334  0.24640984742571395  0.7535898442618364  1.0000
  O   O2        1.0  0.7535901681917879  0.7535900188539193  0.24641013798049582  1.0000
  O   O3        1.0  0.7535901301735894  0.2464100971123997  0.24640982305742487  1.0000
  O   O4        1.0  0.246410172298022  0.753590082627126  0.7535900711605239  1.0000
  O   O5        1.0  0.2464100721249344  0.7535900473093012  0.2464098202991575  1.0000
  O   O6        1.0  0.7535900638292645  0.24641019191896438  0.7535900620472656  1.0000
