data_image0
_chemical_formula_structural       Pd2OsS6
_chemical_formula_sum              "Pd2 Os1 S6"
_cell_length_a       5.95109368895035
_cell_length_b       5.951093485878174
_cell_length_c       5.951093561213932
_cell_angle_alpha    60.00000024463957
_cell_angle_beta     60.00000084885709
_cell_angle_gamma    59.999999519151324

_space_group_name_H-M_alt    "P 1"
_space_group_IT_number       1

loop_
  _space_group_symop_operation_xyz
  'x, y, z'

loop_
  _atom_site_type_symbol
  _atom_site_label
  _atom_site_symmetry_multiplicity
  _atom_site_fract_x
  _atom_site_fract_y
  _atom_site_fract_z
  _atom_site_occupancy
  Pd  Pd1       1.0  0.25000000283540347  0.250000011823957  0.24999989326222036  1.0000
  Pd  Pd2       1.0  0.7499999816579581  0.7499998831786494  0.7500000130100948  1.0000
  Os  Os1       1.0  0.999999891930776  0.9999999691297526  1.165199115078696e-07  1.0000
  S   S1        1.0  0.270293022501818  0.27029328070836844  0.7297068615921986  1.0000
  S   S2        1.0  0.7297069137726788  0.7297069044745695  0.2702930715713667  1.0000
  S   S3        1.0  0.7297069549999428  0.2702931217533774  0.2702930960645904  1.0000
  S   S4        1.0  0.27029307498151983  0.7297068638019578  0.7297069639952835  1.0000
  S   S5        1.0  0.2702931877535479  0.7297068029634819  0.27029309889499814  1.0000
  S   S6        1.0  0.7297069407334509  0.2702931723017702  0.7297068868106077  1.0000
