data_image0
_chemical_formula_structural       Pd2PS6
_chemical_formula_sum              "Pd2 P1 S6"
_cell_length_a       6.11291908515818
_cell_length_b       6.1129192298745485
_cell_length_c       6.112919007851798
_cell_angle_alpha    60.000001189809154
_cell_angle_beta     60.00000079083529
_cell_angle_gamma    60.00000116630901

_space_group_name_H-M_alt    "P 1"
_space_group_IT_number       1

loop_
  _space_group_symop_operation_xyz
  'x, y, z'

loop_
  _atom_site_type_symbol
  _atom_site_label
  _atom_site_symmetry_multiplicity
  _atom_site_fract_x
  _atom_site_fract_y
  _atom_site_fract_z
  _atom_site_occupancy
  Pd  Pd1       1.0  0.2500001233825915  0.24999988873584064  0.2500000070673556  1.0000
  Pd  Pd2       1.0  0.7499998492617796  0.7500004015049205  0.7499998452894169  1.0000
  P   P1        1.0  1.983876103509412e-09  2.8049492006483293e-08  1.1157390853165086e-08  1.0000
  S   S1        1.0  0.2499958030055099  0.24999532792000004  0.7500044044887033  1.0000
  S   S2        1.0  0.750004350834378  0.7500044414016233  0.24999558337640687  1.0000
  S   S3        1.0  0.7500043631440403  0.24999549086355613  0.2499956752417389  1.0000
  S   S4        1.0  0.2499956321548268  0.7500044367373437  0.7500043111183637  1.0000
  S   S5        1.0  0.24999549075297772  0.7500045096344681  0.24999566930712444  1.0000
  S   S6        1.0  0.7500043869529256  0.24999547606895078  0.7500044711250559  1.0000
