data_image0
_chemical_formula_structural       Pd2PO6
_chemical_formula_sum              "Pd2 P1 O6"
_cell_length_a       5.188403511709547
_cell_length_b       5.188402620457188
_cell_length_c       5.1884003377292585
_cell_angle_alpha    60.00001020674812
_cell_angle_beta     60.00001554795016
_cell_angle_gamma    60.00000737108535

_space_group_name_H-M_alt    "P 1"
_space_group_IT_number       1

loop_
  _space_group_symop_operation_xyz
  'x, y, z'

loop_
  _atom_site_type_symbol
  _atom_site_label
  _atom_site_symmetry_multiplicity
  _atom_site_fract_x
  _atom_site_fract_y
  _atom_site_fract_z
  _atom_site_occupancy
  Pd  Pd1       1.0  0.24999562195580344  0.24999209317453686  0.25000759809783113  1.0000
  Pd  Pd2       1.0  0.7500071857745458  0.7500065558493646  0.7499920802478476  1.0000
  P   P1        1.0  1.523313390019264e-07  9.985097045394201e-07  0.9999995768421701  1.0000
  O   O1        1.0  0.23172557695189022  0.23172767962547797  0.7682732368277203  1.0000
  O   O2        1.0  0.768272873148996  0.7682734999004592  0.23172660340497464  1.0000
  O   O3        1.0  0.7682739482384009  0.23172330807534025  0.23173080907523305  1.0000
  O   O4        1.0  0.23172452622513415  0.7682755817238474  0.7682702775547902  1.0000
  O   O5        1.0  0.2317255155854614  0.7682745057285053  0.23172831778963848  1.0000
  O   O6        1.0  0.7682747474292264  0.2317255147708529  0.7682711723709033  1.0000
