data_image0
_chemical_formula_structural       Pd2PtSe6
_chemical_formula_sum              "Pd2 Pt1 Se6"
_cell_length_a       6.330279682765214
_cell_length_b       6.330279548965271
_cell_length_c       6.330279696436508
_cell_angle_alpha    59.999999446716494
_cell_angle_beta     59.99999989028124
_cell_angle_gamma    60.00000022109903

_space_group_name_H-M_alt    "P 1"
_space_group_IT_number       1

loop_
  _space_group_symop_operation_xyz
  'x, y, z'

loop_
  _atom_site_type_symbol
  _atom_site_label
  _atom_site_symmetry_multiplicity
  _atom_site_fract_x
  _atom_site_fract_y
  _atom_site_fract_z
  _atom_site_occupancy
  Pd  Pd1       1.0  0.24999988186753033  0.2500000279614335  0.25000004728502073  1.0000
  Pd  Pd2       1.0  0.7499999591091936  0.749999936844019  0.7500000886363729  1.0000
  Pt  Pt1       1.0  0.9999999686585063  1.741266499506599e-08  8.544123442265377e-09  1.0000
  Se  Se1       1.0  0.28090058892965586  0.28090062666674837  0.7190994105216733  1.0000
  Se  Se2       1.0  0.7190993979553529  0.7190993710292954  0.28090062968144613  1.0000
  Se  Se3       1.0  0.719099438995699  0.28090064780788626  0.2809005705768796  1.0000
  Se  Se4       1.0  0.28090063373223023  0.7190993440839365  0.7190993885344553  1.0000
  Se  Se5       1.0  0.28090067997620466  0.7190993700272437  0.28090055822931737  1.0000
  Se  Se6       1.0  0.7190994542175659  0.2809006508856884  0.7190992971893081  1.0000
