data_image0
_chemical_formula_structural       Pd2PtO6
_chemical_formula_sum              "Pd2 Pt1 O6"
_cell_length_a       5.29867917467125
_cell_length_b       5.298679286632195
_cell_length_c       5.298679213071341
_cell_angle_alpha    60.00000016806703
_cell_angle_beta     60.00000003989089
_cell_angle_gamma    60.000001539424034

_space_group_name_H-M_alt    "P 1"
_space_group_IT_number       1

loop_
  _space_group_symop_operation_xyz
  'x, y, z'

loop_
  _atom_site_type_symbol
  _atom_site_label
  _atom_site_symmetry_multiplicity
  _atom_site_fract_x
  _atom_site_fract_y
  _atom_site_fract_z
  _atom_site_occupancy
  Pd  Pd1       1.0  0.24999992443926816  0.24999992244148728  0.2500000488826661  1.0000
  Pd  Pd2       1.0  0.7500000436017659  0.7500001071025196  0.750000111495564  1.0000
  Pt  Pt1       1.0  0.9999999810252697  4.6228305509556674e-09  0.9999999845287966  1.0000
  O   O1        1.0  0.25718311218810624  0.2571831358663475  0.7428168904687806  1.0000
  O   O2        1.0  0.7428168718779616  0.7428168913662455  0.25718300827216584  1.0000
  O   O3        1.0  0.742816922829294  0.2571831013706237  0.2571831450576762  1.0000
  O   O4        1.0  0.2571830967653073  0.7428168911907392  0.7428168268578665  1.0000
  O   O5        1.0  0.2571831591656135  0.7428169025525264  0.25718311476732325  1.0000
  O   O6        1.0  0.7428168867345395  0.2571830437805299  0.7428168557860205  1.0000
