data_image0
_chemical_formula_structural       Pd2PtO6
_chemical_formula_sum              "Pd2 Pt1 O6"
_cell_length_a       5.299297039819931
_cell_length_b       5.299296161613398
_cell_length_c       5.299296879894989
_cell_angle_alpha    60.00000118007652
_cell_angle_beta     59.99999818542397
_cell_angle_gamma    60.00000046485304

_space_group_name_H-M_alt    "P 1"
_space_group_IT_number       1

loop_
  _space_group_symop_operation_xyz
  'x, y, z'

loop_
  _atom_site_type_symbol
  _atom_site_label
  _atom_site_symmetry_multiplicity
  _atom_site_fract_x
  _atom_site_fract_y
  _atom_site_fract_z
  _atom_site_occupancy
  Pd  Pd1       1.0  0.2500006488562495  0.24999918460503381  0.24999997355607015  1.0000
  Pd  Pd2       1.0  0.7499999151978124  0.7500000983871135  0.7499999131574737  1.0000
  Pt  Pt1       1.0  5.0512822507873405e-08  0.999999979199687  9.675299659479175e-09  1.0000
  O   O1        1.0  0.25713670593319043  0.2571363932832648  0.7428634616129339  1.0000
  O   O2        1.0  0.7428629718537326  0.7428641169275504  0.25713651692386535  1.0000
  O   O3        1.0  0.7428634330901651  0.25713657838016274  0.2571364041652695  1.0000
  O   O4        1.0  0.2571364337915358  0.7428634233784617  0.742863543458888  1.0000
  O   O5        1.0  0.2571363392997566  0.7428636435661639  0.25713668357762803  1.0000
  O   O6        1.0  0.7428635116870388  0.2571365823736783  0.7428635410860281  1.0000
