data_image0
_chemical_formula_structural       Pd2PtS6
_chemical_formula_sum              "Pd2 Pt1 S6"
_cell_length_a       6.122894468145375
_cell_length_b       6.122894443148866
_cell_length_c       6.122894379908732
_cell_angle_alpha    59.99999995169302
_cell_angle_beta     60.00000044565571
_cell_angle_gamma    60.00000057725744

_space_group_name_H-M_alt    "P 1"
_space_group_IT_number       1

loop_
  _space_group_symop_operation_xyz
  'x, y, z'

loop_
  _atom_site_type_symbol
  _atom_site_label
  _atom_site_symmetry_multiplicity
  _atom_site_fract_x
  _atom_site_fract_y
  _atom_site_fract_z
  _atom_site_occupancy
  Pd  Pd1       1.0  0.2500002036601914  0.2499998724488017  0.24999998728891726  1.0000
  Pd  Pd2       1.0  0.749999801228035  0.7500000834095629  0.7500000030542798  1.0000
  Pt  Pt1       1.0  0.9999999910085939  1.0001355479860785e-08  0.9999999717303785  1.0000
  S   S1        1.0  0.26156095687893416  0.2615609071698356  0.7384390508261186  1.0000
  S   S2        1.0  0.7384389771827633  0.7384391367004561  0.2615609292911646  1.0000
  S   S3        1.0  0.7384389533676674  0.26156092141202975  0.26156097888524343  1.0000
  S   S4        1.0  0.2615610484907113  0.7384390944544669  0.7384390793284679  1.0000
  S   S5        1.0  0.2615610015901768  0.738439088505605  0.2615609025979576  1.0000
  S   S6        1.0  0.7384390639499436  0.26156091735953674  0.7384390879451973  1.0000
