data_image0
_chemical_formula_structural       Pd2PtSe6
_chemical_formula_sum              "Pd2 Pt1 Se6"
_cell_length_a       6.329563511592368
_cell_length_b       6.329563456937884
_cell_length_c       6.329563843831121
_cell_angle_alpha    59.99999819717611
_cell_angle_beta     59.999998620448025
_cell_angle_gamma    59.99999741479305

_space_group_name_H-M_alt    "P 1"
_space_group_IT_number       1

loop_
  _space_group_symop_operation_xyz
  'x, y, z'

loop_
  _atom_site_type_symbol
  _atom_site_label
  _atom_site_symmetry_multiplicity
  _atom_site_fract_x
  _atom_site_fract_y
  _atom_site_fract_z
  _atom_site_occupancy
  Pd  Pd1       1.0  0.24999988954694882  0.2499995424499058  0.2500003985390737  1.0000
  Pd  Pd2       1.0  0.7500000605034272  0.7500003688132725  0.7500004212333797  1.0000
  Pt  Pt1       1.0  1.715533718867549e-08  2.5154473386458795e-08  0.999999967785881  1.0000
  Se  Se1       1.0  0.28085500332702285  0.2808548016670923  0.7191451439369452  1.0000
  Se  Se2       1.0  0.7191449604134424  0.7191451889294247  0.2808546450537637  1.0000
  Se  Se3       1.0  0.7191451184720083  0.280855009684551  0.28085492327378064  1.0000
  Se  Se4       1.0  0.2808546978638148  0.7191452808306925  0.7191447989392123  1.0000
  Se  Se5       1.0  0.28085508617392174  0.7191451564952623  0.28085481974482635  1.0000
  Se  Se6       1.0  0.719145166785751  0.2808546231906635  0.719144882694944  1.0000
