data_image0
_chemical_formula_structural       Pd2RhSe6
_chemical_formula_sum              "Pd2 Rh1 Se6"
_cell_length_a       6.294431413545646
_cell_length_b       6.294431465641443
_cell_length_c       6.294431478804246
_cell_angle_alpha    60.00000014879488
_cell_angle_beta     59.999999100131284
_cell_angle_gamma    60.00000002164867

_space_group_name_H-M_alt    "P 1"
_space_group_IT_number       1

loop_
  _space_group_symop_operation_xyz
  'x, y, z'

loop_
  _atom_site_type_symbol
  _atom_site_label
  _atom_site_symmetry_multiplicity
  _atom_site_fract_x
  _atom_site_fract_y
  _atom_site_fract_z
  _atom_site_occupancy
  Pd  Pd1       1.0  0.25000012546059697  0.24999996765648685  0.24999989411394585  1.0000
  Pd  Pd2       1.0  0.7499999704021433  0.7500001247860237  0.7499999364713767  1.0000
  Rh  Rh1       1.0  0.999999990290296  0.9999999961084812  0.9999999861474356  1.0000
  Se  Se1       1.0  0.2783679111199955  0.2783678410038609  0.7216321567778182  1.0000
  Se  Se2       1.0  0.7216321022102579  0.7216322183607419  0.278367871418815  1.0000
  Se  Se3       1.0  0.7216321117191676  0.278367824224431  0.27836791803455574  1.0000
  Se  Se4       1.0  0.27836789898182984  0.7216321164488534  0.7216321390482479  1.0000
  Se  Se5       1.0  0.2783678524109533  0.7216320930173965  0.2783678920574159  1.0000
  Se  Se6       1.0  0.7216320414397546  0.27836781846949804  0.7216322015034939  1.0000
