data_image0
_chemical_formula_structural       Pd2RhO6
_chemical_formula_sum              "Pd2 Rh1 O6"
_cell_length_a       2.8980120038337636
_cell_length_b       3.1744228099955696
_cell_length_c       2.8146289094124493
_cell_angle_alpha    56.35276170400167
_cell_angle_beta     53.095954769555654
_cell_angle_gamma    59.347611820157795

_space_group_name_H-M_alt    "P 1"
_space_group_IT_number       1

loop_
  _space_group_symop_operation_xyz
  'x, y, z'

loop_
  _atom_site_type_symbol
  _atom_site_label
  _atom_site_symmetry_multiplicity
  _atom_site_fract_x
  _atom_site_fract_y
  _atom_site_fract_z
  _atom_site_occupancy
  Pd  Pd1       1.0  0.7564545189395758  0.020894065132934347  0.25441261231841994  1.0000
  Pd  Pd2       1.0  0.03166131658965776  0.5693180896236139  0.2052242191918437  1.0000
  Rh  Rh1       1.0  0.6498728643155987  0.8639653182935515  0.855059060129981  1.0000
  O   O1        1.0  0.9677580670375143  0.23579146756911196  0.794522364806127  1.0000
  O   O2        1.0  0.2895288020597542  0.623724569314499  0.7444579758946903  1.0000
  O   O3        1.0  0.5292314410562212  0.3808848700337859  0.9137668351040774  1.0000
  O   O4        1.0  0.5559349841031851  0.9584287271650063  0.7680524802520817  1.0000
  O   O5        1.0  0.6216227026768942  0.8906221118091671  0.8299702524761067  1.0000
  O   O6        1.0  0.34493254118318195  0.20291634298814865  0.20085055643747016  1.0000
