data_image0
_chemical_formula_structural       Pd2ReS6
_chemical_formula_sum              "Pd2 Re1 S6"
_cell_length_a       6.0936280609653295
_cell_length_b       6.093628021523815
_cell_length_c       6.093628067461204
_cell_angle_alpha    60.0000001411166
_cell_angle_beta     59.99999940767441
_cell_angle_gamma    60.00000057694832

_space_group_name_H-M_alt    "P 1"
_space_group_IT_number       1

loop_
  _space_group_symop_operation_xyz
  'x, y, z'

loop_
  _atom_site_type_symbol
  _atom_site_label
  _atom_site_symmetry_multiplicity
  _atom_site_fract_x
  _atom_site_fract_y
  _atom_site_fract_z
  _atom_site_occupancy
  Pd  Pd1       1.0  0.25000003549264777  0.2499998733329306  0.25000006435298305  1.0000
  Pd  Pd2       1.0  0.7499999319831236  0.7500000923201139  0.7500004576924365  1.0000
  Re  Re1       1.0  1.3596402861072997e-09  0.9999999618123185  0.9999999921570848  1.0000
  S   S1        1.0  0.26701856623188236  0.2670184399845146  0.7329814904080592  1.0000
  S   S2        1.0  0.7329814400029271  0.7329815799352304  0.26701824172500066  1.0000
  S   S3        1.0  0.732981549162209  0.26701863115313346  0.26701840264395915  1.0000
  S   S4        1.0  0.2670185431457448  0.7329815455370939  0.7329813672499595  1.0000
  S   S5        1.0  0.2670185358660585  0.732981518375026  0.26701844932520924  1.0000
  S   S6        1.0  0.7329814147294488  0.2670183387446045  0.7329815397228217  1.0000
