data_image0
_chemical_formula_structural       Pd2RuS6
_chemical_formula_sum              "Pd2 Ru1 S6"
_cell_length_a       5.9642776990841835
_cell_length_b       5.96427752502701
_cell_length_c       5.964277590189616
_cell_angle_alpha    60.00000053001956
_cell_angle_beta     60.00000193590576
_cell_angle_gamma    60.000000157288014

_space_group_name_H-M_alt    "P 1"
_space_group_IT_number       1

loop_
  _space_group_symop_operation_xyz
  'x, y, z'

loop_
  _atom_site_type_symbol
  _atom_site_label
  _atom_site_symmetry_multiplicity
  _atom_site_fract_x
  _atom_site_fract_y
  _atom_site_fract_z
  _atom_site_occupancy
  Pd  Pd1       1.0  0.24999968789857657  0.2499999920335489  0.25000014158406375  1.0000
  Pd  Pd2       1.0  0.7499999319317691  0.750000199928579  0.7499996473426553  1.0000
  Ru  Ru1       1.0  5.808082530495236e-09  1.2250966325781184e-16  2.0569044597429382e-08  1.0000
  S   S1        1.0  0.26744995557082435  0.26744993440932724  0.7325500611487823  1.0000
  S   S2        1.0  0.7325501199139192  0.7325500522060757  0.26745004022948987  1.0000
  S   S3        1.0  0.7325502057297737  0.26744976717471564  0.26745001323519957  1.0000
  S   S4        1.0  0.2674499629796154  0.7325501023930525  0.7325500849647263  1.0000
  S   S5        1.0  0.26744989740951164  0.7325500712853306  0.2674499836119453  1.0000
  S   S6        1.0  0.7325502317370989  0.2674498763141934  0.7325499914012547  1.0000
