data_image0
_chemical_formula_structural       Pd2RuO6
_chemical_formula_sum              "Pd2 Ru1 O6"
_cell_length_a       5.332115392792658
_cell_length_b       5.332115411855617
_cell_length_c       5.332115511831569
_cell_angle_alpha    59.999998579141106
_cell_angle_beta     59.99999927558747
_cell_angle_gamma    59.99999848761198

_space_group_name_H-M_alt    "P 1"
_space_group_IT_number       1

loop_
  _space_group_symop_operation_xyz
  'x, y, z'

loop_
  _atom_site_type_symbol
  _atom_site_label
  _atom_site_symmetry_multiplicity
  _atom_site_fract_x
  _atom_site_fract_y
  _atom_site_fract_z
  _atom_site_occupancy
  Pd  Pd1       1.0  0.2500000481559122  0.24999991027443647  0.25000003506816276  1.0000
  Pd  Pd2       1.0  0.7500001049132915  0.7500000638768849  0.7499998309258007  1.0000
  Ru  Ru1       1.0  5.8207340708633834e-08  1.3781528730061855e-08  0.9999997427050331  1.0000
  O   O1        1.0  0.24951721076159167  0.24951733175747356  0.7504829238337491  1.0000
  O   O2        1.0  0.7504826980348498  0.7504827710214327  0.24951748009243116  1.0000
  O   O3        1.0  0.750482730720084  0.24951709555371288  0.24951735322913357  1.0000
  O   O4        1.0  0.2495172046786605  0.7504828234715015  0.7504826585402545  1.0000
  O   O5        1.0  0.2495171971343708  0.7504827614342396  0.24951724648862972  1.0000
  O   O6        1.0  0.7504827431846895  0.24951724028013805  0.7504827102234489  1.0000
