data_image0
_chemical_formula_structural       Pd2RhS6
_chemical_formula_sum              "Pd2 Rh1 S6"
_cell_length_a       6.038527803506032
_cell_length_b       6.038527815528914
_cell_length_c       6.038527795114684
_cell_angle_alpha    59.99999994726824
_cell_angle_beta     60.000000351056286
_cell_angle_gamma    59.999999983865294

_space_group_name_H-M_alt    "P 1"
_space_group_IT_number       1

loop_
  _space_group_symop_operation_xyz
  'x, y, z'

loop_
  _atom_site_type_symbol
  _atom_site_label
  _atom_site_symmetry_multiplicity
  _atom_site_fract_x
  _atom_site_fract_y
  _atom_site_fract_z
  _atom_site_occupancy
  Pd  Pd1       1.0  0.25000000371547626  0.2500000028341404  0.24999997917884645  1.0000
  Pd  Pd2       1.0  0.7499999978768712  0.7500000024177681  0.7500000167670214  1.0000
  Rh  Rh1       1.0  0.9999999903228947  6.084652914770394e-09  2.1668619597420416e-08  1.0000
  S   S1        1.0  0.2645792198557979  0.26457922126369876  0.7354207805302626  1.0000
  S   S2        1.0  0.7354207805004  0.7354207819599922  0.26457920379952676  1.0000
  S   S3        1.0  0.7354207844527187  0.2645792296536962  0.2645792273071105  1.0000
  S   S4        1.0  0.2645792335774598  0.7354207492313828  0.7354207719472243  1.0000
  S   S5        1.0  0.2645792201630091  0.735420785132261  0.2645792167932231  1.0000
  S   S6        1.0  0.7354207680437849  0.2645792201196475  0.7354207808773233  1.0000
