data_image0
_chemical_formula_structural       Pd2RuSe6
_chemical_formula_sum              "Pd2 Ru1 Se6"
_cell_length_a       6.261520645393985
_cell_length_b       6.261520625822513
_cell_length_c       6.2615206888966
_cell_angle_alpha    60.00000029886584
_cell_angle_beta     60.00000071154207
_cell_angle_gamma    59.99999966348697

_space_group_name_H-M_alt    "P 1"
_space_group_IT_number       1

loop_
  _space_group_symop_operation_xyz
  'x, y, z'

loop_
  _atom_site_type_symbol
  _atom_site_label
  _atom_site_symmetry_multiplicity
  _atom_site_fract_x
  _atom_site_fract_y
  _atom_site_fract_z
  _atom_site_occupancy
  Pd  Pd1       1.0  0.2500000439911954  0.2500000617309458  0.24999990947495287  1.0000
  Pd  Pd2       1.0  0.7500000160209526  0.7499999798142749  0.7500000711548539  1.0000
  Ru  Ru1       1.0  5.6442295542144045e-09  0.999999994132041  4.903033120913898e-09  1.0000
  Se  Se1       1.0  0.2749612232634257  0.27496125376181074  0.7250387745156058  1.0000
  Se  Se2       1.0  0.7250387407425352  0.7250387936513693  0.27496117771873224  1.0000
  Se  Se3       1.0  0.7250388111805083  0.27496122861326544  0.2749611982505404  1.0000
  Se  Se4       1.0  0.2749612244681799  0.7250387366484886  0.7250388039557188  1.0000
  Se  Se5       1.0  0.27496121725644834  0.7250387565403194  0.27496122221175956  1.0000
  Se  Se6       1.0  0.725038717841278  0.27496119502953115  0.7250388307277068  1.0000
