data_image0
_chemical_formula_structural       Pd2ReO6
_chemical_formula_sum              "Pd2 Re1 O6"
_cell_length_a       5.298717092667251
_cell_length_b       5.298717107927599
_cell_length_c       5.298716995333852
_cell_angle_alpha    60.000000354651156
_cell_angle_beta     59.99999897691283
_cell_angle_gamma    59.999998947838

_space_group_name_H-M_alt    "P 1"
_space_group_IT_number       1

loop_
  _space_group_symop_operation_xyz
  'x, y, z'

loop_
  _atom_site_type_symbol
  _atom_site_label
  _atom_site_symmetry_multiplicity
  _atom_site_fract_x
  _atom_site_fract_y
  _atom_site_fract_z
  _atom_site_occupancy
  Pd  Pd1       1.0  0.25000007347929376  0.250000096877828  0.24999965296950993  1.0000
  Pd  Pd2       1.0  0.7500004244941454  0.7500001034101754  0.7499997450240101  1.0000
  Re  Re1       1.0  2.5969962370081345e-07  1.8491187102677963e-08  0.9999996174494302  1.0000
  O   O1        1.0  0.2536410250644496  0.25364108739209146  0.7463590654172644  1.0000
  O   O2        1.0  0.7463588310775349  0.7463590967161288  0.2536410012867584  1.0000
  O   O3        1.0  0.7463588949375397  0.2536409812754417  0.2536411246714993  1.0000
  O   O4        1.0  0.25364098260773404  0.7463587659783933  0.7463591931648066  1.0000
  O   O5        1.0  0.25364069425370994  0.7463588642776257  0.25364143738056694  1.0000
  O   O6        1.0  0.7463588190541169  0.25364097543216874  0.7463591805371772  1.0000
