data_image0
_chemical_formula_structural       Pd2RhN6
_chemical_formula_sum              "Pd2 Rh1 N6"
_cell_length_a       5.027500748344669
_cell_length_b       5.027500654339075
_cell_length_c       5.027500788026264
_cell_angle_alpha    59.9999997969243
_cell_angle_beta     59.99999958616945
_cell_angle_gamma    60.000000263131014

_space_group_name_H-M_alt    "P 1"
_space_group_IT_number       1

loop_
  _space_group_symop_operation_xyz
  'x, y, z'

loop_
  _atom_site_type_symbol
  _atom_site_label
  _atom_site_symmetry_multiplicity
  _atom_site_fract_x
  _atom_site_fract_y
  _atom_site_fract_z
  _atom_site_occupancy
  Pd  Pd1       1.0  0.25000006325707036  0.25000011040222986  0.24999993325240175  1.0000
  Pd  Pd2       1.0  0.7500000638034005  0.7499999511765033  0.7499999751828675  1.0000
  Rh  Rh1       1.0  1.4731963700800985e-08  0.9999999902556365  0.9999999975061998  1.0000
  N   N1        1.0  0.27351835915623707  0.2735183971955082  0.7264816272776276  1.0000
  N   N2        1.0  0.726481597015915  0.7264816327140418  0.2735184122722906  1.0000
  N   N3        1.0  0.7264815441079788  0.2735183942703518  0.2735183646273099  1.0000
  N   N4        1.0  0.273518351305325  0.726481569864742  0.7264816824955841  1.0000
  N   N5        1.0  0.27351837257311923  0.7264815563849142  0.2735183860997551  1.0000
  N   N6        1.0  0.7264816195831066  0.2735183931336351  0.7264816279161894  1.0000
