data_image0
_chemical_formula_structural       Pd2SiN6
_chemical_formula_sum              "Pd2 Si1 N6"
_cell_length_a       4.685071197890392
_cell_length_b       4.685071309664794
_cell_length_c       4.6850712865195865
_cell_angle_alpha    60.000000484673336
_cell_angle_beta     60.00000070859819
_cell_angle_gamma    59.99999879965324

_space_group_name_H-M_alt    "P 1"
_space_group_IT_number       1

loop_
  _space_group_symop_operation_xyz
  'x, y, z'

loop_
  _atom_site_type_symbol
  _atom_site_label
  _atom_site_symmetry_multiplicity
  _atom_site_fract_x
  _atom_site_fract_y
  _atom_site_fract_z
  _atom_site_occupancy
  Pd  Pd1       1.0  0.2500000300683225  0.2500000495379963  0.24999974278192572  1.0000
  Pd  Pd2       1.0  0.7500000211482059  0.7499999786946623  0.7499997939316215  1.0000
  Si  Si1       1.0  0.999999956208883  1.3070718456110231e-08  2.6032395055556072e-08  1.0000
  N   N1        1.0  0.2729715398805362  0.27297161474736165  0.7270284866087626  1.0000
  N   N2        1.0  0.7270284252231697  0.7270284056428676  0.2729717096664717  1.0000
  N   N3        1.0  0.7270285098850204  0.2729716206852242  0.272971534501378  1.0000
  N   N4        1.0  0.2729716913754344  0.7270284232322912  0.7270284871086172  1.0000
  N   N5        1.0  0.2729714268435359  0.727028436938917  0.27297175619958214  1.0000
  N   N6        1.0  0.7270283652144292  0.2729714814997196  0.7270285199444575  1.0000
