data_image0
_chemical_formula_structural       Pd2SeO6
_chemical_formula_sum              "Pd2 Se1 O6"
_cell_length_a       5.207240283774788
_cell_length_b       5.207240686454446
_cell_length_c       5.207240692340076
_cell_angle_alpha    59.99999886821381
_cell_angle_beta     59.99999954376046
_cell_angle_gamma    59.999999564549825

_space_group_name_H-M_alt    "P 1"
_space_group_IT_number       1

loop_
  _space_group_symop_operation_xyz
  'x, y, z'

loop_
  _atom_site_type_symbol
  _atom_site_label
  _atom_site_symmetry_multiplicity
  _atom_site_fract_x
  _atom_site_fract_y
  _atom_site_fract_z
  _atom_site_occupancy
  Pd  Pd1       1.0  0.24999967997890415  0.24999989802613887  0.24999937065019912  1.0000
  Pd  Pd2       1.0  0.750000357114207  0.7500003926234314  0.749998851655975  1.0000
  Se  Se1       1.0  6.92552615366305e-07  0.9999999247359074  0.9999981915211045  1.0000
  O   O1        1.0  0.25351448895941286  0.2535144302567731  0.7464860892591704  1.0000
  O   O2        1.0  0.7464852891370914  0.7464857592565906  0.2535150189610591  1.0000
  O   O3        1.0  0.7464858313932623  0.2535140859208069  0.2535150013288729  1.0000
  O   O4        1.0  0.25351423628784037  0.7464854144555025  0.7464862298514798  1.0000
  O   O5        1.0  0.25351386674999365  0.7464858126370626  0.2535150525533906  1.0000
  O   O6        1.0  0.7464855233971152  0.25351440980435996  0.7464860392168101  1.0000
