data_image0
_chemical_formula_structural       Pd2SO6
_chemical_formula_sum              "Pd2 S1 O6"
_cell_length_a       5.092023324582267
_cell_length_b       5.092023289641804
_cell_length_c       5.092023316169962
_cell_angle_alpha    60.00000256239561
_cell_angle_beta     60.00000244552317
_cell_angle_gamma    60.000001114387416

_space_group_name_H-M_alt    "P 1"
_space_group_IT_number       1

loop_
  _space_group_symop_operation_xyz
  'x, y, z'

loop_
  _atom_site_type_symbol
  _atom_site_label
  _atom_site_symmetry_multiplicity
  _atom_site_fract_x
  _atom_site_fract_y
  _atom_site_fract_z
  _atom_site_occupancy
  Pd  Pd1       1.0  0.24999969251543863  0.24999997220676762  0.2500001443136118  1.0000
  Pd  Pd2       1.0  0.7499999105104536  0.7500000368814163  0.7499998699185679  1.0000
  S   S1        1.0  2.6799313680464644e-08  2.1647001285580443e-08  0.9999999718491317  1.0000
  O   O1        1.0  0.22585320003645704  0.22585298162609807  0.7741469932962268  1.0000
  O   O2        1.0  0.7741468822921824  0.7741469841680868  0.22585310143768245  1.0000
  O   O3        1.0  0.7741470578420866  0.22585302805920668  0.22585305423756027  1.0000
  O   O4        1.0  0.22585307116822734  0.7741469473558662  0.7741469534293918  1.0000
  O   O5        1.0  0.225853105998463  0.7741469256905545  0.22585304349143878  1.0000
  O   O6        1.0  0.7741471097097617  0.22585306175062822  0.7741468401869809  1.0000
