data_image0
_chemical_formula_structural       Pd2SeN6
_chemical_formula_sum              "Pd2 Se1 N6"
_cell_length_a       4.685022753793967
_cell_length_b       4.6850227207852475
_cell_length_c       4.685023339729762
_cell_angle_alpha    59.99999679791255
_cell_angle_beta     59.999999316579235
_cell_angle_gamma    60.00000585785354

_space_group_name_H-M_alt    "P 1"
_space_group_IT_number       1

loop_
  _space_group_symop_operation_xyz
  'x, y, z'

loop_
  _atom_site_type_symbol
  _atom_site_label
  _atom_site_symmetry_multiplicity
  _atom_site_fract_x
  _atom_site_fract_y
  _atom_site_fract_z
  _atom_site_occupancy
  Pd  Pd1       1.0  0.24999999449575275  0.25000003461187703  0.2500000411655551  1.0000
  Pd  Pd2       1.0  0.7500000103251881  0.7500000750797565  0.7499999771778233  1.0000
  Se  Se1       1.0  0.9999999457517526  4.444089600138317e-08  9.172596861330422e-09  1.0000
  N   N1        1.0  0.2818584385418408  0.2818584827147143  0.7181415748881232  1.0000
  N   N2        1.0  0.7181414840012479  0.7181415041108923  0.2818585310859636  1.0000
  N   N3        1.0  0.718141307492352  0.28185868278153353  0.28185869026451105  1.0000
  N   N4        1.0  0.28185867026858175  0.718141338028296  0.7181412878645611  1.0000
  N   N5        1.0  0.28185865102932706  0.7181413797715399  0.28185868807846093  1.0000
  N   N6        1.0  0.7181412119602287  0.28185880050268836  0.7181413082588602  1.0000
