data_image0
_chemical_formula_structural       Pd2SeS6
_chemical_formula_sum              "Pd2 Se1 S6"
_cell_length_a       6.134875368061683
_cell_length_b       6.134874671926329
_cell_length_c       6.134874699251929
_cell_angle_alpha    60.00000074876567
_cell_angle_beta     60.0000043238806
_cell_angle_gamma    60.000003115545816

_space_group_name_H-M_alt    "P 1"
_space_group_IT_number       1

loop_
  _space_group_symop_operation_xyz
  'x, y, z'

loop_
  _atom_site_type_symbol
  _atom_site_label
  _atom_site_symmetry_multiplicity
  _atom_site_fract_x
  _atom_site_fract_y
  _atom_site_fract_z
  _atom_site_occupancy
  Pd  Pd1       1.0  0.2499995539275172  0.2500002098132471  0.24999979686449095  1.0000
  Pd  Pd2       1.0  0.7499999834458244  0.7500003798941847  0.7499990745880142  1.0000
  Se  Se1       1.0  0.999999946042748  6.588003951822503e-08  0.9999998701566957  1.0000
  S   S1        1.0  0.25297992358518323  0.2529797084778658  0.7470205262208915  1.0000
  S   S2        1.0  0.747020507124656  0.7470197991998258  0.2529803939783771  1.0000
  S   S3        1.0  0.7470202903355024  0.2529795887200149  0.25298019157879026  1.0000
  S   S4        1.0  0.2529798831763139  0.7470201146014239  0.7470201073875594  1.0000
  S   S5        1.0  0.2529796138233223  0.7470202287079053  0.25298015019647996  1.0000
  S   S6        1.0  0.7470202948245842  0.2529799078247112  0.747019885293472  1.0000
