data_image0
_chemical_formula_structural       Pd2SeS6
_chemical_formula_sum              "Pd2 Se1 S6"
_cell_length_a       6.134205205704941
_cell_length_b       6.134204691126843
_cell_length_c       6.134205951412748
_cell_angle_alpha    59.99999914424008
_cell_angle_beta     59.99999905927913
_cell_angle_gamma    60.00000062682872

_space_group_name_H-M_alt    "P 1"
_space_group_IT_number       1

loop_
  _space_group_symop_operation_xyz
  'x, y, z'

loop_
  _atom_site_type_symbol
  _atom_site_label
  _atom_site_symmetry_multiplicity
  _atom_site_fract_x
  _atom_site_fract_y
  _atom_site_fract_z
  _atom_site_occupancy
  Pd  Pd1       1.0  0.25000073573822323  0.24999969624546897  0.2499996485134228  1.0000
  Pd  Pd2       1.0  0.7499994412204875  0.7499998194857386  0.7500005744887293  1.0000
  Se  Se1       1.0  1.4452419366214592e-09  0.9999999900170861  2.220106691130177e-08  1.0000
  S   S1        1.0  0.25294896570042485  0.25294869924220953  0.7470512432311053  1.0000
  S   S2        1.0  0.7470508645838971  0.7470513595595565  0.25294873159431636  1.0000
  S   S3        1.0  0.7470509554673299  0.2529491911977491  0.25294864129107464  1.0000
  S   S4        1.0  0.2529491705782271  0.7470510532862423  0.7470510471669525  1.0000
  S   S5        1.0  0.2529492921496971  0.7470511056268101  0.2529485671698376  1.0000
  S   S6        1.0  0.7470505732900421  0.25294905100753323  0.7470515074422825  1.0000
