data_image0
_chemical_formula_structural       Pd2SO6
_chemical_formula_sum              "Pd2 S1 O6"
_cell_length_a       5.090284922051849
_cell_length_b       5.090285449554747
_cell_length_c       5.090285950641856
_cell_angle_alpha    59.99999816515896
_cell_angle_beta     59.99999877642943
_cell_angle_gamma    59.99999693136215

_space_group_name_H-M_alt    "P 1"
_space_group_IT_number       1

loop_
  _space_group_symop_operation_xyz
  'x, y, z'

loop_
  _atom_site_type_symbol
  _atom_site_label
  _atom_site_symmetry_multiplicity
  _atom_site_fract_x
  _atom_site_fract_y
  _atom_site_fract_z
  _atom_site_occupancy
  Pd  Pd1       1.0  0.25000021373555864  0.25000008951206615  0.24999983086632888  1.0000
  Pd  Pd2       1.0  0.7499997856196918  0.7500000110895617  0.7500005559635127  1.0000
  S   S1        1.0  6.805319623754386e-08  0.9999999999999973  0.9999999247183563  1.0000
  O   O1        1.0  0.2259244589128954  0.22592427717550037  0.7740756612615273  1.0000
  O   O2        1.0  0.7740755499997263  0.7740756790635106  0.2259242880877083  1.0000
  O   O3        1.0  0.7740755619872718  0.22592433506260273  0.22592424921180637  1.0000
  O   O4        1.0  0.22592447123738454  0.7740755754615782  0.7740756499385159  1.0000
  O   O5        1.0  0.22592448609674387  0.7740756717751106  0.22592413153529828  1.0000
  O   O6        1.0  0.7740755693091143  0.2259241858161092  0.7740757751327995  1.0000
