data_image0
_chemical_formula_structural       Pd2SiSe6
_chemical_formula_sum              "Pd2 Si1 Se6"
_cell_length_a       6.274743704819134
_cell_length_b       6.274743498726469
_cell_length_c       6.2747434860041365
_cell_angle_alpha    59.9999984081665
_cell_angle_beta     60.00000096858683
_cell_angle_gamma    59.999998575687584

_space_group_name_H-M_alt    "P 1"
_space_group_IT_number       1

loop_
  _space_group_symop_operation_xyz
  'x, y, z'

loop_
  _atom_site_type_symbol
  _atom_site_label
  _atom_site_symmetry_multiplicity
  _atom_site_fract_x
  _atom_site_fract_y
  _atom_site_fract_z
  _atom_site_occupancy
  Pd  Pd1       1.0  0.24999960891965145  0.24999973804749273  0.25000042773778886  1.0000
  Pd  Pd2       1.0  0.7499995253014122  0.7500005082286388  0.7499999251312633  1.0000
  Si  Si1       1.0  3.323586566395728e-08  0.9999999941444068  0.9999999687792667  1.0000
  Se  Se1       1.0  0.27918894668342437  0.2791885663046774  0.7208112545954456  1.0000
  Se  Se2       1.0  0.7208113699449731  0.7208111139307487  0.27918880921458583  1.0000
  Se  Se3       1.0  0.7208113475440137  0.27918867251721396  0.27918880184980244  1.0000
  Se  Se4       1.0  0.27918888970526917  0.7208114390802667  0.7208109600671926  1.0000
  Se  Se5       1.0  0.2791888831620055  0.7208113397240647  0.2791887162360486  1.0000
  Se  Se6       1.0  0.7208113863217718  0.27918862548357837  0.7208111426008861  1.0000
