data_image0
_chemical_formula_structural       Pd2SN6
_chemical_formula_sum              "Pd2 S1 N6"
_cell_length_a       5.018183163864713
_cell_length_b       5.018183256344576
_cell_length_c       5.018183243611244
_cell_angle_alpha    60.00000049352439
_cell_angle_beta     60.000000281835334
_cell_angle_gamma    59.999999412338866

_space_group_name_H-M_alt    "P 1"
_space_group_IT_number       1

loop_
  _space_group_symop_operation_xyz
  'x, y, z'

loop_
  _atom_site_type_symbol
  _atom_site_label
  _atom_site_symmetry_multiplicity
  _atom_site_fract_x
  _atom_site_fract_y
  _atom_site_fract_z
  _atom_site_occupancy
  Pd  Pd1       1.0  0.24999997430185308  0.250000070419686  0.24999995965145774  1.0000
  Pd  Pd2       1.0  0.7499999408033955  0.7500001575655482  0.7499997772870264  1.0000
  S   S1        1.0  0.9999996140087253  0.9999999292221987  1.2486741007009802e-06  1.0000
  N   N1        1.0  0.24119727680588388  0.2411970887711526  0.7588026832032452  1.0000
  N   N2        1.0  0.7588029603324722  0.7588028634246872  0.24119703260613673  1.0000
  N   N3        1.0  0.7588029471300297  0.24119701794291515  0.24119696193949158  1.0000
  N   N4        1.0  0.24119728803435148  0.7588028366283615  0.7588026781257164  1.0000
  N   N5        1.0  0.2411971331341978  0.758802909022885  0.2411969298117872  1.0000
  N   N6        1.0  0.7588028500051358  0.24119717008488964  0.758802704070164  1.0000
