data_image0
_chemical_formula_structural       Pd2ScS6
_chemical_formula_sum              "Pd2 Sc1 S6"
_cell_length_a       6.250999230457035
_cell_length_b       6.250999341406415
_cell_length_c       6.250999613207686
_cell_angle_alpha    60.000003003624364
_cell_angle_beta     60.00000180640105
_cell_angle_gamma    59.99999998039877

_space_group_name_H-M_alt    "P 1"
_space_group_IT_number       1

loop_
  _space_group_symop_operation_xyz
  'x, y, z'

loop_
  _atom_site_type_symbol
  _atom_site_label
  _atom_site_symmetry_multiplicity
  _atom_site_fract_x
  _atom_site_fract_y
  _atom_site_fract_z
  _atom_site_occupancy
  Pd  Pd1       1.0  0.25000035166837786  0.2499996258489262  0.2500001521970994  1.0000
  Pd  Pd2       1.0  0.7499994916656784  0.7500004586845419  0.7500005708724508  1.0000
  Sc  Sc1       1.0  8.52349305973287e-08  0.9999999216288585  0.9999999741716873  1.0000
  S   S1        1.0  0.2720482387420604  0.2720477682523685  0.7279521073856081  1.0000
  S   S2        1.0  0.7279515774246255  0.7279523201996203  0.2720476002726284  1.0000
  S   S3        1.0  0.7279518886223679  0.27204811552329505  0.2720479338556021  1.0000
  S   S4        1.0  0.272048105434941  0.7279521375080928  0.7279519417133917  1.0000
  S   S5        1.0  0.2720483905393389  0.727951999676998  0.27204759894536157  1.0000
  S   S6        1.0  0.7279518713947896  0.2720476381409337  0.7279521287433655  1.0000
