data_image0
_chemical_formula_structural       Pd2TiSe6
_chemical_formula_sum              "Pd2 Ti1 Se6"
_cell_length_a       6.34795470380941
_cell_length_b       6.34795485417524
_cell_length_c       6.347956038551344
_cell_angle_alpha    59.99999468196343
_cell_angle_beta     59.999994082198064
_cell_angle_gamma    59.99999568283377

_space_group_name_H-M_alt    "P 1"
_space_group_IT_number       1

loop_
  _space_group_symop_operation_xyz
  'x, y, z'

loop_
  _atom_site_type_symbol
  _atom_site_label
  _atom_site_symmetry_multiplicity
  _atom_site_fract_x
  _atom_site_fract_y
  _atom_site_fract_z
  _atom_site_occupancy
  Pd  Pd1       1.0  0.2500000719550628  0.25000005412804177  0.2499999075647909  1.0000
  Pd  Pd2       1.0  0.7499999265730434  0.7499999115681653  0.7500001439782022  1.0000
  Ti  Ti1       1.0  0.999999998934447  0.9999999922825855  0.9999999602827976  1.0000
  Se  Se1       1.0  0.27302471245391857  0.2730247210908268  0.7269753141390006  1.0000
  Se  Se2       1.0  0.7269752625184404  0.7269752716163301  0.27302467896522353  1.0000
  Se  Se3       1.0  0.7269752602656924  0.2730247934137623  0.27302454793243014  1.0000
  Se  Se4       1.0  0.2730247701029661  0.7269752513859405  0.7269754103310946  1.0000
  Se  Se5       1.0  0.27302478120229673  0.7269752584186746  0.2730245354273684  1.0000
  Se  Se6       1.0  0.7269752151568408  0.2730247574407253  0.7269754873925822  1.0000
