data_image0
_chemical_formula_structural       Pd2TiO6
_chemical_formula_sum              "Pd2 Ti1 O6"
_cell_length_a       5.3653787239168125
_cell_length_b       5.365378969581157
_cell_length_c       5.365378879000128
_cell_angle_alpha    60.00000361033224
_cell_angle_beta     60.0000017102425
_cell_angle_gamma    60.00000683523256

_space_group_name_H-M_alt    "P 1"
_space_group_IT_number       1

loop_
  _space_group_symop_operation_xyz
  'x, y, z'

loop_
  _atom_site_type_symbol
  _atom_site_label
  _atom_site_symmetry_multiplicity
  _atom_site_fract_x
  _atom_site_fract_y
  _atom_site_fract_z
  _atom_site_occupancy
  Pd  Pd1       1.0  0.25000001376009695  0.24999961467735415  0.25000008857789807  1.0000
  Pd  Pd2       1.0  0.7500002717895099  0.7499993211123944  0.7500006425490345  1.0000
  Ti  Ti1       1.0  0.9999999615451117  0.9999999474983396  1.1257511823978864e-07  1.0000
  O   O1        1.0  0.24998738428828862  0.2499879647206994  0.7500123774888867  1.0000
  O   O2        1.0  0.7500122515964409  0.7500124616596195  0.24998734048641488  1.0000
  O   O3        1.0  0.7500124169285906  0.24998790358297648  0.24998740125198712  1.0000
  O   O4        1.0  0.24998764875608745  0.7500122922465937  0.7500122469195385  1.0000
  O   O5        1.0  0.24998777748778783  0.7500125630379015  0.24998750080206217  1.0000
  O   O6        1.0  0.750012251431477  0.24998794323627158  0.7500122118204128  1.0000
