data_image0
_chemical_formula_structural       Pd2TiO6
_chemical_formula_sum              "Pd2 Ti1 O6"
_cell_length_a       5.365927599985141
_cell_length_b       5.365929985087777
_cell_length_c       5.365928162925859
_cell_angle_alpha    60.000003026066665
_cell_angle_beta     59.99999724757178
_cell_angle_gamma    59.999977505992824

_space_group_name_H-M_alt    "P 1"
_space_group_IT_number       1

loop_
  _space_group_symop_operation_xyz
  'x, y, z'

loop_
  _atom_site_type_symbol
  _atom_site_label
  _atom_site_symmetry_multiplicity
  _atom_site_fract_x
  _atom_site_fract_y
  _atom_site_fract_z
  _atom_site_occupancy
  Pd  Pd1       1.0  0.24999636438071263  0.25000478415773597  0.24999838632220903  1.0000
  Pd  Pd2       1.0  0.7499990914080882  0.749999050947018  0.7500003488352341  1.0000
  Ti  Ti1       1.0  0.9999996923174167  1.4835917011153727e-07  0.9999997758931862  1.0000
  O   O1        1.0  0.24993279519854703  0.24993018474874465  0.7500695706384575  1.0000
  O   O2        1.0  0.7500702749157463  0.7500666820433006  0.24993272900454433  1.0000
  O   O3        1.0  0.7500700131948601  0.24993205802973867  0.2499308487648865  1.0000
  O   O4        1.0  0.2499314725391422  0.7500677736612378  0.7500691094597107  1.0000
  O   O5        1.0  0.24993178902233149  0.750066748800047  0.24993134988456367  1.0000
  O   O6        1.0  0.7500685177099711  0.24993265607391396  0.7500683899908642  1.0000
