data_image0
_chemical_formula_structural       Pd2TiS6
_chemical_formula_sum              "Pd2 Ti1 S6"
_cell_length_a       6.095493829190736
_cell_length_b       6.095493845705229
_cell_length_c       6.095493567620391
_cell_angle_alpha    60.0000012714357
_cell_angle_beta     60.00000204784695
_cell_angle_gamma    60.00000035601971

_space_group_name_H-M_alt    "P 1"
_space_group_IT_number       1

loop_
  _space_group_symop_operation_xyz
  'x, y, z'

loop_
  _atom_site_type_symbol
  _atom_site_label
  _atom_site_symmetry_multiplicity
  _atom_site_fract_x
  _atom_site_fract_y
  _atom_site_fract_z
  _atom_site_occupancy
  Pd  Pd1       1.0  0.24999983089679073  0.24999991057945323  0.2500003820204808  1.0000
  Pd  Pd2       1.0  0.7500000547707341  0.7500000913963879  0.7499999026469235  1.0000
  Ti  Ti1       1.0  3.74634203516133e-08  1.5471323071401342e-07  0.9999997250910444  1.0000
  S   S1        1.0  0.266431647061362  0.2664315781436521  0.73356833443606  1.0000
  S   S2        1.0  0.7335684257300856  0.7335681807113985  0.26643180433081814  1.0000
  S   S3        1.0  0.7335682918817237  0.26643165416296793  0.2664316516671312  1.0000
  S   S4        1.0  0.26643155340676766  0.7335686110262922  0.7335682771402  1.0000
  S   S5        1.0  0.26643163119916113  0.7335682778473317  0.26643166546824176  1.0000
  S   S6        1.0  0.7335685471768655  0.2664315734338042  0.7335682315649118  1.0000
