data_image0
_chemical_formula_structural       Pd2TiSe6
_chemical_formula_sum              "Pd2 Ti1 Se6"
_cell_length_a       6.3466522483858
_cell_length_b       6.346652267138688
_cell_length_c       6.3466522622857795
_cell_angle_alpha    59.999999801932034
_cell_angle_beta     59.999998470028174
_cell_angle_gamma    59.99999936234851

_space_group_name_H-M_alt    "P 1"
_space_group_IT_number       1

loop_
  _space_group_symop_operation_xyz
  'x, y, z'

loop_
  _atom_site_type_symbol
  _atom_site_label
  _atom_site_symmetry_multiplicity
  _atom_site_fract_x
  _atom_site_fract_y
  _atom_site_fract_z
  _atom_site_occupancy
  Pd  Pd1       1.0  0.24999988881105437  0.25000016504645955  0.250000072131544  1.0000
  Pd  Pd2       1.0  0.7500001400349036  0.7499998930575472  0.749999919814527  1.0000
  Ti  Ti1       1.0  0.9999999435990556  4.3294008891203373e-16  1.0225526250036926e-07  1.0000
  Se  Se1       1.0  0.27308527287220774  0.27308541949452053  0.7269147256178241  1.0000
  Se  Se2       1.0  0.7269147069985802  0.7269145672087572  0.27308550928972086  1.0000
  Se  Se3       1.0  0.7269146768040854  0.2730853823732522  0.2730852779855522  1.0000
  Se  Se4       1.0  0.27308526092437685  0.7269147471314841  0.7269145552260831  1.0000
  Se  Se5       1.0  0.27308533251309747  0.7269144814054281  0.273085367032689  1.0000
  Se  Se6       1.0  0.7269147705273222  0.2730853431988941  0.7269144776747215  1.0000
