data_image0
_chemical_formula_structural       Pd2TiN6
_chemical_formula_sum              "Pd2 Ti1 N6"
_cell_length_a       5.0495597302931206
_cell_length_b       5.049559811316704
_cell_length_c       5.049559824251816
_cell_angle_alpha    60.00000030181189
_cell_angle_beta     60.000001383334606
_cell_angle_gamma    60.000000546963086

_space_group_name_H-M_alt    "P 1"
_space_group_IT_number       1

loop_
  _space_group_symop_operation_xyz
  'x, y, z'

loop_
  _atom_site_type_symbol
  _atom_site_label
  _atom_site_symmetry_multiplicity
  _atom_site_fract_x
  _atom_site_fract_y
  _atom_site_fract_z
  _atom_site_occupancy
  Pd  Pd1       1.0  0.25000019369288745  0.24999981532732485  0.2500000352224906  1.0000
  Pd  Pd2       1.0  0.7499999429524178  0.7500001323839797  0.750000004295129  1.0000
  Ti  Ti1       1.0  0.9999999930010821  7.276346197254899e-09  4.540981040308863e-08  1.0000
  N   N1        1.0  0.2732237796342802  0.2732238253268937  0.726776199622629  1.0000
  N   N2        1.0  0.7267761403933624  0.7267762097005676  0.27322377186090796  1.0000
  N   N3        1.0  0.7267761600840916  0.27322378672525516  0.2732238214134943  1.0000
  N   N4        1.0  0.27322383702277336  0.7267762434513083  0.7267760981129162  1.0000
  N   N5        1.0  0.2732238427453457  0.726776240038699  0.27322376968367756  1.0000
  N   N6        1.0  0.7267761077272215  0.27322371737440115  0.726776257070508  1.0000
