data_image0
_chemical_formula_structural       Pd2VO6
_chemical_formula_sum              "Pd2 V1 O6"
_cell_length_a       5.216926758242436
_cell_length_b       5.216926858657033
_cell_length_c       5.216926794024198
_cell_angle_alpha    59.999999621723546
_cell_angle_beta     59.999999804839035
_cell_angle_gamma    60.00000033856093

_space_group_name_H-M_alt    "P 1"
_space_group_IT_number       1

loop_
  _space_group_symop_operation_xyz
  'x, y, z'

loop_
  _atom_site_type_symbol
  _atom_site_label
  _atom_site_symmetry_multiplicity
  _atom_site_fract_x
  _atom_site_fract_y
  _atom_site_fract_z
  _atom_site_occupancy
  Pd  Pd1       1.0  0.24999945819193656  0.24999981421860326  0.25000148812189216  1.0000
  Pd  Pd2       1.0  0.750000349295554  0.750000118775195  0.7500006144713512  1.0000
  V   V1        1.0  0.999999993179546  8.686255595937734e-08  0.9999999906483457  1.0000
  O   O1        1.0  0.25482614712728335  0.2548261140082592  0.7451733439075976  1.0000
  O   O2        1.0  0.7451737841057213  0.7451739457579454  0.2548256929982287  1.0000
  O   O3        1.0  0.7451739215671684  0.2548261950445527  0.2548259932164083  1.0000
  O   O4        1.0  0.25482601639414953  0.7451739374983836  0.7451735329839967  1.0000
  O   O5        1.0  0.2548260855203017  0.7451738292514383  0.25482615052023294  1.0000
  O   O6        1.0  0.7451742446378326  0.25482600983691783  0.7451732266335149  1.0000
