data_image0
_chemical_formula_structural       Pd2VN6
_chemical_formula_sum              "Pd2 V1 N6"
_cell_length_a       4.992414835850902
_cell_length_b       4.992414647193793
_cell_length_c       4.992414845422598
_cell_angle_alpha    59.9999986022627
_cell_angle_beta     60.000000309109375
_cell_angle_gamma    59.99999954011447

_space_group_name_H-M_alt    "P 1"
_space_group_IT_number       1

loop_
  _space_group_symop_operation_xyz
  'x, y, z'

loop_
  _atom_site_type_symbol
  _atom_site_label
  _atom_site_symmetry_multiplicity
  _atom_site_fract_x
  _atom_site_fract_y
  _atom_site_fract_z
  _atom_site_occupancy
  Pd  Pd1       1.0  0.24999976050764586  0.25000007857567075  0.25000008646900074  1.0000
  Pd  Pd2       1.0  0.7499998348654582  0.7500004491564164  0.7499997658539141  1.0000
  V   V1        1.0  0.9999999521984861  8.095597837409753e-08  1.54713862767342e-08  1.0000
  N   N1        1.0  0.28222762406482005  0.2822274164685481  0.7177724732528682  1.0000
  N   N2        1.0  0.717772573615336  0.717772171683547  0.2822276458554139  1.0000
  N   N3        1.0  0.7177725693204644  0.28222741363512316  0.28222767591486353  1.0000
  N   N4        1.0  0.2822275765135043  0.7177724271977539  0.7177724249007067  1.0000
  N   N5        1.0  0.2822275180435065  0.7177724797444077  0.2822275928826363  1.0000
  N   N6        1.0  0.7177725913891229  0.28222749110867784  0.717772332929024  1.0000
