data_image0
_chemical_formula_structural       Pd2VS6
_chemical_formula_sum              "Pd2 V1 S6"
_cell_length_a       5.9718806084633895
_cell_length_b       5.971880605693657
_cell_length_c       5.971880745776485
_cell_angle_alpha    60.000002846162324
_cell_angle_beta     60.00000169470009
_cell_angle_gamma    60.000000991106866

_space_group_name_H-M_alt    "P 1"
_space_group_IT_number       1

loop_
  _space_group_symop_operation_xyz
  'x, y, z'

loop_
  _atom_site_type_symbol
  _atom_site_label
  _atom_site_symmetry_multiplicity
  _atom_site_fract_x
  _atom_site_fract_y
  _atom_site_fract_z
  _atom_site_occupancy
  Pd  Pd1       1.0  0.2499999229017701  0.24999988725522107  0.2500001427597097  1.0000
  Pd  Pd2       1.0  0.7500001851514523  0.7500003672590401  0.7499998271210524  1.0000
  V   V1        1.0  1.515687819220495e-08  0.9999999487286785  1.6382706183097634e-08  1.0000
  S   S1        1.0  0.2635674514504007  0.2635673098332634  0.7364325116060544  1.0000
  S   S2        1.0  0.7364326084080715  0.7364324975950642  0.2635673274747936  1.0000
  S   S3        1.0  0.7364326903860146  0.2635672205977142  0.2635675350208781  1.0000
  S   S4        1.0  0.26356721412050343  0.7364327570514104  0.7364325779439609  1.0000
  S   S5        1.0  0.26356733672835125  0.7364325861574266  0.26356748802774865  1.0000
  S   S6        1.0  0.7364325698088953  0.2635674202036366  0.7364325693774133  1.0000
