data_image0
_chemical_formula_structural       Pd2VSe6
_chemical_formula_sum              "Pd2 V1 Se6"
_cell_length_a       6.239006059456941
_cell_length_b       6.239005885702989
_cell_length_c       6.2390062689107335
_cell_angle_alpha    60.00000082709992
_cell_angle_beta     60.00000144952012
_cell_angle_gamma    59.99999816896642

_space_group_name_H-M_alt    "P 1"
_space_group_IT_number       1

loop_
  _space_group_symop_operation_xyz
  'x, y, z'

loop_
  _atom_site_type_symbol
  _atom_site_label
  _atom_site_symmetry_multiplicity
  _atom_site_fract_x
  _atom_site_fract_y
  _atom_site_fract_z
  _atom_site_occupancy
  Pd  Pd1       1.0  0.25000027213269577  0.24999975652642442  0.24999986696922374  1.0000
  Pd  Pd2       1.0  0.7499999220140747  0.7499998761601823  0.7500002256550249  1.0000
  V   V1        1.0  0.9999999446819806  2.1593494496911113e-08  0.9999999816002361  1.0000
  Se  Se1       1.0  0.2727275253841802  0.27272760297674964  0.7272723878590359  1.0000
  Se  Se2       1.0  0.7272723107124427  0.7272725597319861  0.27272738476760094  1.0000
  Se  Se3       1.0  0.7272725246235447  0.27272752062882316  0.27272747062488006  1.0000
  Se  Se4       1.0  0.27272759440138583  0.727272492888498  0.7272724659392993  1.0000
  Se  Se5       1.0  0.2727275751631159  0.727272604263043  0.2727274686773384  1.0000
  Se  Se6       1.0  0.7272723211302522  0.27272757218701693  0.7272727526345296  1.0000
