data_image0
_chemical_formula_structural       Pd2VO6
_chemical_formula_sum              "Pd2 V1 O6"
_cell_length_a       5.2168454354353875
_cell_length_b       5.2168457912849915
_cell_length_c       5.2168454374320765
_cell_angle_alpha    60.0000012215552
_cell_angle_beta     59.99999990139402
_cell_angle_gamma    59.99999997640341

_space_group_name_H-M_alt    "P 1"
_space_group_IT_number       1

loop_
  _space_group_symop_operation_xyz
  'x, y, z'

loop_
  _atom_site_type_symbol
  _atom_site_label
  _atom_site_symmetry_multiplicity
  _atom_site_fract_x
  _atom_site_fract_y
  _atom_site_fract_z
  _atom_site_occupancy
  Pd  Pd1       1.0  0.2500001721112252  0.24999988967063125  0.25000007268917396  1.0000
  Pd  Pd2       1.0  0.7499998458857245  0.7500001995860256  0.7500004336863364  1.0000
  V   V1        1.0  0.999999928119867  1.643371306374618e-08  3.1556944321046866e-08  1.0000
  O   O1        1.0  0.2547829525178791  0.2547828124323811  0.7452170756291258  1.0000
  O   O2        1.0  0.7452171036670967  0.7452172087417643  0.2547826214407242  1.0000
  O   O3        1.0  0.7452171679324003  0.2547827538374611  0.25478278175749763  1.0000
  O   O4        1.0  0.25478276311639375  0.7452172908134168  0.7452170581517034  1.0000
  O   O5        1.0  0.25478291440587897  0.7452171038280901  0.2547827779769112  1.0000
  O   O6        1.0  0.7452171714280976  0.25478275535660944  0.7452171328619384  1.0000
