data_image0
_chemical_formula_structural       Pd2VS6
_chemical_formula_sum              "Pd2 V1 S6"
_cell_length_a       5.972448801465951
_cell_length_b       5.9724488897447126
_cell_length_c       5.9724488211592295
_cell_angle_alpha    60.000000821362924
_cell_angle_beta     59.999999850083114
_cell_angle_gamma    60.00000496069359

_space_group_name_H-M_alt    "P 1"
_space_group_IT_number       1

loop_
  _space_group_symop_operation_xyz
  'x, y, z'

loop_
  _atom_site_type_symbol
  _atom_site_label
  _atom_site_symmetry_multiplicity
  _atom_site_fract_x
  _atom_site_fract_y
  _atom_site_fract_z
  _atom_site_occupancy
  Pd  Pd1       1.0  0.25000016155492893  0.24999995982431067  0.24999963356331997  1.0000
  Pd  Pd2       1.0  0.7500006286293557  0.7500001029946377  0.7500002841431742  1.0000
  V   V1        1.0  2.9194997875899317e-08  5.741841760753909e-08  3.5752345695125554e-09  1.0000
  S   S1        1.0  0.26357979393268444  0.26357998852139825  0.7364201395153392  1.0000
  S   S2        1.0  0.7364198901244364  0.7364200866014383  0.2635796034557555  1.0000
  S   S3        1.0  0.736420159004557  0.2635799100320596  0.26357997771019254  1.0000
  S   S4        1.0  0.2635797498976454  0.7364197631618782  0.7364201468149477  1.0000
  S   S5        1.0  0.2635798690691636  0.7364201544487158  0.26358015121075523  1.0000
  S   S6        1.0  0.7364197346840414  0.26357994118069644  0.7364201021989165  1.0000
