data_image0
_chemical_formula_structural       Pd2WS6
_chemical_formula_sum              "Pd2 W1 S6"
_cell_length_a       6.146325429027803
_cell_length_b       6.146325433752433
_cell_length_c       6.14632552275081
_cell_angle_alpha    59.999999645193995
_cell_angle_beta     59.99999950889214
_cell_angle_gamma    60.00000176077672

_space_group_name_H-M_alt    "P 1"
_space_group_IT_number       1

loop_
  _space_group_symop_operation_xyz
  'x, y, z'

loop_
  _atom_site_type_symbol
  _atom_site_label
  _atom_site_symmetry_multiplicity
  _atom_site_fract_x
  _atom_site_fract_y
  _atom_site_fract_z
  _atom_site_occupancy
  Pd  Pd1       1.0  0.25000016671310854  0.25000004405874565  0.24999972056233005  1.0000
  Pd  Pd2       1.0  0.7499998794148676  0.7500001062718294  0.7499995793667467  1.0000
  W   W1        1.0  0.999999973034204  1.992645110714501e-09  6.455020253419367e-08  1.0000
  S   S1        1.0  0.2624573778606736  0.2624573203981524  0.7375426669656489  1.0000
  S   S2        1.0  0.7375426284568458  0.7375426844692902  0.2624575504833141  1.0000
  S   S3        1.0  0.7375425721770821  0.26245729900412956  0.26245755622683165  1.0000
  S   S4        1.0  0.2624575220805161  0.7375425604001824  0.7375426411740069  1.0000
  S   S5        1.0  0.26245739933910306  0.7375425677258332  0.26245749404016133  1.0000
  S   S6        1.0  0.7375424783552954  0.26245741721514987  0.7375427293500812  1.0000
