data_image0
_chemical_formula_structural       Pd2WO6
_chemical_formula_sum              "Pd2 W1 O6"
_cell_length_a       5.351856404275426
_cell_length_b       5.351856390342423
_cell_length_c       5.351856410645263
_cell_angle_alpha    60.00000181548761
_cell_angle_beta     60.00000056489101
_cell_angle_gamma    60.00000125457997

_space_group_name_H-M_alt    "P 1"
_space_group_IT_number       1

loop_
  _space_group_symop_operation_xyz
  'x, y, z'

loop_
  _atom_site_type_symbol
  _atom_site_label
  _atom_site_symmetry_multiplicity
  _atom_site_fract_x
  _atom_site_fract_y
  _atom_site_fract_z
  _atom_site_occupancy
  Pd  Pd1       1.0  0.24999982075226213  0.2500002341299447  0.2500004621860095  1.0000
  Pd  Pd2       1.0  0.7499997653193696  0.7499994048394245  0.7500001797203305  1.0000
  W   W1        1.0  3.351900309453283e-08  0.9999999771155151  6.568614042364027e-08  1.0000
  O   O1        1.0  0.256193183351996  0.2561932437116525  0.7438065857394962  1.0000
  O   O2        1.0  0.7438070120442454  0.7438066126603307  0.2561932074402873  1.0000
  O   O3        1.0  0.7438063889514592  0.25619344649894593  0.25619292785297815  1.0000
  O   O4        1.0  0.2561934445112737  0.7438067966208554  0.7438068379715702  1.0000
  O   O5        1.0  0.25619317751159815  0.7438069220235525  0.25619319872933033  1.0000
  O   O6        1.0  0.7438071359338132  0.25619334398074006  0.7438064819590721  1.0000
