data_image0
_chemical_formula_structural       Pd2YSe6
_chemical_formula_sum              "Pd2 Y1 Se6"
_cell_length_a       6.723437421034257
_cell_length_b       6.72343713187046
_cell_length_c       6.723437469301427
_cell_angle_alpha    59.999994626379966
_cell_angle_beta     59.99999276362056
_cell_angle_gamma    59.99999085767623

_space_group_name_H-M_alt    "P 1"
_space_group_IT_number       1

loop_
  _space_group_symop_operation_xyz
  'x, y, z'

loop_
  _atom_site_type_symbol
  _atom_site_label
  _atom_site_symmetry_multiplicity
  _atom_site_fract_x
  _atom_site_fract_y
  _atom_site_fract_z
  _atom_site_occupancy
  Pd  Pd1       1.0  0.25000015591739794  0.25000023150492134  0.2499995533333208  1.0000
  Pd  Pd2       1.0  0.7500000963541271  0.7499996962749953  0.7499999486767043  1.0000
  Y   Y1        1.0  0.9999998633857092  4.918334961850219e-08  3.0994833844150184e-07  1.0000
  Se  Se1       1.0  0.2892464524434646  0.2892469730788467  0.710753362089853  1.0000
  Se  Se2       1.0  0.7107532986281246  0.7107533299518051  0.28924686029660407  1.0000
  Se  Se3       1.0  0.7107535035678488  0.2892464592158986  0.28924622441958525  1.0000
  Se  Se4       1.0  0.28924763866136977  0.7107523701358961  0.7107532866362344  1.0000
  Se  Se5       1.0  0.2892463797148606  0.7107534642307143  0.28924676578965935  1.0000
  Se  Se6       1.0  0.710752615453799  0.28924742171371365  0.7107536769514963  1.0000
