data_image0
_chemical_formula_structural       Pd2YO6
_chemical_formula_sum              "Pd2 Y1 O6"
_cell_length_a       5.589696617991902
_cell_length_b       5.589696708747651
_cell_length_c       5.589696744733999
_cell_angle_alpha    60.000000792600254
_cell_angle_beta     60.00000026492299
_cell_angle_gamma    59.99999937714016

_space_group_name_H-M_alt    "P 1"
_space_group_IT_number       1

loop_
  _space_group_symop_operation_xyz
  'x, y, z'

loop_
  _atom_site_type_symbol
  _atom_site_label
  _atom_site_symmetry_multiplicity
  _atom_site_fract_x
  _atom_site_fract_y
  _atom_site_fract_z
  _atom_site_occupancy
  Pd  Pd1       1.0  0.2499997598511713  0.24999956196245496  0.25000084340892326  1.0000
  Pd  Pd2       1.0  0.74999971684721  0.7500000202524492  0.7500000253471277  1.0000
  Y   Y1        1.0  1.4472893239008847e-07  0.9999999934267709  0.9999999667022658  1.0000
  O   O1        1.0  0.27902443136116906  0.27902432445511405  0.7209754913302873  1.0000
  O   O2        1.0  0.7209755600384994  0.72097574636966  0.2790243587475111  1.0000
  O   O3        1.0  0.7209756622144304  0.27902433583063174  0.27902435804448456  1.0000
  O   O4        1.0  0.27902449955534026  0.7209759365731043  0.7209752774346915  1.0000
  O   O5        1.0  0.27902437295912413  0.7209756768743311  0.27902427844867145  1.0000
  O   O6        1.0  0.7209758671666361  0.27902442243442305  0.7209753865099418  1.0000
