data_image0
_chemical_formula_structural       Pd2YS6
_chemical_formula_sum              "Pd2 Y1 S6"
_cell_length_a       6.635692807030709
_cell_length_b       6.635692965540611
_cell_length_c       6.635693326087578
_cell_angle_alpha    60.000001600654926
_cell_angle_beta     59.99999985030959
_cell_angle_gamma    60.00000028102667

_space_group_name_H-M_alt    "P 1"
_space_group_IT_number       1

loop_
  _space_group_symop_operation_xyz
  'x, y, z'

loop_
  _atom_site_type_symbol
  _atom_site_label
  _atom_site_symmetry_multiplicity
  _atom_site_fract_x
  _atom_site_fract_y
  _atom_site_fract_z
  _atom_site_occupancy
  Pd  Pd1       1.0  0.24999970451905118  0.25000008062027207  0.2500001662218774  1.0000
  Pd  Pd2       1.0  0.7499999437286154  0.7500000222233962  0.7499999100823331  1.0000
  Y   Y1        1.0  2.2528883645425462e-07  0.9999998357333697  1.1684939691702668e-08  1.0000
  S   S1        1.0  0.2782186904543817  0.2782187227918654  0.7217812414361858  1.0000
  S   S2        1.0  0.7217814309202787  0.7217811770256292  0.27821876612568536  1.0000
  S   S3        1.0  0.7217813314006292  0.2782187653443756  0.2782187272529544  1.0000
  S   S4        1.0  0.2782186496351719  0.7217813153509849  0.7217813655295227  1.0000
  S   S5        1.0  0.2782186719849507  0.7217813983267264  0.2782186231281475  1.0000
  S   S6        1.0  0.721781330442148  0.2782186860600116  0.7217812084577401  1.0000
