data_image0
_chemical_formula_structural       Pd2ZnO6
_chemical_formula_sum              "Pd2 Zn1 O6"
_cell_length_a       5.258715689530587
_cell_length_b       5.258715633629625
_cell_length_c       5.258715766809823
_cell_angle_alpha    59.9999990145814
_cell_angle_beta     59.99999852427844
_cell_angle_gamma    59.99999815744971

_space_group_name_H-M_alt    "P 1"
_space_group_IT_number       1

loop_
  _space_group_symop_operation_xyz
  'x, y, z'

loop_
  _atom_site_type_symbol
  _atom_site_label
  _atom_site_symmetry_multiplicity
  _atom_site_fract_x
  _atom_site_fract_y
  _atom_site_fract_z
  _atom_site_occupancy
  Pd  Pd1       1.0  0.25000012779235675  0.24999964939415645  0.25000021890365354  1.0000
  Pd  Pd2       1.0  0.7500010594572725  0.7500002267930408  0.7499996945784067  1.0000
  Zn  Zn1       1.0  3.939092137891005e-08  6.986942661665616e-09  0.9999999882206975  1.0000
  O   O1        1.0  0.2619279207560895  0.26192844653013325  0.7380717975978736  1.0000
  O   O2        1.0  0.7380716759843577  0.7380718535316246  0.26192810209755046  1.0000
  O   O3        1.0  0.7380717285380914  0.2619281173006039  0.26192832099213803  1.0000
  O   O4        1.0  0.26192775418154485  0.738071905612414  0.7380716754046046  1.0000
  O   O5        1.0  0.26192786307956195  0.7380719488795286  0.26192847407399245  1.0000
  O   O6        1.0  0.73807183081603  0.261927862096215  0.7380717394863742  1.0000
