data_image0
_chemical_formula_structural       Pd2ZnS6
_chemical_formula_sum              "Pd2 Zn1 S6"
_cell_length_a       6.088111806991282
_cell_length_b       6.088112038245287
_cell_length_c       6.0881117077982125
_cell_angle_alpha    60.00000190942857
_cell_angle_beta     60.000001205056606
_cell_angle_gamma    60.000002925856116

_space_group_name_H-M_alt    "P 1"
_space_group_IT_number       1

loop_
  _space_group_symop_operation_xyz
  'x, y, z'

loop_
  _atom_site_type_symbol
  _atom_site_label
  _atom_site_symmetry_multiplicity
  _atom_site_fract_x
  _atom_site_fract_y
  _atom_site_fract_z
  _atom_site_occupancy
  Pd  Pd1       1.0  0.2500006014847762  0.2500005433364428  0.24999939228672666  1.0000
  Pd  Pd2       1.0  0.7500000713533757  0.7499985561333713  0.749999681876279  1.0000
  Zn  Zn1       1.0  6.13238249424714e-08  6.638606497232017e-08  0.9999998375923302  1.0000
  S   S1        1.0  0.2648045360372757  0.2648050395518048  0.7351951829198031  1.0000
  S   S2        1.0  0.7351951981896735  0.7351952085980733  0.26480535812473494  1.0000
  S   S3        1.0  0.735194759961382  0.26480516663180104  0.26480446989999434  1.0000
  S   S4        1.0  0.2648051998155311  0.735194956792748  0.7351955887427819  1.0000
  S   S5        1.0  0.26480468491034775  0.7351947964331812  0.2648048893099521  1.0000
  S   S6        1.0  0.735194888308502  0.264805673003575  0.7351956002421054  1.0000
