data_image0
_chemical_formula_structural       Pd2ZnSe6
_chemical_formula_sum              "Pd2 Zn1 Se6"
_cell_length_a       6.336553398047233
_cell_length_b       6.336553482945139
_cell_length_c       6.336553831267559
_cell_angle_alpha    59.99999981432799
_cell_angle_beta     59.99999859596566
_cell_angle_gamma    59.99999879307013

_space_group_name_H-M_alt    "P 1"
_space_group_IT_number       1

loop_
  _space_group_symop_operation_xyz
  'x, y, z'

loop_
  _atom_site_type_symbol
  _atom_site_label
  _atom_site_symmetry_multiplicity
  _atom_site_fract_x
  _atom_site_fract_y
  _atom_site_fract_z
  _atom_site_occupancy
  Pd  Pd1       1.0  0.25000010664429245  0.2499999639672723  0.2500000174327397  1.0000
  Pd  Pd2       1.0  0.7500004318850044  0.7499998184544722  0.7500003818158469  1.0000
  Zn  Zn1       1.0  2.400461439984175e-10  0.9999999555450263  5.0514071115963004e-08  1.0000
  Se  Se1       1.0  0.28195940567209143  0.2819595991952461  0.7180404805788803  1.0000
  Se  Se2       1.0  0.7180405102009229  0.7180405040754368  0.28195920790627244  1.0000
  Se  Se3       1.0  0.7180403376239537  0.2819597141206593  0.2819594182477257  1.0000
  Se  Se4       1.0  0.28195926557087253  0.7180403814187283  0.718040469895789  1.0000
  Se  Se5       1.0  0.28195946058537874  0.7180406105650776  0.281959464756397  1.0000
  Se  Se6       1.0  0.7180404784625711  0.28195945598193506  0.7180405161473465  1.0000
