data_image0
_chemical_formula_structural       Pt2AgSe6
_chemical_formula_sum              "Pt2 Ag1 Se6"
_cell_length_a       6.299419419996615
_cell_length_b       6.29941937446127
_cell_length_c       6.299419396372309
_cell_angle_alpha    59.99999819851253
_cell_angle_beta     59.999999120153575
_cell_angle_gamma    59.9999995806034

_space_group_name_H-M_alt    "P 1"
_space_group_IT_number       1

loop_
  _space_group_symop_operation_xyz
  'x, y, z'

loop_
  _atom_site_type_symbol
  _atom_site_label
  _atom_site_symmetry_multiplicity
  _atom_site_fract_x
  _atom_site_fract_y
  _atom_site_fract_z
  _atom_site_occupancy
  Pt  Pt1       1.0  0.2499999540830084  0.249999527279216  0.2500002926225402  1.0000
  Pt  Pt2       1.0  0.7500004583316003  0.7499998455798099  0.7499996907886741  1.0000
  Ag  Ag1       1.0  0.9999999589332198  0.9999999747251551  1.2841768627669846e-07  1.0000
  Se  Se1       1.0  0.28958802415510304  0.28958827460171466  0.7104118691212313  1.0000
  Se  Se2       1.0  0.7104118297831168  0.7104119323271233  0.2895882463594054  1.0000
  Se  Se3       1.0  0.7104119404682824  0.28958804808609456  0.28958822962499864  1.0000
  Se  Se4       1.0  0.28958798497706645  0.7104121257910296  0.7104116412103307  1.0000
  Se  Se5       1.0  0.2895879587568064  0.7104120797459329  0.28958817708096696  1.0000
  Se  Se6       1.0  0.7104118908291329  0.28958819523056234  0.7104117255829218  1.0000
