data_image0
_chemical_formula_structural       Pt2AuS6
_chemical_formula_sum              "Pt2 Au1 S6"
_cell_length_a       5.889780163142056
_cell_length_b       5.889780298157138
_cell_length_c       5.889780093438522
_cell_angle_alpha    60.00000947156013
_cell_angle_beta     60.00000199163152
_cell_angle_gamma    60.000006182212736

_space_group_name_H-M_alt    "P 1"
_space_group_IT_number       1

loop_
  _space_group_symop_operation_xyz
  'x, y, z'

loop_
  _atom_site_type_symbol
  _atom_site_label
  _atom_site_symmetry_multiplicity
  _atom_site_fract_x
  _atom_site_fract_y
  _atom_site_fract_z
  _atom_site_occupancy
  Pt  Pt1       1.0  0.24999931092576483  0.25000009991602956  0.25000050234437265  1.0000
  Pt  Pt2       1.0  0.7500000276682258  0.7499996613597967  0.7499997261109023  1.0000
  Au  Au1       1.0  0.9999999936223504  6.03037779305515e-08  3.0764052385619776e-08  1.0000
  S   S1        1.0  0.2780875231858049  0.2780878637848259  0.7219123929996323  1.0000
  S   S2        1.0  0.7219125203373774  0.7219121823744025  0.2780879687561881  1.0000
  S   S3        1.0  0.7219125370229595  0.2780877189663716  0.2780875852516928  1.0000
  S   S4        1.0  0.27808763477962695  0.7219126599032999  0.721912214927256  1.0000
  S   S5        1.0  0.2780874803071522  0.7219121549229013  0.2780878383777569  1.0000
  S   S6        1.0  0.7219129529476181  0.27808760427348506  0.721911745311198  1.0000
