data_image0
_chemical_formula_structural       Pt2BeO6
_chemical_formula_sum              "Pt2 Be1 O6"
_cell_length_a       4.134517919045213
_cell_length_b       4.1345178188194955
_cell_length_c       4.134517614730336
_cell_angle_alpha    59.999991341630995
_cell_angle_beta     59.9999940759354
_cell_angle_gamma    60.000025405770614

_space_group_name_H-M_alt    "P 1"
_space_group_IT_number       1

loop_
  _space_group_symop_operation_xyz
  'x, y, z'

loop_
  _atom_site_type_symbol
  _atom_site_label
  _atom_site_symmetry_multiplicity
  _atom_site_fract_x
  _atom_site_fract_y
  _atom_site_fract_z
  _atom_site_occupancy
  Pt  Pt1       1.0  0.2499978421301525  0.24999958181625595  0.25000180488219687  1.0000
  Pt  Pt2       1.0  0.7500005593934483  0.7500033013819002  0.749997387752848  1.0000
  Be  Be1       1.0  1.9606930462907824e-07  0.9999995793614961  1.1228461998495173e-07  1.0000
  O   O1        1.0  0.2664613906722274  0.2664572069935835  0.7335402875735867  1.0000
  O   O2        1.0  0.73354388058412  0.7335410699183723  0.266458056321545  1.0000
  O   O3        1.0  0.7335417115303862  0.26645632525081303  0.2664634635773813  1.0000
  O   O4        1.0  0.2664563955023841  0.7335433024412017  0.7335429218589528  1.0000
  O   O5        1.0  0.26645585088354296  0.7335427586179928  0.266458016227408  1.0000
  O   O6        1.0  0.7335421244657283  0.2664567446606357  0.7335380824994844  1.0000
