data_image0
_chemical_formula_structural       Pt2BeS6
_chemical_formula_sum              "Pt2 Be1 S6"
_cell_length_a       5.613076881014655
_cell_length_b       5.613077220801082
_cell_length_c       5.613076369530048
_cell_angle_alpha    59.999989786338816
_cell_angle_beta     59.99998725673476
_cell_angle_gamma    59.99999182567046

_space_group_name_H-M_alt    "P 1"
_space_group_IT_number       1

loop_
  _space_group_symop_operation_xyz
  'x, y, z'

loop_
  _atom_site_type_symbol
  _atom_site_label
  _atom_site_symmetry_multiplicity
  _atom_site_fract_x
  _atom_site_fract_y
  _atom_site_fract_z
  _atom_site_occupancy
  Pt  Pt1       1.0  0.24999944929670614  0.2500010931008576  0.24999690799505978  1.0000
  Pt  Pt2       1.0  0.749999155927421  0.7500002442102205  0.7499993823951598  1.0000
  Be  Be1       1.0  0.9999997985835002  9.818772672798686e-08  1.9546422896925703e-08  1.0000
  S   S1        1.0  0.25522003833105034  0.25521966567298127  0.7447811518990327  1.0000
  S   S2        1.0  0.7447803979598583  0.7447800788146309  0.2552188550557707  1.0000
  S   S3        1.0  0.7447797837134579  0.255219250541198  0.2552211779390195  1.0000
  S   S4        1.0  0.2552212292498815  0.7447791280459232  0.7447811192036129  1.0000
  S   S5        1.0  0.2552196544971466  0.7447802962154714  0.25522109044195695  1.0000
  S   S6        1.0  0.7447804297369118  0.2552201464957431  0.7447803575175727  1.0000
