data_image0
_chemical_formula_structural       Pt2CoN6
_chemical_formula_sum              "Pt2 Co1 N6"
_cell_length_a       2.2720433363508628
_cell_length_b       3.3554187529026778
_cell_length_c       1.8924031743406755
_cell_angle_alpha    87.92783100369334
_cell_angle_beta     58.04908168544892
_cell_angle_gamma    81.66811752597657

_space_group_name_H-M_alt    "P 1"
_space_group_IT_number       1

loop_
  _space_group_symop_operation_xyz
  'x, y, z'

loop_
  _atom_site_type_symbol
  _atom_site_label
  _atom_site_symmetry_multiplicity
  _atom_site_fract_x
  _atom_site_fract_y
  _atom_site_fract_z
  _atom_site_occupancy
  Pt  Pt1       1.0  0.16385695385284366  0.5404715456257181  0.7103836060219209  1.0000
  Pt  Pt2       1.0  0.7012974722235861  0.5478118152194441  0.13286687756396764  1.0000
  Co  Co1       1.0  0.2846098325582923  0.681557555139778  0.28558663009627927  1.0000
  N   N1        1.0  0.4548480192580857  0.6249286314537251  0.03086503490350956  1.0000
  N   N2        1.0  0.44960996840609785  0.0208640817980712  0.7225567968343897  1.0000
  N   N3        1.0  0.12355313558466197  0.444827537034562  0.19987580644161523  1.0000
  N   N4        1.0  0.5368557486392698  0.5003819033940239  0.4611396170300016  1.0000
  N   N5        1.0  0.5736283550874297  0.47957749070722244  0.6032300833412184  1.0000
  N   N6        1.0  0.3087037925800992  0.44834189692423876  0.0325444814006246  1.0000
