data_image0
_chemical_formula_structural       Pt2CoS6
_chemical_formula_sum              "Pt2 Co1 S6"
_cell_length_a       5.77480628268565
_cell_length_b       5.774806859145669
_cell_length_c       5.774806103597141
_cell_angle_alpha    59.99999807565654
_cell_angle_beta     59.99999704134721
_cell_angle_gamma    59.999998657631565

_space_group_name_H-M_alt    "P 1"
_space_group_IT_number       1

loop_
  _space_group_symop_operation_xyz
  'x, y, z'

loop_
  _atom_site_type_symbol
  _atom_site_label
  _atom_site_symmetry_multiplicity
  _atom_site_fract_x
  _atom_site_fract_y
  _atom_site_fract_z
  _atom_site_occupancy
  Pt  Pt1       1.0  0.24999952508374734  0.2500003324006134  0.2500002801842039  1.0000
  Pt  Pt2       1.0  0.7499994544051394  0.7499998773976609  0.7500002560922114  1.0000
  Co  Co1       1.0  3.445668705307113e-08  1.0604204324346206e-08  5.176110729669122e-09  1.0000
  S   S1        1.0  0.26139788067875247  0.2613977499446378  0.7386022279137605  1.0000
  S   S2        1.0  0.7386023719821213  0.7386021735400404  0.26139779588517575  1.0000
  S   S3        1.0  0.7386023599203752  0.2613978737099559  0.26139757885681886  1.0000
  S   S4        1.0  0.2613979765966825  0.7386022661005361  0.7386022377063299  1.0000
  S   S5        1.0  0.2613980083319145  0.7386020064252751  0.26139751733855343  1.0000
  S   S6        1.0  0.7386024027404248  0.26139775375464447  0.7386020863820236  1.0000
