data_image0
_chemical_formula_structural       Pt2CS6
_chemical_formula_sum              "Pt2 C1 S6"
_cell_length_a       5.681944834258312
_cell_length_b       5.681947496689886
_cell_length_c       5.681947531672345
_cell_angle_alpha    60.00000248690277
_cell_angle_beta     59.9999972227306
_cell_angle_gamma    60.000009728678236

_space_group_name_H-M_alt    "P 1"
_space_group_IT_number       1

loop_
  _space_group_symop_operation_xyz
  'x, y, z'

loop_
  _atom_site_type_symbol
  _atom_site_label
  _atom_site_symmetry_multiplicity
  _atom_site_fract_x
  _atom_site_fract_y
  _atom_site_fract_z
  _atom_site_occupancy
  Pt  Pt1       1.0  0.24999916965261285  0.2500004434384775  0.25000052992730654  1.0000
  Pt  Pt2       1.0  0.7500002033962327  0.7499993558759355  0.7499993835847238  1.0000
  C   C1        1.0  0.9999985822618448  3.869125463722043e-06  3.6212359427825664e-06  1.0000
  S   S1        1.0  0.24902078403503802  0.24902088374337666  0.7509788907349068  1.0000
  S   S2        1.0  0.7509785218625803  0.750978031815323  0.24902208781714744  1.0000
  S   S3        1.0  0.750980270144359  0.24901966652838164  0.24902005374450914  1.0000
  S   S4        1.0  0.24902302786220892  0.7509772163923165  0.7509767806644592  1.0000
  S   S5        1.0  0.24902091917443156  0.7509784628592705  0.24902096629690515  1.0000
  S   S6        1.0  0.7509785611595163  0.24902206932574011  0.75097775627485  1.0000
