data_image0
_chemical_formula_structural       Pt2CrN6
_chemical_formula_sum              "Pt2 Cr1 N6"
_cell_length_a       2.50164532834445
_cell_length_b       2.3337274799085637
_cell_length_c       2.5257896220430984
_cell_angle_alpha    107.84621735809554
_cell_angle_beta     72.27781069077449
_cell_angle_gamma    61.23212112948511

_space_group_name_H-M_alt    "P 1"
_space_group_IT_number       1

loop_
  _space_group_symop_operation_xyz
  'x, y, z'

loop_
  _atom_site_type_symbol
  _atom_site_label
  _atom_site_symmetry_multiplicity
  _atom_site_fract_x
  _atom_site_fract_y
  _atom_site_fract_z
  _atom_site_occupancy
  Pt  Pt1       1.0  0.9302212700774313  0.13949073451604832  0.22233485400663416  1.0000
  Pt  Pt2       1.0  0.1293700851832944  0.07116026342367254  0.8658043165900386  1.0000
  Cr  Cr1       1.0  0.10544727091411328  0.9618270058302538  0.18369398408382942  1.0000
  N   N1        1.0  0.2649997313736251  0.44931612673657884  0.9166929724405983  1.0000
  N   N2        1.0  0.4807874160824626  0.8127480032640244  0.8905095355291526  1.0000
  N   N3        1.0  0.7624811747762092  0.5782231386971324  0.44803471516506965  1.0000
  N   N4        1.0  0.8830670885015071  0.44977554614657844  0.26923341486725916  1.0000
  N   N5        1.0  0.14987886054193558  0.06752873020903527  0.32099641450646343  1.0000
  N   N6        1.0  0.7435141682167877  0.01723558543700543  0.5117389053501281  1.0000
