data_image0
_chemical_formula_structural       Pt2CdO6
_chemical_formula_sum              "Pt2 Cd1 O6"
_cell_length_a       5.532873985378001
_cell_length_b       5.5328740857325025
_cell_length_c       5.532874076572411
_cell_angle_alpha    59.999998540742574
_cell_angle_beta     59.99999945232774
_cell_angle_gamma    59.99999999521908

_space_group_name_H-M_alt    "P 1"
_space_group_IT_number       1

loop_
  _space_group_symop_operation_xyz
  'x, y, z'

loop_
  _atom_site_type_symbol
  _atom_site_label
  _atom_site_symmetry_multiplicity
  _atom_site_fract_x
  _atom_site_fract_y
  _atom_site_fract_z
  _atom_site_occupancy
  Pt  Pt1       1.0  0.2500004806613185  0.24999967406726403  0.24999956041188204  1.0000
  Pt  Pt2       1.0  0.7500005711914085  0.7499999253416288  0.7499997838295454  1.0000
  Cd  Cd1       1.0  6.688828303847166e-08  3.0990093820323035e-08  0.9999999420239166  1.0000
  O   O1        1.0  0.27880008069065026  0.2788000786307202  0.7212000985014618  1.0000
  O   O2        1.0  0.721199555732526  0.7212003110255332  0.27880012584803426  1.0000
  O   O3        1.0  0.7212000071403717  0.2788000119655991  0.2788001352978368  1.0000
  O   O4        1.0  0.27879959893686684  0.7211997800245761  0.7212000198933418  1.0000
  O   O5        1.0  0.27879996087654974  0.7212000466021863  0.278800195701084  1.0000
  O   O6        1.0  0.7211996975160949  0.2788001394048828  0.721200126717788  1.0000
