data_image0
_chemical_formula_structural       Pt2CaO6
_chemical_formula_sum              "Pt2 Ca1 O6"
_cell_length_a       5.6462599304496495
_cell_length_b       5.646259602026525
_cell_length_c       5.646259716729607
_cell_angle_alpha    59.99999417236235
_cell_angle_beta     59.99999732834424
_cell_angle_gamma    59.999997391723966

_space_group_name_H-M_alt    "P 1"
_space_group_IT_number       1

loop_
  _space_group_symop_operation_xyz
  'x, y, z'

loop_
  _atom_site_type_symbol
  _atom_site_label
  _atom_site_symmetry_multiplicity
  _atom_site_fract_x
  _atom_site_fract_y
  _atom_site_fract_z
  _atom_site_occupancy
  Pt  Pt1       1.0  0.25000137131228584  0.24999890025233673  0.2499999518468597  1.0000
  Pt  Pt2       1.0  0.7500001697009078  0.7500000607333109  0.7500016885134322  1.0000
  Ca  Ca1       1.0  0.9999999584570108  6.941203577764473e-08  9.08956665431743e-09  1.0000
  O   O1        1.0  0.2808226857301638  0.2808227693385852  0.7191772891971466  1.0000
  O   O2        1.0  0.7191766864679405  0.7191777837857586  0.28082174909232666  1.0000
  O   O3        1.0  0.7191767836327979  0.2808230477057458  0.2808224550661564  1.0000
  O   O4        1.0  0.2808222476586212  0.7191774728816872  0.7191770338366359  1.0000
  O   O5        1.0  0.2808230628440492  0.7191776438408866  0.28082227189024206  1.0000
  O   O6        1.0  0.719177019975982  0.28082224986907717  0.7191775802892578  1.0000
