data_image0
_chemical_formula_structural       Pt2CrSe6
_chemical_formula_sum              "Pt2 Cr1 Se6"
_cell_length_a       6.126142493230818
_cell_length_b       6.126143938694332
_cell_length_c       6.126142494504073
_cell_angle_alpha    60.000004002989655
_cell_angle_beta     59.99999821169038
_cell_angle_gamma    60.000005831617024

_space_group_name_H-M_alt    "P 1"
_space_group_IT_number       1

loop_
  _space_group_symop_operation_xyz
  'x, y, z'

loop_
  _atom_site_type_symbol
  _atom_site_label
  _atom_site_symmetry_multiplicity
  _atom_site_fract_x
  _atom_site_fract_y
  _atom_site_fract_z
  _atom_site_occupancy
  Pt  Pt1       1.0  0.25000011639600694  0.2499999439952866  0.2500000413338119  1.0000
  Pt  Pt2       1.0  0.7500000232909546  0.7500000858855307  0.7499998449568542  1.0000
  Cr  Cr1       1.0  0.9999999267185933  0.9999999880047399  5.243242621216438e-08  1.0000
  Se  Se1       1.0  0.2768942708091758  0.27689433140858777  0.723105693015266  1.0000
  Se  Se2       1.0  0.7231058811246732  0.7231054185828347  0.276894477272731  1.0000
  Se  Se3       1.0  0.7231056071336537  0.2768944046215723  0.2768941989136006  1.0000
  Se  Se4       1.0  0.2768943098899123  0.7231056712410735  0.7231057544973191  1.0000
  Se  Se5       1.0  0.27689427948868456  0.7231056394543127  0.27689426954310853  1.0000
  Se  Se6       1.0  0.7231055839384487  0.27689451237831003  0.7231056743133862  1.0000
