data_image0
_chemical_formula_structural       Pt2CN6
_chemical_formula_sum              "Pt2 C1 N6"
_cell_length_a       2.6276112452028326
_cell_length_b       3.4827667662603528
_cell_length_c       3.8261927156686255
_cell_angle_alpha    50.99492393911131
_cell_angle_beta     47.546327872041644
_cell_angle_gamma    42.3408655255937

_space_group_name_H-M_alt    "P 1"
_space_group_IT_number       1

loop_
  _space_group_symop_operation_xyz
  'x, y, z'

loop_
  _atom_site_type_symbol
  _atom_site_label
  _atom_site_symmetry_multiplicity
  _atom_site_fract_x
  _atom_site_fract_y
  _atom_site_fract_z
  _atom_site_occupancy
  Pt  Pt1       1.0  0.17413795912812868  0.930791469484601  0.025377901250764008  1.0000
  Pt  Pt2       1.0  0.517820493630419  0.7419158619378927  0.7524639791425838  1.0000
  C   C1        1.0  0.23488047165043713  0.8072640376351948  0.384548909003944  1.0000
  N   N1        1.0  0.3671605665077967  0.10841627687715014  0.5017662854068003  1.0000
  N   N2        1.0  0.8098791684968758  0.19332347674229933  0.9863322893934663  1.0000
  N   N3        1.0  0.6647032031114952  0.3539138817883817  0.00862442132177227  1.0000
  N   N4        1.0  0.4184824606697971  0.04331988222076455  0.510157444383838  1.0000
  N   N5        1.0  0.44689600313783384  0.35391760827472224  0.12946742549397972  1.0000
  N   N6        1.0  0.3752061183709833  0.08607642399229727  0.5022380080482812  1.0000
