data_image0
_chemical_formula_structural       Pt2FeSe6
_chemical_formula_sum              "Pt2 Fe1 Se6"
_cell_length_a       6.09133044377492
_cell_length_b       6.091329811690376
_cell_length_c       6.091330766827271
_cell_angle_alpha    60.00000123281856
_cell_angle_beta     59.999999215570135
_cell_angle_gamma    59.999994708301

_space_group_name_H-M_alt    "P 1"
_space_group_IT_number       1

loop_
  _space_group_symop_operation_xyz
  'x, y, z'

loop_
  _atom_site_type_symbol
  _atom_site_label
  _atom_site_symmetry_multiplicity
  _atom_site_fract_x
  _atom_site_fract_y
  _atom_site_fract_z
  _atom_site_occupancy
  Pt  Pt1       1.0  0.2500006491873958  0.2499998210711204  0.250000006465502  1.0000
  Pt  Pt2       1.0  0.7499999302329646  0.7500004765741459  0.7500004195967611  1.0000
  Fe  Fe1       1.0  0.999999986076597  1.6688281843562193e-07  0.9999999859040412  1.0000
  Se  Se1       1.0  0.27224393035922984  0.27224345972702607  0.7277561089056221  1.0000
  Se  Se2       1.0  0.7277560121506546  0.7277564056313713  0.27224351871324654  1.0000
  Se  Se3       1.0  0.7277561596925023  0.2722435838668725  0.272243672861019  1.0000
  Se  Se4       1.0  0.272243339522013  0.7277563659382823  0.7277563098416373  1.0000
  Se  Se5       1.0  0.2722437565146079  0.7277564550953516  0.27224355773940834  1.0000
  Se  Se6       1.0  0.7277562666112539  0.27224322528452105  0.7277563995042049  1.0000
