data_image0
_chemical_formula_structural       Pt2FeS6
_chemical_formula_sum              "Pt2 Fe1 S6"
_cell_length_a       5.730745913786519
_cell_length_b       5.730745844985827
_cell_length_c       5.730745687715359
_cell_angle_alpha    59.99999880728433
_cell_angle_beta     60.000000546140164
_cell_angle_gamma    59.99999911590493

_space_group_name_H-M_alt    "P 1"
_space_group_IT_number       1

loop_
  _space_group_symop_operation_xyz
  'x, y, z'

loop_
  _atom_site_type_symbol
  _atom_site_label
  _atom_site_symmetry_multiplicity
  _atom_site_fract_x
  _atom_site_fract_y
  _atom_site_fract_z
  _atom_site_occupancy
  Pt  Pt1       1.0  0.25000059720233914  0.24999976291189335  0.24999946138267823  1.0000
  Pt  Pt2       1.0  0.7500001468232358  0.7499991092152769  0.7500002542906521  1.0000
  Fe  Fe1       1.0  1.2100016809257296e-07  0.9999998183424667  0.9999999919392654  1.0000
  S   S1        1.0  0.2630939651322  0.26309414464769076  0.7369059276085647  1.0000
  S   S2        1.0  0.7369058512707513  0.7369062469913154  0.2630939074238604  1.0000
  S   S3        1.0  0.7369058312656837  0.2630943666308227  0.2630938839554961  1.0000
  S   S4        1.0  0.2630937806942949  0.7369060036367016  0.7369064286836428  1.0000
  S   S5        1.0  0.2630938716352007  0.7369062978012001  0.2630939614350586  1.0000
  S   S6        1.0  0.7369058270850436  0.26309427763248033  0.7369061843011822  1.0000
