data_image0
_chemical_formula_structural       Pt2FeN6
_chemical_formula_sum              "Pt2 Fe1 N6"
_cell_length_a       4.8610801153673435
_cell_length_b       4.8610802082833455
_cell_length_c       4.861079793842369
_cell_angle_alpha    59.99999820627644
_cell_angle_beta     59.999995770729264
_cell_angle_gamma    59.99999718783558

_space_group_name_H-M_alt    "P 1"
_space_group_IT_number       1

loop_
  _space_group_symop_operation_xyz
  'x, y, z'

loop_
  _atom_site_type_symbol
  _atom_site_label
  _atom_site_symmetry_multiplicity
  _atom_site_fract_x
  _atom_site_fract_y
  _atom_site_fract_z
  _atom_site_occupancy
  Pt  Pt1       1.0  0.2499999517652202  0.24999999571034598  0.25000009656827843  1.0000
  Pt  Pt2       1.0  0.7499999691707372  0.7499999946895127  0.7500001220159361  1.0000
  Fe  Fe1       1.0  0.9999996223609521  0.9999999143372968  5.155384400439038e-07  1.0000
  N   N1        1.0  0.2795971889753007  0.2795970467734072  0.720402882711441  1.0000
  N   N2        1.0  0.7204030658338655  0.720403082198467  0.27959696182068083  1.0000
  N   N3        1.0  0.72040311492578  0.27959691431514333  0.2795968843171937  1.0000
  N   N4        1.0  0.279597230465719  0.7204029072788067  0.7204028176396848  1.0000
  N   N5        1.0  0.2795969829941629  0.7204030582181996  0.27959685965293907  1.0000
  N   N6        1.0  0.7204029023313101  0.2795971387799523  0.7204028455488946  1.0000
