data_image0
_chemical_formula_structural       Pt2GeO6
_chemical_formula_sum              "Pt2 Ge1 O6"
_cell_length_a       5.186803433504838
_cell_length_b       5.186803313274089
_cell_length_c       5.186803587190258
_cell_angle_alpha    59.99999894621125
_cell_angle_beta     60.000000102865
_cell_angle_gamma    59.99999865681747

_space_group_name_H-M_alt    "P 1"
_space_group_IT_number       1

loop_
  _space_group_symop_operation_xyz
  'x, y, z'

loop_
  _atom_site_type_symbol
  _atom_site_label
  _atom_site_symmetry_multiplicity
  _atom_site_fract_x
  _atom_site_fract_y
  _atom_site_fract_z
  _atom_site_occupancy
  Pt  Pt1       1.0  0.25000187690680153  0.2499990100174159  0.24999978670106007  1.0000
  Pt  Pt2       1.0  0.750000895093166  0.7499991551962849  0.7499996878641306  1.0000
  Ge  Ge1       1.0  4.571677431527868e-08  0.9999999763872884  0.9999999696682722  1.0000
  O   O1        1.0  0.2512347100249008  0.25123551277222  0.7487649484267157  1.0000
  O   O2        1.0  0.7487641824882558  0.7487655284697371  0.25123528621567126  1.0000
  O   O3        1.0  0.7487641101327173  0.2512352542799903  0.25123509333772986  1.0000
  O   O4        1.0  0.25123485990520955  0.7487651069158785  0.7487647311445049  1.0000
  O   O5        1.0  0.2512347764644694  0.748764986978943  0.25123535892512855  1.0000
  O   O6        1.0  0.7487645130467343  0.25123547102904387  0.7487651866957927  1.0000
