data_image0
_chemical_formula_structural       Pt2GeN6
_chemical_formula_sum              "Pt2 Ge1 N6"
_cell_length_a       3.4594175085853567
_cell_length_b       2.5975649571941064
_cell_length_c       2.8388411006654097
_cell_angle_alpha    69.0075379482428
_cell_angle_beta     34.37063217954524
_cell_angle_gamma    55.78601338009072

_space_group_name_H-M_alt    "P 1"
_space_group_IT_number       1

loop_
  _space_group_symop_operation_xyz
  'x, y, z'

loop_
  _atom_site_type_symbol
  _atom_site_label
  _atom_site_symmetry_multiplicity
  _atom_site_fract_x
  _atom_site_fract_y
  _atom_site_fract_z
  _atom_site_occupancy
  Pt  Pt1       1.0  0.4656910717636763  0.36379791323791966  0.10263634751050192  1.0000
  Pt  Pt2       1.0  0.43988521686885984  0.10492893887132053  0.785374836291039  1.0000
  Ge  Ge1       1.0  0.7331000118633936  0.8605872551707989  0.8201903266430394  1.0000
  N   N1        1.0  0.9300072221713923  0.14821783483147702  0.3986597805184257  1.0000
  N   N2        1.0  0.8554591327098016  0.44814315719246733  0.4148240891688523  1.0000
  N   N3        1.0  0.6732553152685461  0.601570853942972  0.7744221673631773  1.0000
  N   N4        1.0  0.2845544942747684  0.03549342634782815  0.14298483376084004  1.0000
  N   N5        1.0  0.38897376724257593  0.5530792915437215  0.620764578383699  1.0000
  N   N6        1.0  0.04138942872815643  0.910058074201625  0.36786818968839163  1.0000
