data_image0
_chemical_formula_structural       Pt2HgS6
_chemical_formula_sum              "Pt2 Hg1 S6"
_cell_length_a       5.936108775085989
_cell_length_b       5.936106182923837
_cell_length_c       5.936108920168802
_cell_angle_alpha    59.99998342357858
_cell_angle_beta     60.00000018272262
_cell_angle_gamma    59.99999252831483

_space_group_name_H-M_alt    "P 1"
_space_group_IT_number       1

loop_
  _space_group_symop_operation_xyz
  'x, y, z'

loop_
  _atom_site_type_symbol
  _atom_site_label
  _atom_site_symmetry_multiplicity
  _atom_site_fract_x
  _atom_site_fract_y
  _atom_site_fract_z
  _atom_site_occupancy
  Pt  Pt1       1.0  0.24999565368081758  0.2500052697432378  0.24999964377738054  1.0000
  Pt  Pt2       1.0  0.7499984479910766  0.7499971804807982  0.75000137017786  1.0000
  Hg  Hg1       1.0  0.9999997591033903  2.558383886472248e-07  0.999999926829503  1.0000
  S   S1        1.0  0.28076886187818606  0.2807741935156774  0.7192278499517442  1.0000
  S   S2        1.0  0.7192331685281517  0.7192236289223604  0.2807719498421282  1.0000
  S   S3        1.0  0.7192299011835781  0.28077408062704473  0.2807692428525189  1.0000
  S   S4        1.0  0.28077299783295806  0.7192247073946926  0.7192324682965446  1.0000
  S   S5        1.0  0.28077181283473257  0.7192249054272749  0.28077066518019084  1.0000
  S   S6        1.0  0.7192293966420368  0.28077577662389874  0.7192268956176926  1.0000
