data_image0
_chemical_formula_structural       Pt2IrN6
_chemical_formula_sum              "Pt2 Ir1 N6"
_cell_length_a       3.080875092690387
_cell_length_b       3.0583578246336325
_cell_length_c       2.7558897441743
_cell_angle_alpha    60.379529132247114
_cell_angle_beta     54.67324586036588
_cell_angle_gamma    52.37967680189847

_space_group_name_H-M_alt    "P 1"
_space_group_IT_number       1

loop_
  _space_group_symop_operation_xyz
  'x, y, z'

loop_
  _atom_site_type_symbol
  _atom_site_label
  _atom_site_symmetry_multiplicity
  _atom_site_fract_x
  _atom_site_fract_y
  _atom_site_fract_z
  _atom_site_occupancy
  Pt  Pt1       1.0  0.6520577236482806  0.5569555232643109  0.07209617589128905  1.0000
  Pt  Pt2       1.0  0.28851782837787  0.5308111800910015  0.3944828928996357  1.0000
  Ir  Ir1       1.0  0.5933635620661745  0.6425707894419839  0.958112774383908  1.0000
  N   N1        1.0  0.4010968255068226  0.3825200891465279  0.5681492436227195  1.0000
  N   N2        1.0  0.38484520575542125  0.25723878314882526  0.1202492239056385  1.0000
  N   N3        1.0  0.6852263739925092  0.8468626565358809  0.5010218709781191  1.0000
  N   N4        1.0  0.5811943376824472  0.4294099895265414  0.5174516673606296  1.0000
  N   N5        1.0  0.969928490705991  0.4188505958057962  0.1547523287340043  1.0000
  N   N6        1.0  0.8251148492707662  0.014005250497053083  0.7428798146242382  1.0000
