data_image0
_chemical_formula_structural       Pt2InSe6
_chemical_formula_sum              "Pt2 In1 Se6"
_cell_length_a       6.4345417847573385
_cell_length_b       6.434541907360857
_cell_length_c       6.434541996223171
_cell_angle_alpha    59.99999997401307
_cell_angle_beta     60.000000195004496
_cell_angle_gamma    59.999999271870195

_space_group_name_H-M_alt    "P 1"
_space_group_IT_number       1

loop_
  _space_group_symop_operation_xyz
  'x, y, z'

loop_
  _atom_site_type_symbol
  _atom_site_label
  _atom_site_symmetry_multiplicity
  _atom_site_fract_x
  _atom_site_fract_y
  _atom_site_fract_z
  _atom_site_occupancy
  Pt  Pt1       1.0  0.25000005212174836  0.24999979069093134  0.249999791504652  1.0000
  Pt  Pt2       1.0  0.7499999105727486  0.7500001848207266  0.7499999271485835  1.0000
  In  In1       1.0  2.3546658482679253e-08  0.9999999885796541  1.532925624920521e-10  1.0000
  Se  Se1       1.0  0.2897754219374334  0.2897753617429118  0.7102247414895153  1.0000
  Se  Se2       1.0  0.7102245329444692  0.7102246156721371  0.28977546033898116  1.0000
  Se  Se3       1.0  0.7102246440138399  0.2897753718961921  0.2897754653166216  1.0000
  Se  Se4       1.0  0.289775397692993  0.7102246949782297  0.7102245255948635  1.0000
  Se  Se5       1.0  0.2897754844936352  0.7102247520634187  0.289775375599779  1.0000
  Se  Se6       1.0  0.7102245245321862  0.2897752405787569  0.7102247060670261  1.0000
