data_image0
_chemical_formula_structural       Pt2MnN6
_chemical_formula_sum              "Pt2 Mn1 N6"
_cell_length_a       4.836547195143126
_cell_length_b       4.836546298511024
_cell_length_c       4.836546994364063
_cell_angle_alpha    60.00000657121189
_cell_angle_beta     59.99998517804451
_cell_angle_gamma    60.000004635000884

_space_group_name_H-M_alt    "P 1"
_space_group_IT_number       1

loop_
  _space_group_symop_operation_xyz
  'x, y, z'

loop_
  _atom_site_type_symbol
  _atom_site_label
  _atom_site_symmetry_multiplicity
  _atom_site_fract_x
  _atom_site_fract_y
  _atom_site_fract_z
  _atom_site_occupancy
  Pt  Pt1       1.0  0.2499999206909411  0.24999995636265998  0.25000015831180716  1.0000
  Pt  Pt2       1.0  0.7499999146750681  0.7499999627819827  0.7500000954060296  1.0000
  Mn  Mn1       1.0  0.9999997245041599  0.9999999240318809  3.9903181169843076e-07  1.0000
  N   N1        1.0  0.2673483937627432  0.2673484408529025  0.7326515802312679  1.0000
  N   N2        1.0  0.7326517494847875  0.7326516504861688  0.2673481915404489  1.0000
  N   N3        1.0  0.7326520021272572  0.2673481696980549  0.26734797900653273  1.0000
  N   N4        1.0  0.2673481789346693  0.7326518583342353  0.7326518013761849  1.0000
  N   N5        1.0  0.267349331980021  0.7326507470552549  0.2673491725324836  1.0000
  N   N6        1.0  0.7326507204244933  0.26734930883201  0.7326506582514711  1.0000
