data_image0
_chemical_formula_structural       Pt2MgO6
_chemical_formula_sum              "Pt2 Mg1 O6"
_cell_length_a       5.254323389522202
_cell_length_b       5.2543241168050265
_cell_length_c       5.254324653088124
_cell_angle_alpha    59.999991588853156
_cell_angle_beta     59.99998661993625
_cell_angle_gamma    59.9999833724431

_space_group_name_H-M_alt    "P 1"
_space_group_IT_number       1

loop_
  _space_group_symop_operation_xyz
  'x, y, z'

loop_
  _atom_site_type_symbol
  _atom_site_label
  _atom_site_symmetry_multiplicity
  _atom_site_fract_x
  _atom_site_fract_y
  _atom_site_fract_z
  _atom_site_occupancy
  Pt  Pt1       1.0  0.24998584566854123  0.25000488723263176  0.25000898227553275  1.0000
  Pt  Pt2       1.0  0.7499950710770698  0.7500065826971507  0.750005481982686  1.0000
  Mg  Mg1       1.0  0.9999991863393738  4.894949329460015e-07  5.903015475904587e-07  1.0000
  O   O1        1.0  0.2608031266246599  0.2607965781953816  0.7391984553814273  1.0000
  O   O2        1.0  0.7392050969735987  0.7391954121676786  0.2607960646290319  1.0000
  O   O3        1.0  0.7392034848416927  0.26079951216598835  0.2607998608612975  1.0000
  O   O4        1.0  0.2607995593338765  0.7392007972788244  0.7391991490897347  1.0000
  O   O5        1.0  0.2608017997420161  0.7391992903500559  0.2607978829075632  1.0000
  O   O6        1.0  0.7392068482881193  0.26079645047577554  0.739193571413613  1.0000
