data_image0
_chemical_formula_structural       Pt2MnS6
_chemical_formula_sum              "Pt2 Mn1 S6"
_cell_length_a       5.74829454570334
_cell_length_b       5.748294216086603
_cell_length_c       5.7482943993128055
_cell_angle_alpha    59.99999770363063
_cell_angle_beta     60.00000204777878
_cell_angle_gamma    59.99999928502655

_space_group_name_H-M_alt    "P 1"
_space_group_IT_number       1

loop_
  _space_group_symop_operation_xyz
  'x, y, z'

loop_
  _atom_site_type_symbol
  _atom_site_label
  _atom_site_symmetry_multiplicity
  _atom_site_fract_x
  _atom_site_fract_y
  _atom_site_fract_z
  _atom_site_occupancy
  Pt  Pt1       1.0  0.24999952912827447  0.25000123023859183  0.24999996475715033  1.0000
  Pt  Pt2       1.0  0.7500007911616153  0.7499993271994972  0.7499988169796454  1.0000
  Mn  Mn1       1.0  0.9999999069663864  6.817993740955633e-08  2.472791086486395e-07  1.0000
  S   S1        1.0  0.26633386773653434  0.26633396932298187  0.7336660797764492  1.0000
  S   S2        1.0  0.7336665308787673  0.7336651840343833  0.26633476351377006  1.0000
  S   S3        1.0  0.7336658015578412  0.2663338747880336  0.2663338650163293  1.0000
  S   S4        1.0  0.26633388770334543  0.733666135079873  0.7336659826830386  1.0000
  S   S5        1.0  0.26633358272120905  0.733666026603773  0.26633430391910357  1.0000
  S   S6        1.0  0.7336660837088035  0.26633423254703914  0.7336659837619701  1.0000
