data_image0
_chemical_formula_structural       Pt2MgS6
_chemical_formula_sum              "Pt2 Mg1 S6"
_cell_length_a       5.729382265217984
_cell_length_b       5.729382518976078
_cell_length_c       5.729383145933447
_cell_angle_alpha    59.99999431363699
_cell_angle_beta     60.00000003748576
_cell_angle_gamma    59.999996558331176

_space_group_name_H-M_alt    "P 1"
_space_group_IT_number       1

loop_
  _space_group_symop_operation_xyz
  'x, y, z'

loop_
  _atom_site_type_symbol
  _atom_site_label
  _atom_site_symmetry_multiplicity
  _atom_site_fract_x
  _atom_site_fract_y
  _atom_site_fract_z
  _atom_site_occupancy
  Pt  Pt1       1.0  0.2500008027027926  0.2500013611924223  0.25000038245333694  1.0000
  Pt  Pt2       1.0  0.7499995408065795  0.7500038398847639  0.7499968767499238  1.0000
  Mg  Mg1       1.0  0.9999999445713776  0.9999997007281457  2.0004029262232653e-07  1.0000
  S   S1        1.0  0.27034479978726994  0.270341526349426  0.7296565803315486  1.0000
  S   S2        1.0  0.729656544570301  0.7296560347448121  0.27034462852452745  1.0000
  S   S3        1.0  0.7296558628572206  0.27034228807958327  0.2703443358954952  1.0000
  S   S4        1.0  0.27034297671155244  0.7296571220872748  0.7296559301756468  1.0000
  S   S5        1.0  0.2703431011749018  0.7296556859941796  0.27034414641878896  1.0000
  S   S6        1.0  0.7296564316123493  0.27034242447773743  0.7296569133448269  1.0000
