data_image0
_chemical_formula_structural       Pt2NbS6
_chemical_formula_sum              "Pt2 Nb1 S6"
_cell_length_a       5.948865143671221
_cell_length_b       5.948865349063741
_cell_length_c       5.9488652674952185
_cell_angle_alpha    60.00000223280751
_cell_angle_beta     59.99999742519394
_cell_angle_gamma    60.00000044872948

_space_group_name_H-M_alt    "P 1"
_space_group_IT_number       1

loop_
  _space_group_symop_operation_xyz
  'x, y, z'

loop_
  _atom_site_type_symbol
  _atom_site_label
  _atom_site_symmetry_multiplicity
  _atom_site_fract_x
  _atom_site_fract_y
  _atom_site_fract_z
  _atom_site_occupancy
  Pt  Pt1       1.0  0.2500000506790717  0.2500001676826245  0.2500000547242636  1.0000
  Pt  Pt2       1.0  0.7499999546764489  0.750000605987234  0.7500000063023698  1.0000
  Nb  Nb1       1.0  1.5313061619864596e-08  0.9999999773533388  0.9999999717279351  1.0000
  S   S1        1.0  0.2732688882122609  0.273268922375213  0.7267310898632963  1.0000
  S   S2        1.0  0.7267310130270364  0.7267310339560799  0.2732689208688945  1.0000
  S   S3        1.0  0.7267309935123777  0.2732687534975973  0.2732690077663379  1.0000
  S   S4        1.0  0.27326889084970896  0.7267309681319457  0.726731153970223  1.0000
  S   S5        1.0  0.2732690105473636  0.7267310133996032  0.27326895918529404  1.0000
  S   S6        1.0  0.7267312047946711  0.2732685538208828  0.7267308369019938  1.0000
