data_image0
_chemical_formula_structural       Pt2NiN6
_chemical_formula_sum              "Pt2 Ni1 N6"
_cell_length_a       2.786668055971121
_cell_length_b       2.6334427199057107
_cell_length_c       1.6866504319133122
_cell_angle_alpha    104.67515521664428
_cell_angle_beta     63.12486406476056
_cell_angle_gamma    114.02185781624948

_space_group_name_H-M_alt    "P 1"
_space_group_IT_number       1

loop_
  _space_group_symop_operation_xyz
  'x, y, z'

loop_
  _atom_site_type_symbol
  _atom_site_label
  _atom_site_symmetry_multiplicity
  _atom_site_fract_x
  _atom_site_fract_y
  _atom_site_fract_z
  _atom_site_occupancy
  Pt  Pt1       1.0  0.6584272568700861  0.5064068776660587  0.10412669983889475  1.0000
  Pt  Pt2       1.0  0.779459272478036  0.6340162498760198  0.5487752771410324  1.0000
  Ni  Ni1       1.0  0.11401559852603986  0.031693434060463765  0.940215130245076  1.0000
  N   N1        1.0  0.6652259680805432  0.6305724362299113  0.11496153464437642  1.0000
  N   N2        1.0  0.8386220553024948  0.1734334071235091  0.1637751351993999  1.0000
  N   N3        1.0  0.6354656295970368  0.4827989882918027  0.11725791916077855  1.0000
  N   N4        1.0  0.017899876796152372  0.8091965209954071  0.6281271396182557  1.0000
  N   N5        1.0  0.39567532260998967  0.9279015110175571  0.7898733152320898  1.0000
  N   N6        1.0  0.6823759177244448  0.8353118960554486  0.21507543982216548  1.0000
