data_image0
_chemical_formula_structural       Pt2NiO6
_chemical_formula_sum              "Pt2 Ni1 O6"
_cell_length_a       5.0431956041056125
_cell_length_b       5.043195103989509
_cell_length_c       5.043195503862606
_cell_angle_alpha    59.999996664321344
_cell_angle_beta     59.99999844017597
_cell_angle_gamma    59.99999704609139

_space_group_name_H-M_alt    "P 1"
_space_group_IT_number       1

loop_
  _space_group_symop_operation_xyz
  'x, y, z'

loop_
  _atom_site_type_symbol
  _atom_site_label
  _atom_site_symmetry_multiplicity
  _atom_site_fract_x
  _atom_site_fract_y
  _atom_site_fract_z
  _atom_site_occupancy
  Pt  Pt1       1.0  0.24999935305279844  0.24999885743893388  0.25000213011154615  1.0000
  Pt  Pt2       1.0  0.7499993398521624  0.7500000936561763  0.7500023534504521  1.0000
  Ni  Ni1       1.0  0.9999999698420928  0.9999999805719205  5.6518910539674465e-08  1.0000
  O   O1        1.0  0.25062358973762583  0.25062293849703127  0.7493762992840777  1.0000
  O   O2        1.0  0.7493765199619911  0.7493770787139369  0.25062241791377754  1.0000
  O   O3        1.0  0.7493769375930862  0.2506238598715098  0.2506225063207824  1.0000
  O   O4        1.0  0.25062285764205205  0.7493775197335144  0.7493758554562141  1.0000
  O   O5        1.0  0.25062397205220105  0.7493767788892043  0.25062236274383237  1.0000
  O   O6        1.0  0.7493774248827278  0.250622893473366  0.7493759943012542  1.0000
