data_image0
_chemical_formula_structural       Pt2NiS6
_chemical_formula_sum              "Pt2 Ni1 S6"
_cell_length_a       5.712484612191616
_cell_length_b       5.712485231763477
_cell_length_c       5.712484608546576
_cell_angle_alpha    59.99999821633053
_cell_angle_beta     59.99999619677502
_cell_angle_gamma    59.99999916874209

_space_group_name_H-M_alt    "P 1"
_space_group_IT_number       1

loop_
  _space_group_symop_operation_xyz
  'x, y, z'

loop_
  _atom_site_type_symbol
  _atom_site_label
  _atom_site_symmetry_multiplicity
  _atom_site_fract_x
  _atom_site_fract_y
  _atom_site_fract_z
  _atom_site_occupancy
  Pt  Pt1       1.0  0.2500002417987872  0.24999919569621407  0.25000038037723166  1.0000
  Pt  Pt2       1.0  0.7500003809544225  0.7499996088608738  0.7500011129719427  1.0000
  Ni  Ni1       1.0  0.9999999191034024  7.289529134597802e-08  0.999999963737962  1.0000
  S   S1        1.0  0.2604341444765014  0.26043474380279397  0.7395656342540955  1.0000
  S   S2        1.0  0.739565406456035  0.7395657480659129  0.26043392858808445  1.0000
  S   S3        1.0  0.7395655763582923  0.26043474901408625  0.2604340870208109  1.0000
  S   S4        1.0  0.26043419473813856  0.7395658221818441  0.7395653138219378  1.0000
  S   S5        1.0  0.26043451350552926  0.7395657823724809  0.2604341766146997  1.0000
  S   S6        1.0  0.7395656143389447  0.26043431286008595  0.7395653923699278  1.0000
