data_image0
_chemical_formula_structural       Pt2NbO6
_chemical_formula_sum              "Pt2 Nb1 O6"
_cell_length_a       5.397067415659243
_cell_length_b       5.397067645304666
_cell_length_c       5.39706757347213
_cell_angle_alpha    59.99999769858643
_cell_angle_beta     59.99999609633458
_cell_angle_gamma    59.99999635598766

_space_group_name_H-M_alt    "P 1"
_space_group_IT_number       1

loop_
  _space_group_symop_operation_xyz
  'x, y, z'

loop_
  _atom_site_type_symbol
  _atom_site_label
  _atom_site_symmetry_multiplicity
  _atom_site_fract_x
  _atom_site_fract_y
  _atom_site_fract_z
  _atom_site_occupancy
  Pt  Pt1       1.0  0.24999958717266127  0.25000065409099664  0.24999985442203054  1.0000
  Pt  Pt2       1.0  0.750000579964548  0.7500004350485544  0.750000444138368  1.0000
  Nb  Nb1       1.0  3.313070203955253e-08  0.9999999455373165  5.698744189088764e-08  1.0000
  O   O1        1.0  0.26214906727231996  0.2621491348863956  0.7378510500794364  1.0000
  O   O2        1.0  0.737850944546288  0.7378506743801652  0.2621488580676852  1.0000
  O   O3        1.0  0.7378509383917681  0.2621492053322268  0.26214901489937154  1.0000
  O   O4        1.0  0.26214863817834255  0.7378506901669271  0.7378509954942468  1.0000
  O   O5        1.0  0.2621491945713454  0.7378506293259721  0.2621490309897879  1.0000
  O   O6        1.0  0.7378510096168225  0.26214862850593923  0.7378506953825694  1.0000
