data_image0
_chemical_formula_structural       Pt2NbSe6
_chemical_formula_sum              "Pt2 Nb1 Se6"
_cell_length_a       6.280489152200856
_cell_length_b       6.280489211708898
_cell_length_c       6.280489578464382
_cell_angle_alpha    60.000001804871616
_cell_angle_beta     60.00000120902435
_cell_angle_gamma    60.00000022842218

_space_group_name_H-M_alt    "P 1"
_space_group_IT_number       1

loop_
  _space_group_symop_operation_xyz
  'x, y, z'

loop_
  _atom_site_type_symbol
  _atom_site_label
  _atom_site_symmetry_multiplicity
  _atom_site_fract_x
  _atom_site_fract_y
  _atom_site_fract_z
  _atom_site_occupancy
  Pt  Pt1       1.0  0.25000031768387526  0.2500002256954682  0.24999947930029284  1.0000
  Pt  Pt2       1.0  0.7500001115049557  0.7500001681158862  0.7499999299747399  1.0000
  Nb  Nb1       1.0  0.9999999929421057  4.875197223520701e-08  1.001626367516978e-07  1.0000
  Se  Se1       1.0  0.27852440760189384  0.27852431481811035  0.7214756573551744  1.0000
  Se  Se2       1.0  0.7214755060948266  0.7214756012239595  0.2785243074631336  1.0000
  Se  Se3       1.0  0.7214757193748649  0.27852424854196683  0.27852438370417937  1.0000
  Se  Se4       1.0  0.27852442693230506  0.7214753281864044  0.7214758239414244  1.0000
  Se  Se5       1.0  0.2785242228063986  0.7214756681693106  0.27852442630461555  1.0000
  Se  Se6       1.0  0.7214752836207359  0.2785243941286766  0.7214759014864741  1.0000
