data_image0
_chemical_formula_structural       Pt2OsN6
_chemical_formula_sum              "Pt2 Os1 N6"
_cell_length_a       3.2335747750530586
_cell_length_b       2.2074135688290157
_cell_length_c       2.2109022224600263
_cell_angle_alpha    80.15974591357148
_cell_angle_beta     56.85066580481249
_cell_angle_gamma    63.75726039012415

_space_group_name_H-M_alt    "P 1"
_space_group_IT_number       1

loop_
  _space_group_symop_operation_xyz
  'x, y, z'

loop_
  _atom_site_type_symbol
  _atom_site_label
  _atom_site_symmetry_multiplicity
  _atom_site_fract_x
  _atom_site_fract_y
  _atom_site_fract_z
  _atom_site_occupancy
  Pt  Pt1       1.0  0.1283412306278488  0.07948571907248289  0.9796308710918787  1.0000
  Pt  Pt2       1.0  0.7747463661058455  0.863394355986546  0.8459080425763376  1.0000
  Os  Os1       1.0  0.662365523423367  0.7879248392759371  0.023603002632025694  1.0000
  N   N1        1.0  0.4386079996810075  0.5118941713153186  0.6630976300157368  1.0000
  N   N2        1.0  0.4158881042371037  0.755215644247684  0.7908773975837756  1.0000
  N   N3        1.0  0.1885278365074789  0.49270437241672704  0.43301906206648305  1.0000
  N   N4        1.0  0.7296812725783572  0.07609568339033013  0.01921507120739685  1.0000
  N   N5        1.0  0.5089746260839711  0.2661808920803861  0.20338408188565746  1.0000
  N   N6        1.0  0.6560612805359611  0.8948772139801393  0.8458762083557767  1.0000
