data_image0
_chemical_formula_structural       Pt2PdN6
_chemical_formula_sum              "Pt2 Pd1 N6"
_cell_length_a       4.894104182471599
_cell_length_b       4.894104200886743
_cell_length_c       4.894104245200502
_cell_angle_alpha    60.000001108580115
_cell_angle_beta     60.000001428171615
_cell_angle_gamma    60.000000268458976

_space_group_name_H-M_alt    "P 1"
_space_group_IT_number       1

loop_
  _space_group_symop_operation_xyz
  'x, y, z'

loop_
  _atom_site_type_symbol
  _atom_site_label
  _atom_site_symmetry_multiplicity
  _atom_site_fract_x
  _atom_site_fract_y
  _atom_site_fract_z
  _atom_site_occupancy
  Pt  Pt1       1.0  0.2499999924013006  0.25000007897239224  0.25000010479784857  1.0000
  Pt  Pt2       1.0  0.7500001212482753  0.7500000242054901  0.7499998113459229  1.0000
  Pd  Pd1       1.0  1.1081252560999529e-08  3.753735492930475e-08  0.9999999246088261  1.0000
  N   N1        1.0  0.2803590653577962  0.2803591677260951  0.719640744230826  1.0000
  N   N2        1.0  0.7196408985064751  0.7196409955115561  0.2803591227850699  1.0000
  N   N3        1.0  0.7196407829663507  0.2803589376145263  0.28035930096911227  1.0000
  N   N4        1.0  0.28035908038159113  0.7196408052047459  0.7196410063223166  1.0000
  N   N5        1.0  0.28035895259516  0.7196408312970298  0.28035923106028343  1.0000
  N   N6        1.0  0.7196410899421624  0.28035912423392123  0.7196407576841309  1.0000
