data_image0
_chemical_formula_structural       Pt2PN6
_chemical_formula_sum              "Pt2 P1 N6"
_cell_length_a       4.341103632465985
_cell_length_b       3.451689319606634
_cell_length_c       2.414581368628368
_cell_angle_alpha    53.64238330559215
_cell_angle_beta     55.80779582834582
_cell_angle_gamma    22.45642455336257

_space_group_name_H-M_alt    "P 1"
_space_group_IT_number       1

loop_
  _space_group_symop_operation_xyz
  'x, y, z'

loop_
  _atom_site_type_symbol
  _atom_site_label
  _atom_site_symmetry_multiplicity
  _atom_site_fract_x
  _atom_site_fract_y
  _atom_site_fract_z
  _atom_site_occupancy
  Pt  Pt1       1.0  0.15610313810432  0.7466022352137645  0.8072829772741017  1.0000
  Pt  Pt2       1.0  0.26674790655069186  0.521274166234004  0.9523422658088907  1.0000
  P   P1        1.0  0.05333926616288529  0.3319433551029487  0.5460954520926439  1.0000
  N   N1        1.0  0.4091064985423454  0.09186897059639251  0.9655484836332656  1.0000
  N   N2        1.0  0.2107452730052026  0.6347839870340299  0.05565214763232255  1.0000
  N   N3        1.0  0.9070254526080345  0.4996363891398488  0.7021245261925733  1.0000
  N   N4        1.0  0.44246609190649966  0.3938375747506078  0.9698766737813984  1.0000
  N   N5        1.0  0.07572028827025444  0.3393004910966867  0.46540582162914623  1.0000
  N   N6        1.0  0.020320146770326675  0.3402343180432377  0.5055748985363268  1.0000
