data_image0
_chemical_formula_structural       Pt2PdO6
_chemical_formula_sum              "Pt2 Pd1 O6"
_cell_length_a       5.264176853968045
_cell_length_b       5.264176761522872
_cell_length_c       5.264176843116749
_cell_angle_alpha    60.000000023940196
_cell_angle_beta     59.999999913559925
_cell_angle_gamma    59.999998859471404

_space_group_name_H-M_alt    "P 1"
_space_group_IT_number       1

loop_
  _space_group_symop_operation_xyz
  'x, y, z'

loop_
  _atom_site_type_symbol
  _atom_site_label
  _atom_site_symmetry_multiplicity
  _atom_site_fract_x
  _atom_site_fract_y
  _atom_site_fract_z
  _atom_site_occupancy
  Pt  Pt1       1.0  0.24999985486324744  0.25000017626088594  0.2499997037181503  1.0000
  Pt  Pt2       1.0  0.7500001061881839  0.7500004240872378  0.7499996202620834  1.0000
  Pd  Pd1       1.0  2.476914215788099e-07  0.9999998557529747  0.9999998931884663  1.0000
  O   O1        1.0  0.26153163779190447  0.26153148655207864  0.7384685348722991  1.0000
  O   O2        1.0  0.7384684594473989  0.738468336723378  0.2615317307300682  1.0000
  O   O3        1.0  0.7384685385380068  0.2615313780102143  0.2615318824129797  1.0000
  O   O4        1.0  0.26153138390891006  0.7384683708151683  0.7384685856955393  1.0000
  O   O5        1.0  0.2615315184515584  0.7384684234724453  0.2615315207848813  1.0000
  O   O6        1.0  0.7384682582012103  0.26153153241721044  0.7384685234647044  1.0000
