data_image0
_chemical_formula_structural       Pt2PdS6
_chemical_formula_sum              "Pt2 Pd1 S6"
_cell_length_a       5.867162448687443
_cell_length_b       5.867161779105415
_cell_length_c       5.867162550604508
_cell_angle_alpha    59.99999600936592
_cell_angle_beta     59.99999377158082
_cell_angle_gamma    59.9999978093046

_space_group_name_H-M_alt    "P 1"
_space_group_IT_number       1

loop_
  _space_group_symop_operation_xyz
  'x, y, z'

loop_
  _atom_site_type_symbol
  _atom_site_label
  _atom_site_symmetry_multiplicity
  _atom_site_fract_x
  _atom_site_fract_y
  _atom_site_fract_z
  _atom_site_occupancy
  Pt  Pt1       1.0  0.2500003590854036  0.2500002848144639  0.2499994779542393  1.0000
  Pt  Pt2       1.0  0.7499999217009703  0.7499995623073736  0.7500011251979888  1.0000
  Pd  Pd1       1.0  1.7136227405119714e-08  0.999999995825085  0.9999999526137097  1.0000
  S   S1        1.0  0.27089848043839915  0.2708988594436657  0.7291014622858769  1.0000
  S   S2        1.0  0.7291012629785667  0.7291013362834875  0.2708983063496645  1.0000
  S   S3        1.0  0.7291012648918669  0.27089913708014396  0.2708981987977034  1.0000
  S   S4        1.0  0.27089864265293145  0.7291009146124683  0.7291016535332611  1.0000
  S   S5        1.0  0.2708990369916537  0.7291010616044261  0.27089831335809256  1.0000
  S   S6        1.0  0.7291010121180742  0.2708988251790697  0.7291015318965436  1.0000
