data_image0
_chemical_formula_structural       Pt2PdSe6
_chemical_formula_sum              "Pt2 Pd1 Se6"
_cell_length_a       6.266810162930287
_cell_length_b       6.266810040806945
_cell_length_c       6.2668099343780925
_cell_angle_alpha    59.99999981889535
_cell_angle_beta     59.999999718555635
_cell_angle_gamma    59.99999990132839

_space_group_name_H-M_alt    "P 1"
_space_group_IT_number       1

loop_
  _space_group_symop_operation_xyz
  'x, y, z'

loop_
  _atom_site_type_symbol
  _atom_site_label
  _atom_site_symmetry_multiplicity
  _atom_site_fract_x
  _atom_site_fract_y
  _atom_site_fract_z
  _atom_site_occupancy
  Pt  Pt1       1.0  0.24999988713966428  0.24999937240570566  0.25000030422849256  1.0000
  Pt  Pt2       1.0  0.7499999758099728  0.7500002474427111  0.7499997334612963  1.0000
  Pd  Pd1       1.0  1.3530224055071693e-08  3.12693666379586e-08  0.9999999488774567  1.0000
  Se  Se1       1.0  0.2851135720866935  0.2851134919252391  0.7148864991899732  1.0000
  Se  Se2       1.0  0.7148863998262991  0.7148866301873766  0.28511356160192397  1.0000
  Se  Se3       1.0  0.7148865510643202  0.2851134043866662  0.28511369432020206  1.0000
  Se  Se4       1.0  0.2851135177605816  0.7148866923195895  0.7148863339103357  1.0000
  Se  Se5       1.0  0.28511349726308877  0.7148866681163165  0.2851135630529289  1.0000
  Se  Se6       1.0  0.7148865688250865  0.2851134754939892  0.7148863664999533  1.0000
