data_image0
_chemical_formula_structural       Pt2RhN6
_chemical_formula_sum              "Pt2 Rh1 N6"
_cell_length_a       5.892998813723573
_cell_length_b       6.580648414176885
_cell_length_c       6.0498311182357165
_cell_angle_alpha    82.53355381564913
_cell_angle_beta     86.25964496278
_cell_angle_gamma    52.78741602377865

_space_group_name_H-M_alt    "P 1"
_space_group_IT_number       1

loop_
  _space_group_symop_operation_xyz
  'x, y, z'

loop_
  _atom_site_type_symbol
  _atom_site_label
  _atom_site_symmetry_multiplicity
  _atom_site_fract_x
  _atom_site_fract_y
  _atom_site_fract_z
  _atom_site_occupancy
  Pt  Pt1       1.0  0.37902182247455035  0.45367389788049284  0.16423090694053855  1.0000
  Pt  Pt2       1.0  0.9228223444640068  0.5105534904194425  0.05345285929618604  1.0000
  Rh  Rh1       1.0  0.8200290367736558  0.0884581788138602  0.8898638748516531  1.0000
  N   N1        1.0  0.6671587824448535  0.14788603154998956  0.41610921066437767  1.0000
  N   N2        1.0  0.36640641447786343  0.8403983087328754  0.4360211043235251  1.0000
  N   N3        1.0  0.7758133237006062  0.3468298817372174  0.042012264734592304  1.0000
  N   N4        1.0  0.02692364424727574  0.7556856166142454  0.0226749025104378  1.0000
  N   N5        1.0  0.3336927297588426  0.7039111334392019  0.37780530928024825  1.0000
  N   N6        1.0  0.7081314157721099  0.15260273510016142  0.5978290375790398  1.0000
