data_image0
_chemical_formula_structural       Pt2RuN6
_chemical_formula_sum              "Pt2 Ru1 N6"
_cell_length_a       1.59362177449792
_cell_length_b       2.877555310467627
_cell_length_c       3.1727701651202063
_cell_angle_alpha    71.37448602683062
_cell_angle_beta     70.78536420091746
_cell_angle_gamma    85.05211805030245

_space_group_name_H-M_alt    "P 1"
_space_group_IT_number       1

loop_
  _space_group_symop_operation_xyz
  'x, y, z'

loop_
  _atom_site_type_symbol
  _atom_site_label
  _atom_site_symmetry_multiplicity
  _atom_site_fract_x
  _atom_site_fract_y
  _atom_site_fract_z
  _atom_site_occupancy
  Pt  Pt1       1.0  0.6715394486299912  0.28701302927064476  0.2367480646729887  1.0000
  Pt  Pt2       1.0  0.5486603509826121  0.1643773440838905  0.40638795359188973  1.0000
  Ru  Ru1       1.0  0.6569640591212518  0.32334859365260576  0.5744950895242734  1.0000
  N   N1        1.0  0.31070805274264296  0.7485198214872776  0.2740742289848421  1.0000
  N   N2        1.0  0.5908821363070251  0.3285308544916967  0.2249497208442764  1.0000
  N   N3        1.0  0.12549041985542608  0.7825419776187666  0.21372683945250004  1.0000
  N   N4        1.0  0.9244350218461126  0.3774357458307036  0.08897545292806663  1.0000
  N   N5        1.0  0.7815457384918588  0.7156185953980996  0.197877925891242  1.0000
  N   N6        1.0  0.6413822314378207  0.23621833485464877  0.32798323070174606  1.0000
