data_image0
_chemical_formula_structural       Pt2ScSe6
_chemical_formula_sum              "Pt2 Sc1 Se6"
_cell_length_a       6.32578702708903
_cell_length_b       6.325786790080069
_cell_length_c       6.325786481857675
_cell_angle_alpha    59.999994752558585
_cell_angle_beta     59.99999246515787
_cell_angle_gamma    59.999993847373055

_space_group_name_H-M_alt    "P 1"
_space_group_IT_number       1

loop_
  _space_group_symop_operation_xyz
  'x, y, z'

loop_
  _atom_site_type_symbol
  _atom_site_label
  _atom_site_symmetry_multiplicity
  _atom_site_fract_x
  _atom_site_fract_y
  _atom_site_fract_z
  _atom_site_occupancy
  Pt  Pt1       1.0  0.25000047448123863  0.2500001962384072  0.24999989907094816  1.0000
  Pt  Pt2       1.0  0.7499998455381296  0.7500004376983791  0.749998414905557  1.0000
  Sc  Sc1       1.0  0.9999999236122015  0.9999998896414499  2.893962423431973e-07  1.0000
  Se  Se1       1.0  0.2818623576521345  0.28186213816158984  0.7181373008862723  1.0000
  Se  Se2       1.0  0.7181375840219627  0.7181380427242781  0.2818630112003114  1.0000
  Se  Se3       1.0  0.7181370804535647  0.2818619505820725  0.28186282921703937  1.0000
  Se  Se4       1.0  0.28186251840558657  0.718137796614088  0.7181378015653522  1.0000
  Se  Se5       1.0  0.2818622201510803  0.7181372074119269  0.2818625904142925  1.0000
  Se  Se6       1.0  0.718137993866588  0.28186234810885546  0.7181378539197888  1.0000
