data_image0
_chemical_formula_structural       Pt2ScS6
_chemical_formula_sum              "Pt2 Sc1 S6"
_cell_length_a       5.725921320805786
_cell_length_b       5.725920955794664
_cell_length_c       5.7259210993527025
_cell_angle_alpha    59.99998810549598
_cell_angle_beta     59.99999696194719
_cell_angle_gamma    60.00000440553665

_space_group_name_H-M_alt    "P 1"
_space_group_IT_number       1

loop_
  _space_group_symop_operation_xyz
  'x, y, z'

loop_
  _atom_site_type_symbol
  _atom_site_label
  _atom_site_symmetry_multiplicity
  _atom_site_fract_x
  _atom_site_fract_y
  _atom_site_fract_z
  _atom_site_occupancy
  Pt  Pt1       1.0  0.2500021765108745  0.24999859082318235  0.24999894288830876  1.0000
  Pt  Pt2       1.0  0.7500023970255297  0.750002108034681  0.7499927424628788  1.0000
  Sc  Sc1       1.0  0.9999998416656727  0.9999999486651835  3.964907133400584e-07  1.0000
  S   S1        1.0  0.2716622899835935  0.27166275042318805  0.7283375391429484  1.0000
  S   S2        1.0  0.7283362257497712  0.7283379420160815  0.27166570445839455  1.0000
  S   S3        1.0  0.7283365531222105  0.27166077293045726  0.2716650723235544  1.0000
  S   S4        1.0  0.2716621202647701  0.728338067179646  0.7283373036077995  1.0000
  S   S5        1.0  0.2716613638607412  0.7283372742673245  0.2716643109143611  1.0000
  S   S6        1.0  0.7283370367159836  0.27166254762006026  0.7283379777393238  1.0000
