data_image0
_chemical_formula_structural       Pt2SN6
_chemical_formula_sum              "Pt2 S1 N6"
_cell_length_a       5.011032166129128
_cell_length_b       5.011032371433259
_cell_length_c       5.011032530772924
_cell_angle_alpha    60.00000052841141
_cell_angle_beta     59.9999972536946
_cell_angle_gamma    59.99999995315948

_space_group_name_H-M_alt    "P 1"
_space_group_IT_number       1

loop_
  _space_group_symop_operation_xyz
  'x, y, z'

loop_
  _atom_site_type_symbol
  _atom_site_label
  _atom_site_symmetry_multiplicity
  _atom_site_fract_x
  _atom_site_fract_y
  _atom_site_fract_z
  _atom_site_occupancy
  Pt  Pt1       1.0  0.249999943837752  0.25000022503119407  0.2500000984348506  1.0000
  Pt  Pt2       1.0  0.7500000048605077  0.7500000029669323  0.7500001116497577  1.0000
  S   S1        1.0  0.999997824750281  0.9999971379625124  0.9999993955347336  1.0000
  N   N1        1.0  0.23446055083183379  0.2344605152568172  0.7655395308641125  1.0000
  N   N2        1.0  0.7655419198065628  0.7655414724910403  0.23445835278508295  1.0000
  N   N3        1.0  0.7655398879720763  0.2344606096148955  0.23445985929751567  1.0000
  N   N4        1.0  0.23445853344650777  0.7655413659125293  0.7655414719454722  1.0000
  N   N5        1.0  0.23446018189795567  0.7655397303934884  0.23445993215111965  1.0000
  N   N6        1.0  0.7655411999263828  0.23445889427709665  0.7655412710306972  1.0000
