data_image0
_chemical_formula_structural       Pt2ScO6
_chemical_formula_sum              "Pt2 Sc1 O6"
_cell_length_a       5.434597218415968
_cell_length_b       5.434597497418611
_cell_length_c       5.434597410481582
_cell_angle_alpha    59.9999974033945
_cell_angle_beta     59.99999565629678
_cell_angle_gamma    59.999997423764874

_space_group_name_H-M_alt    "P 1"
_space_group_IT_number       1

loop_
  _space_group_symop_operation_xyz
  'x, y, z'

loop_
  _atom_site_type_symbol
  _atom_site_label
  _atom_site_symmetry_multiplicity
  _atom_site_fract_x
  _atom_site_fract_y
  _atom_site_fract_z
  _atom_site_occupancy
  Pt  Pt1       1.0  0.24999830714269347  0.2499984961362506  0.2500023730392817  1.0000
  Pt  Pt2       1.0  0.7500002871296713  0.7499976022923794  0.7500035375704496  1.0000
  Sc  Sc1       1.0  0.999999984162198  0.9999999391525987  1.4506624024774155e-07  1.0000
  O   O1        1.0  0.2642264769685223  0.26422778368488276  0.735772722678857  1.0000
  O   O2        1.0  0.7357729472613719  0.7357729639358553  0.26422579667741325  1.0000
  O   O3        1.0  0.7357734505862773  0.2642285006113874  0.26422556713118245  1.0000
  O   O4        1.0  0.2642267947022345  0.7357739079179699  0.7357718032445455  1.0000
  O   O5        1.0  0.2642276913679547  0.7357734750096239  0.26422628356633854  1.0000
  O   O6        1.0  0.7357740551383758  0.26422734923371144  0.7357717447644979  1.0000
