data_image0
_chemical_formula_structural       Pt2SnS6
_chemical_formula_sum              "Pt2 Sn1 S6"
_cell_length_a       5.909500539412141
_cell_length_b       5.9095007540280085
_cell_length_c       5.909500007580069
_cell_angle_alpha    60.00000500332564
_cell_angle_beta     59.999997302674224
_cell_angle_gamma    60.000001399070406

_space_group_name_H-M_alt    "P 1"
_space_group_IT_number       1

loop_
  _space_group_symop_operation_xyz
  'x, y, z'

loop_
  _atom_site_type_symbol
  _atom_site_label
  _atom_site_symmetry_multiplicity
  _atom_site_fract_x
  _atom_site_fract_y
  _atom_site_fract_z
  _atom_site_occupancy
  Pt  Pt1       1.0  0.24999869248561918  0.2499998662625926  0.25000166352544284  1.0000
  Pt  Pt2       1.0  0.7499990206206341  0.7500015552288838  0.7500000431005384  1.0000
  Sn  Sn1       1.0  0.9999999989535847  2.072501158254703e-08  0.9999999444715575  1.0000
  S   S1        1.0  0.27912767982236114  0.2791260725243608  0.7208729430949282  1.0000
  S   S2        1.0  0.7208731071760788  0.7208732495232123  0.2791268074853787  1.0000
  S   S3        1.0  0.7208736836952069  0.2791266977750211  0.27912692352014495  1.0000
  S   S4        1.0  0.27912711283547037  0.7208738325408118  0.7208723349210678  1.0000
  S   S5        1.0  0.2791265719838157  0.7208729692123811  0.2791270996811446  1.0000
  S   S6        1.0  0.7208741209973563  0.2791257497372917  0.7208722176647181  1.0000
