data_image0
_chemical_formula_structural       Pt2SeN6
_chemical_formula_sum              "Pt2 Se1 N6"
_cell_length_a       3.0037583732842736
_cell_length_b       3.943459870293767
_cell_length_c       2.0964671473091863
_cell_angle_alpha    55.17060543471471
_cell_angle_beta     77.34034103115883
_cell_angle_gamma    63.102613528737635

_space_group_name_H-M_alt    "P 1"
_space_group_IT_number       1

loop_
  _space_group_symop_operation_xyz
  'x, y, z'

loop_
  _atom_site_type_symbol
  _atom_site_label
  _atom_site_symmetry_multiplicity
  _atom_site_fract_x
  _atom_site_fract_y
  _atom_site_fract_z
  _atom_site_occupancy
  Pt  Pt1       1.0  0.07691990392598119  0.2824293671656233  0.454709342077118  1.0000
  Pt  Pt2       1.0  0.10133053045085894  0.5281028290538241  0.0578518066524048  1.0000
  Se  Se1       1.0  0.4123690695805768  0.6815595586827098  0.7005298694153901  1.0000
  N   N1        1.0  0.6495949036328169  0.8146267465367215  0.12647791394058838  1.0000
  N   N2        1.0  0.3339048168575361  0.22278781072072285  0.2632788630829679  1.0000
  N   N3        1.0  0.9088123059477666  0.882117791837175  0.3427633060688814  1.0000
  N   N4        1.0  0.8329178167059081  0.43718114794791024  0.8954789265828695  1.0000
  N   N5        1.0  0.4322100441577572  0.6886710926463863  0.6760960224311607  1.0000
  N   N6        1.0  0.868177370765815  0.38427862979494243  0.9537106972557842  1.0000
