data_image0
_chemical_formula_structural       Pt2SeO6
_chemical_formula_sum              "Pt2 Se1 O6"
_cell_length_a       5.161793009598647
_cell_length_b       5.161792982566487
_cell_length_c       5.161792815335528
_cell_angle_alpha    59.999999717906256
_cell_angle_beta     60.0000010927294
_cell_angle_gamma    59.99999815332415

_space_group_name_H-M_alt    "P 1"
_space_group_IT_number       1

loop_
  _space_group_symop_operation_xyz
  'x, y, z'

loop_
  _atom_site_type_symbol
  _atom_site_label
  _atom_site_symmetry_multiplicity
  _atom_site_fract_x
  _atom_site_fract_y
  _atom_site_fract_z
  _atom_site_occupancy
  Pt  Pt1       1.0  0.24999854266370386  0.24999792141114896  0.2500022440848896  1.0000
  Pt  Pt2       1.0  0.7499988864887405  0.7499988537009298  0.7500015857417408  1.0000
  Se  Se1       1.0  0.999999622855886  0.9999995610482619  4.274210448329385e-07  1.0000
  O   O1        1.0  0.2494312876311228  0.24943097582594184  0.7505686551692098  1.0000
  O   O2        1.0  0.7505689315996248  0.7505696834158663  0.2494306809784631  1.0000
  O   O3        1.0  0.7505697815994257  0.2494318305895388  0.2494300391105068  1.0000
  O   O4        1.0  0.2494312449021217  0.7505700173810365  0.7505681072435421  1.0000
  O   O5        1.0  0.24943164275276428  0.7505697187039108  0.24943012117960237  1.0000
  O   O6        1.0  0.7505700457813533  0.24943143168928184  0.7505681010662008  1.0000
