data_image0
_chemical_formula_structural       Pt2SnSe6
_chemical_formula_sum              "Pt2 Sn1 Se6"
_cell_length_a       6.441450085827463
_cell_length_b       6.44144983394524
_cell_length_c       6.441450260942906
_cell_angle_alpha    59.999995572279495
_cell_angle_beta     59.99999962181147
_cell_angle_gamma    59.99999908056017

_space_group_name_H-M_alt    "P 1"
_space_group_IT_number       1

loop_
  _space_group_symop_operation_xyz
  'x, y, z'

loop_
  _atom_site_type_symbol
  _atom_site_label
  _atom_site_symmetry_multiplicity
  _atom_site_fract_x
  _atom_site_fract_y
  _atom_site_fract_z
  _atom_site_occupancy
  Pt  Pt1       1.0  0.24999985006446324  0.24999958902374878  0.2500004044452475  1.0000
  Pt  Pt2       1.0  0.7500001174244852  0.750000544833337  0.7499991621550101  1.0000
  Sn  Sn1       1.0  1.2855830828456264e-08  1.5210797723004687e-08  1.856803948221844e-08  1.0000
  Se  Se1       1.0  0.29021822334795894  0.29021810017904354  0.7097819010863816  1.0000
  Se  Se2       1.0  0.7097817919108808  0.7097818473457399  0.2902186088218602  1.0000
  Se  Se3       1.0  0.7097818728624058  0.2902178492506597  0.29021837245130294  1.0000
  Se  Se4       1.0  0.29021810829952893  0.7097821629200314  0.709781560197192  1.0000
  Se  Se5       1.0  0.290218026702431  0.709781938608611  0.2902182902392373  1.0000
  Se  Se6       1.0  0.7097820058860276  0.2902179461716451  0.7097816757338792  1.0000
