data_image0
_chemical_formula_structural       Pt2SiN6
_chemical_formula_sum              "Pt2 Si1 N6"
_cell_length_a       4.3362291178549865
_cell_length_b       3.8836809032525026
_cell_length_c       2.0568395015217926
_cell_angle_alpha    68.24835222132238
_cell_angle_beta     54.62570930655063
_cell_angle_gamma    26.404174737663414

_space_group_name_H-M_alt    "P 1"
_space_group_IT_number       1

loop_
  _space_group_symop_operation_xyz
  'x, y, z'

loop_
  _atom_site_type_symbol
  _atom_site_label
  _atom_site_symmetry_multiplicity
  _atom_site_fract_x
  _atom_site_fract_y
  _atom_site_fract_z
  _atom_site_occupancy
  Pt  Pt1       1.0  0.6368267161091481  0.09800200617520156  0.7195590689440162  1.0000
  Pt  Pt2       1.0  0.8324809462521503  0.5874502759014377  0.5074243681278326  1.0000
  Si  Si1       1.0  0.6876952325853327  0.05236431761224155  0.6260930786017497  1.0000
  N   N1        1.0  0.20572033422910863  0.2391795888499852  0.17115092119647457  1.0000
  N   N2        1.0  0.41974898733826166  0.6574488623774628  0.05169006992140446  1.0000
  N   N3        1.0  0.7616973194321431  0.9735975799524705  0.7476463141099985  1.0000
  N   N4        1.0  0.6508628943464456  0.0473040497716104  0.39966601514747624  1.0000
  N   N5        1.0  0.8633015950392173  0.34298284308988464  0.6848428572816712  1.0000
  N   N6        1.0  0.6004445901379206  0.10512349164306278  0.24044004638737682  1.0000
