data_image0
_chemical_formula_structural       Pt2SO6
_chemical_formula_sum              "Pt2 S1 O6"
_cell_length_a       4.993243017357025
_cell_length_b       4.993243405865994
_cell_length_c       4.993242594703973
_cell_angle_alpha    59.999998954892014
_cell_angle_beta     60.000005008593824
_cell_angle_gamma    60.00000217924858

_space_group_name_H-M_alt    "P 1"
_space_group_IT_number       1

loop_
  _space_group_symop_operation_xyz
  'x, y, z'

loop_
  _atom_site_type_symbol
  _atom_site_label
  _atom_site_symmetry_multiplicity
  _atom_site_fract_x
  _atom_site_fract_y
  _atom_site_fract_z
  _atom_site_occupancy
  Pt  Pt1       1.0  0.2500012087667493  0.25000080097717825  0.2500000271080247  1.0000
  Pt  Pt2       1.0  0.7500023827635005  0.749999945221777  0.7500002376576245  1.0000
  S   S1        1.0  3.0252008915614056e-07  2.207523205033418e-08  0.9999999418430876  1.0000
  O   O1        1.0  0.2366470522440603  0.23664932740775907  0.7633512329330787  1.0000
  O   O2        1.0  0.7633515614274613  0.7633510827572844  0.23664790166060523  1.0000
  O   O3        1.0  0.7633506509833323  0.23664799337913212  0.23664866287728156  1.0000
  O   O4        1.0  0.23664771376538324  0.763351685850182  0.7633516125253529  1.0000
  O   O5        1.0  0.23664788147402982  0.7633515568761737  0.23664847987661705  1.0000
  O   O6        1.0  0.7633510813855378  0.23664768084835805  0.7633519154909693  1.0000
