data_image0
_chemical_formula_structural       Pt2SeS6
_chemical_formula_sum              "Pt2 Se1 S6"
_cell_length_a       5.246315952679185
_cell_length_b       6.018411284860178
_cell_length_c       6.0042202829024856
_cell_angle_alpha    34.540379699186914
_cell_angle_beta     33.995029528567166
_cell_angle_gamma    22.768682498402505

_space_group_name_H-M_alt    "P 1"
_space_group_IT_number       1

loop_
  _space_group_symop_operation_xyz
  'x, y, z'

loop_
  _atom_site_type_symbol
  _atom_site_label
  _atom_site_symmetry_multiplicity
  _atom_site_fract_x
  _atom_site_fract_y
  _atom_site_fract_z
  _atom_site_occupancy
  Pt  Pt1       1.0  0.3725265754278918  0.2702388749440136  0.945823506797968  1.0000
  Pt  Pt2       1.0  0.07962068336064076  0.5324004584803794  0.9055643712640942  1.0000
  Se  Se1       1.0  0.07572782955696178  0.5649658811330451  0.6481111344893739  1.0000
  S   S1        1.0  0.5374006766085377  0.6534108854495095  0.84439818324953  1.0000
  S   S2        1.0  0.856941934193098  0.5478198581985263  0.7629313430195586  1.0000
  S   S3        1.0  0.40860120626797897  0.8469129610161539  0.8900896074546969  1.0000
  S   S4        1.0  0.572078474711978  0.9196664062956187  0.6253232838941847  1.0000
  S   S5        1.0  0.24062013785571254  0.16819844862970346  0.7995525276572715  1.0000
  S   S6        1.0  0.2335791073825919  0.10306637553181953  0.15954227393211914  1.0000
