data_image0
_chemical_formula_structural       Pt2TiN6
_chemical_formula_sum              "Pt2 Ti1 N6"
_cell_length_a       4.918476116937744
_cell_length_b       4.918476123282156
_cell_length_c       4.918476162057792
_cell_angle_alpha    59.99999916332538
_cell_angle_beta     59.99999889773881
_cell_angle_gamma    59.99999999747736

_space_group_name_H-M_alt    "P 1"
_space_group_IT_number       1

loop_
  _space_group_symop_operation_xyz
  'x, y, z'

loop_
  _atom_site_type_symbol
  _atom_site_label
  _atom_site_symmetry_multiplicity
  _atom_site_fract_x
  _atom_site_fract_y
  _atom_site_fract_z
  _atom_site_occupancy
  Pt  Pt1       1.0  0.2500000238537085  0.2500000973120704  0.24999987154982126  1.0000
  Pt  Pt2       1.0  0.7500000025346019  0.7500000130461169  0.7500000020885284  1.0000
  Ti  Ti1       1.0  2.40220036884392e-08  1.2450450720085047e-08  0.9999999878632228  1.0000
  N   N1        1.0  0.2705278851721516  0.27052800518039694  0.7294721634180318  1.0000
  N   N2        1.0  0.7294720568909737  0.7294720130444549  0.27052795906843224  1.0000
  N   N3        1.0  0.7294720058190713  0.2705279716426207  0.2705279853161993  1.0000
  N   N4        1.0  0.27052795604679775  0.729471951958807  0.7294721034203535  1.0000
  N   N5        1.0  0.2705279606972217  0.7294719983912785  0.27052795054667333  1.0000
  N   N6        1.0  0.7294720847126691  0.2705279351705106  0.7294719958796356  1.0000
