data_image0
_chemical_formula_structural       Pt2TiO6
_chemical_formula_sum              "Pt2 Ti1 O6"
_cell_length_a       5.323698391516073
_cell_length_b       5.323698299709144
_cell_length_c       5.32369807921083
_cell_angle_alpha    60.000000373661344
_cell_angle_beta     60.00000184487439
_cell_angle_gamma    59.99999949547615

_space_group_name_H-M_alt    "P 1"
_space_group_IT_number       1

loop_
  _space_group_symop_operation_xyz
  'x, y, z'

loop_
  _atom_site_type_symbol
  _atom_site_label
  _atom_site_symmetry_multiplicity
  _atom_site_fract_x
  _atom_site_fract_y
  _atom_site_fract_z
  _atom_site_occupancy
  Pt  Pt1       1.0  0.2500005929733567  0.24999801364260904  0.2500004523899377  1.0000
  Pt  Pt2       1.0  0.750000072910246  0.7499983130542851  0.7500007954145784  1.0000
  Ti  Ti1       1.0  0.9999999278334685  0.9999999171801013  1.1130429921556745e-07  1.0000
  O   O1        1.0  0.2500762712860441  0.2500770574677797  0.7499232097332693  1.0000
  O   O2        1.0  0.74992262284879  0.7499242591280347  0.25007671075516336  1.0000
  O   O3        1.0  0.7499241717496367  0.25007710446856724  0.25007595295088514  1.0000
  O   O4        1.0  0.2500765028561552  0.7499242259305545  0.7499225876532777  1.0000
  O   O5        1.0  0.2500769978487514  0.749923757482175  0.2500762250189893  1.0000
  O   O6        1.0  0.7499228665465517  0.2500774072771431  0.7499239380600106  1.0000
