data_image0
_chemical_formula_structural       Pt2VS6
_chemical_formula_sum              "Pt2 V1 S6"
_cell_length_a       5.828323085036576
_cell_length_b       5.828322775875851
_cell_length_c       5.82832254763296
_cell_angle_alpha    60.00000090882343
_cell_angle_beta     60.00000130905836
_cell_angle_gamma    60.000000056889306

_space_group_name_H-M_alt    "P 1"
_space_group_IT_number       1

loop_
  _space_group_symop_operation_xyz
  'x, y, z'

loop_
  _atom_site_type_symbol
  _atom_site_label
  _atom_site_symmetry_multiplicity
  _atom_site_fract_x
  _atom_site_fract_y
  _atom_site_fract_z
  _atom_site_occupancy
  Pt  Pt1       1.0  0.2500002450033997  0.24999926250614454  0.25000053839681485  1.0000
  Pt  Pt2       1.0  0.750000068605064  0.7500004583566594  0.7500009664203653  1.0000
  V   V1        1.0  6.64402053430775e-08  0.9999999789863242  2.189648237748369e-08  1.0000
  S   S1        1.0  0.26700319131414235  0.2670032508385176  0.7329964764942307  1.0000
  S   S2        1.0  0.7329966921703114  0.7329968272567731  0.26700276565093495  1.0000
  S   S3        1.0  0.7329966593341019  0.26700325801307656  0.2670031185763289  1.0000
  S   S4        1.0  0.2670031609514394  0.7329968789205077  0.7329965015004856  1.0000
  S   S5        1.0  0.2670032542161775  0.7329970397023268  0.2670030036911246  1.0000
  S   S6        1.0  0.7329966580658979  0.2670030173792888  0.732996648060116  1.0000
