data_image0
_chemical_formula_structural       Pt2VO6
_chemical_formula_sum              "Pt2 V1 O6"
_cell_length_a       5.201717774838051
_cell_length_b       5.201718104513323
_cell_length_c       5.201717796147209
_cell_angle_alpha    60.000002395645076
_cell_angle_beta     60.00000229670628
_cell_angle_gamma    59.99999853710176

_space_group_name_H-M_alt    "P 1"
_space_group_IT_number       1

loop_
  _space_group_symop_operation_xyz
  'x, y, z'

loop_
  _atom_site_type_symbol
  _atom_site_label
  _atom_site_symmetry_multiplicity
  _atom_site_fract_x
  _atom_site_fract_y
  _atom_site_fract_z
  _atom_site_occupancy
  Pt  Pt1       1.0  0.24999947946399978  0.25000158507664166  0.24999872184179284  1.0000
  Pt  Pt2       1.0  0.74999975024906  0.7500010327643766  0.7499986165719552  1.0000
  V   V1        1.0  0.9999999528677415  0.9999999882274991  2.1762611403561078e-08  1.0000
  O   O1        1.0  0.25360875966094093  0.2536083669351606  0.7463915025330543  1.0000
  O   O2        1.0  0.7463918901390015  0.7463907897898685  0.2536092325333922  1.0000
  O   O3        1.0  0.7463917483747932  0.2536080060797147  0.25360922448202033  1.0000
  O   O4        1.0  0.2536086072479044  0.7463906679726994  0.7463921623838831  1.0000
  O   O5        1.0  0.25360858554053356  0.7463909832223721  0.25360891386534645  1.0000
  O   O6        1.0  0.7463912406006522  0.25360856670430065  0.746391603880226  1.0000
