data_image0
_chemical_formula_structural       Pt2VN6
_chemical_formula_sum              "Pt2 V1 N6"
_cell_length_a       3.215261853628541
_cell_length_b       3.3211852425270614
_cell_length_c       1.8920948000698763
_cell_angle_alpha    70.55638065170535
_cell_angle_beta     54.17653614158125
_cell_angle_gamma    93.5379647117312

_space_group_name_H-M_alt    "P 1"
_space_group_IT_number       1

loop_
  _space_group_symop_operation_xyz
  'x, y, z'

loop_
  _atom_site_type_symbol
  _atom_site_label
  _atom_site_symmetry_multiplicity
  _atom_site_fract_x
  _atom_site_fract_y
  _atom_site_fract_z
  _atom_site_occupancy
  Pt  Pt1       1.0  0.7899714141247296  0.45209203980806356  0.767505477296273  1.0000
  Pt  Pt2       1.0  0.7956436321630005  0.7890454204638113  0.6546625461230995  1.0000
  V   V1        1.0  0.7999818970919291  0.16185800734408196  0.7017202868367863  1.0000
  N   N1        1.0  0.45904941744033767  0.3810245615040848  0.722421083564788  1.0000
  N   N2        1.0  0.8076295525148736  0.26017441993839435  0.3846335551975296  1.0000
  N   N3        1.0  0.3690969060102347  0.6277581405104774  0.4201546369758559  1.0000
  N   N4        1.0  0.743446622465338  0.14802295592550443  0.16241631967853443  1.0000
  N   N5        1.0  0.09933106440908501  0.6191231368138592  0.18411632594368343  1.0000
  N   N6        1.0  0.02123916965476713  0.5599498731032523  0.9921153606108658  1.0000
