data_image0
_chemical_formula_structural       Pt2ZnO6
_chemical_formula_sum              "Pt2 Zn1 O6"
_cell_length_a       5.261728397183691
_cell_length_b       5.261728564261964
_cell_length_c       5.261729575899567
_cell_angle_alpha    60.00000935682145
_cell_angle_beta     60.00000537576456
_cell_angle_gamma    60.00000130916749

_space_group_name_H-M_alt    "P 1"
_space_group_IT_number       1

loop_
  _space_group_symop_operation_xyz
  'x, y, z'

loop_
  _atom_site_type_symbol
  _atom_site_label
  _atom_site_symmetry_multiplicity
  _atom_site_fract_x
  _atom_site_fract_y
  _atom_site_fract_z
  _atom_site_occupancy
  Pt  Pt1       1.0  0.2499968988671102  0.24999823180672046  0.25000192255140724  1.0000
  Pt  Pt2       1.0  0.7500004188771254  0.7500005005708658  0.749991517482302  1.0000
  Zn  Zn1       1.0  0.9999999143031391  0.9999999674129004  0.999999722750678  1.0000
  O   O1        1.0  0.25865347812637135  0.2586536732629555  0.7413462831479617  1.0000
  O   O2        1.0  0.7413471055044737  0.7413458807755922  0.25865807462987944  1.0000
  O   O3        1.0  0.7413480102968695  0.25865128340808397  0.25865590946413625  1.0000
  O   O4        1.0  0.2586551732629678  0.7413474955235334  0.741345401623631  1.0000
  O   O5        1.0  0.25865148077799455  0.7413476749195202  0.2586557078824866  1.0000
  O   O6        1.0  0.7413475142224812  0.25865532170899885  0.7413454232917356  1.0000
