data_image0
_chemical_formula_structural       Pt2ZnS6
_chemical_formula_sum              "Pt2 Zn1 S6"
_cell_length_a       5.747133685905773
_cell_length_b       5.747133524253445
_cell_length_c       5.747133575694017
_cell_angle_alpha    59.99999758726332
_cell_angle_beta     60.00000084649267
_cell_angle_gamma    60.00000768692608

_space_group_name_H-M_alt    "P 1"
_space_group_IT_number       1

loop_
  _space_group_symop_operation_xyz
  'x, y, z'

loop_
  _atom_site_type_symbol
  _atom_site_label
  _atom_site_symmetry_multiplicity
  _atom_site_fract_x
  _atom_site_fract_y
  _atom_site_fract_z
  _atom_site_occupancy
  Pt  Pt1       1.0  0.25000170575203595  0.25000072729300543  0.24999770841506438  1.0000
  Pt  Pt2       1.0  0.7500005299522117  0.7500003385172272  0.749999662233932  1.0000
  Zn  Zn1       1.0  0.9999999232856716  1.9179470804654615e-08  1.1576732032692706e-07  1.0000
  S   S1        1.0  0.26952014943162245  0.26951995389347033  0.7304800948471917  1.0000
  S   S2        1.0  0.7304791881041319  0.7304800719623682  0.26951971292267896  1.0000
  S   S3        1.0  0.7304798842744693  0.2695200056437036  0.2695204331048728  1.0000
  S   S4        1.0  0.26951997138911976  0.7304785924063526  0.7304810475024823  1.0000
  S   S5        1.0  0.2695198918635942  0.7304800998360328  0.26952049242121634  1.0000
  S   S6        1.0  0.7304787439576542  0.26952019879454353  0.730480714757061  1.0000
