data_image0
_chemical_formula_structural       Pt2ZnSe6
_chemical_formula_sum              "Pt2 Zn1 Se6"
_cell_length_a       6.261185643063997
_cell_length_b       6.261185279201693
_cell_length_c       6.261185251698532
_cell_angle_alpha    59.999994768204
_cell_angle_beta     60.00000171491276
_cell_angle_gamma    60.00000112969731

_space_group_name_H-M_alt    "P 1"
_space_group_IT_number       1

loop_
  _space_group_symop_operation_xyz
  'x, y, z'

loop_
  _atom_site_type_symbol
  _atom_site_label
  _atom_site_symmetry_multiplicity
  _atom_site_fract_x
  _atom_site_fract_y
  _atom_site_fract_z
  _atom_site_occupancy
  Pt  Pt1       1.0  0.2499999036729986  0.25000059951998604  0.24999933096937196  1.0000
  Pt  Pt2       1.0  0.7500002019534152  0.7499996507718008  0.7499997844115102  1.0000
  Zn  Zn1       1.0  0.9999999504489907  0.999999955009898  8.400481649094728e-08  1.0000
  Se  Se1       1.0  0.28472950929548085  0.2847296325256455  0.7152705714110709  1.0000
  Se  Se2       1.0  0.7152706561707673  0.7152703165280542  0.28472945685122847  1.0000
  Se  Se3       1.0  0.715270309843262  0.28472966106997805  0.2847297115732635  1.0000
  Se  Se4       1.0  0.28472965918968746  0.7152700473844835  0.7152707396394511  1.0000
  Se  Se5       1.0  0.2847296617520251  0.7152703762487943  0.28472957703279916  1.0000
  Se  Se6       1.0  0.7152701562336367  0.2847297742822676  0.7152707398452334  1.0000
