data_image0
_chemical_formula_structural       Rb2CrTe6
_chemical_formula_sum              "Rb2 Cr1 Te6"
_cell_length_a       8.001804735316618
_cell_length_b       8.001804690964258
_cell_length_c       8.001804715976412
_cell_angle_alpha    60.00000001428637
_cell_angle_beta     60.00000091773701
_cell_angle_gamma    59.99999967889795

_space_group_name_H-M_alt    "P 1"
_space_group_IT_number       1

loop_
  _space_group_symop_operation_xyz
  'x, y, z'

loop_
  _atom_site_type_symbol
  _atom_site_label
  _atom_site_symmetry_multiplicity
  _atom_site_fract_x
  _atom_site_fract_y
  _atom_site_fract_z
  _atom_site_occupancy
  Rb  Rb1       1.0  0.2500000094324636  0.25000000292456953  0.24999999962729827  1.0000
  Rb  Rb2       1.0  0.7499999963026998  0.7499999965290223  0.7500000022558121  1.0000
  Cr  Cr1       1.0  3.3087595470272286e-09  3.0611716675902916e-09  0.9999999680715187  1.0000
  Te  Te1       1.0  0.22812502278895436  0.22812505024968371  0.7718749831268535  1.0000
  Te  Te2       1.0  0.771874964099022  0.7718749537956656  0.22812506337551364  1.0000
  Te  Te3       1.0  0.7718749591790192  0.2281250162042964  0.2281250200452693  1.0000
  Te  Te4       1.0  0.22812505521444462  0.7718749832492954  0.7718749562634836  1.0000
  Te  Te5       1.0  0.2281250393454176  0.7718749781229054  0.22812500979050673  1.0000
  Te  Te6       1.0  0.7718749549328803  0.22812501673892907  0.7718749951180424  1.0000
