data_image0
_chemical_formula_structural       Rb2CrSe6
_chemical_formula_sum              "Rb2 Cr1 Se6"
_cell_length_a       6.767407483320993
_cell_length_b       6.7674073086378055
_cell_length_c       6.767407093376208
_cell_angle_alpha    60.000004370340605
_cell_angle_beta     59.99999943874532
_cell_angle_gamma    59.99999736658817

_space_group_name_H-M_alt    "P 1"
_space_group_IT_number       1

loop_
  _space_group_symop_operation_xyz
  'x, y, z'

loop_
  _atom_site_type_symbol
  _atom_site_label
  _atom_site_symmetry_multiplicity
  _atom_site_fract_x
  _atom_site_fract_y
  _atom_site_fract_z
  _atom_site_occupancy
  Rb  Rb1       1.0  0.24999998078473026  0.2499999289736362  0.25000008563708687  1.0000
  Rb  Rb2       1.0  0.7499999832837956  0.7499999968541804  0.7500000176991736  1.0000
  Cr  Cr1       1.0  1.5640580413693064e-07  1.194447769516136e-07  0.9999996034823158  1.0000
  Se  Se1       1.0  0.2604313738092346  0.2604314895174354  0.739568621230767  1.0000
  Se  Se2       1.0  0.7395686099211801  0.7395686281459649  0.2604314251198986  1.0000
  Se  Se3       1.0  0.7395685200260164  0.2604313897750726  0.26043138901935453  1.0000
  Se  Se4       1.0  0.26043144926481127  0.7395685306234379  0.7395687838709363  1.0000
  Se  Se5       1.0  0.2604314608850052  0.7395684393622008  0.260431469419727  1.0000
  Se  Se6       1.0  0.7395684590275801  0.2604314756069975  0.7395686082276637  1.0000
