data_image0
_chemical_formula_structural       Rb2CoSe6
_chemical_formula_sum              "Rb2 Co1 Se6"
_cell_length_a       6.720285283906272
_cell_length_b       6.720285440800581
_cell_length_c       6.720285244162491
_cell_angle_alpha    60.00000044618444
_cell_angle_beta     60.00000470595767
_cell_angle_gamma    60.00000383881991

_space_group_name_H-M_alt    "P 1"
_space_group_IT_number       1

loop_
  _space_group_symop_operation_xyz
  'x, y, z'

loop_
  _atom_site_type_symbol
  _atom_site_label
  _atom_site_symmetry_multiplicity
  _atom_site_fract_x
  _atom_site_fract_y
  _atom_site_fract_z
  _atom_site_occupancy
  Rb  Rb1       1.0  0.24999993260824208  0.250000030660259  0.2500000538645878  1.0000
  Rb  Rb2       1.0  0.7500000013413819  0.7499999917455067  0.7500000682881798  1.0000
  Co  Co1       1.0  3.3012724939596506e-08  0.9999998906524266  2.0311040889849882e-08  1.0000
  Se  Se1       1.0  0.24728485765502392  0.24728480583262863  0.7527150858089408  1.0000
  Se  Se2       1.0  0.7527150785845431  0.7527152767143078  0.24728480424393962  1.0000
  Se  Se3       1.0  0.7527152997609222  0.24728466162362506  0.2472847510438093  1.0000
  Se  Se4       1.0  0.2472847921290463  0.7527152477896557  0.7527151537028326  1.0000
  Se  Se5       1.0  0.24728483571945697  0.752715290375121  0.24728478785434682  1.0000
  Se  Se6       1.0  0.7527151537852923  0.24728479217181226  0.7527152824024044  1.0000
