data_image0
_chemical_formula_structural       Rb2CrO6
_chemical_formula_sum              "Rb2 Cr1 O6"
_cell_length_a       6.416339138173022
_cell_length_b       6.416341232630655
_cell_length_c       6.416340454929291
_cell_angle_alpha    59.99999094586708
_cell_angle_beta     59.999999889074154
_cell_angle_gamma    60.00000139544274

_space_group_name_H-M_alt    "P 1"
_space_group_IT_number       1

loop_
  _space_group_symop_operation_xyz
  'x, y, z'

loop_
  _atom_site_type_symbol
  _atom_site_label
  _atom_site_symmetry_multiplicity
  _atom_site_fract_x
  _atom_site_fract_y
  _atom_site_fract_z
  _atom_site_occupancy
  Rb  Rb1       1.0  0.24999984379338447  0.24999999475549256  0.25000008619901437  1.0000
  Rb  Rb2       1.0  0.7499997436984591  0.7500000491653606  0.7500000405038929  1.0000
  Cr  Cr1       1.0  0.9999993803359841  6.604415452899399e-07  0.9999992284041177  1.0000
  O   O1        1.0  0.1966816840598735  0.19668157488643864  0.8033184974162716  1.0000
  O   O2        1.0  0.8033186758548853  0.8033183545069443  0.19668165256466205  1.0000
  O   O3        1.0  0.8033185845186191  0.19668129714804022  0.1966818011861902  1.0000
  O   O4        1.0  0.19668162036025852  0.8033183631059165  0.8033185795846652  1.0000
  O   O5        1.0  0.19668156278140828  0.8033183270011205  0.19668158661515014  1.0000
  O   O6        1.0  0.8033186221174766  0.196681468777003  0.8033183857164262  1.0000
