data_image0
_chemical_formula_structural       Rb2CO6
_chemical_formula_sum              "Rb2 C1 O6"
_cell_length_a       5.487811395072699
_cell_length_b       5.487808930964737
_cell_length_c       5.487811944870032
_cell_angle_alpha    59.99998726280265
_cell_angle_beta     59.999996372662544
_cell_angle_gamma    59.99999475692143

_space_group_name_H-M_alt    "P 1"
_space_group_IT_number       1

loop_
  _space_group_symop_operation_xyz
  'x, y, z'

loop_
  _atom_site_type_symbol
  _atom_site_label
  _atom_site_symmetry_multiplicity
  _atom_site_fract_x
  _atom_site_fract_y
  _atom_site_fract_z
  _atom_site_occupancy
  Rb  Rb1       1.0  0.2500002996075837  0.24999955372874122  0.2500000442893394  1.0000
  Rb  Rb2       1.0  0.7499997958734176  0.7500004108828531  0.7500000336274892  1.0000
  C   C1        1.0  1.830583140198248e-07  4.139187826697613e-15  0.9999996715822567  1.0000
  O   O1        1.0  0.19630142186973154  0.196301190489449  0.803698589368814  1.0000
  O   O2        1.0  0.8036988005660587  0.8036984058823912  0.19630126296870576  1.0000
  O   O3        1.0  0.8036987825120806  0.19630154023508428  0.19630146524110675  1.0000
  O   O4        1.0  0.19630093469054727  0.8036986944189736  0.8036990312376638  1.0000
  O   O5        1.0  0.19630115532105466  0.8036987768246536  0.1963012841959264  1.0000
  O   O6        1.0  0.8036988018387032  0.1963013060699883  0.8036986798290539  1.0000
