data_image0
_chemical_formula_structural       Rb2CrS6
_chemical_formula_sum              "Rb2 Cr1 S6"
_cell_length_a       6.475367930334091
_cell_length_b       6.475369901422787
_cell_length_c       6.475368934607862
_cell_angle_alpha    60.00000764941624
_cell_angle_beta     60.00000416634242
_cell_angle_gamma    60.000008273298754

_space_group_name_H-M_alt    "P 1"
_space_group_IT_number       1

loop_
  _space_group_symop_operation_xyz
  'x, y, z'

loop_
  _atom_site_type_symbol
  _atom_site_label
  _atom_site_symmetry_multiplicity
  _atom_site_fract_x
  _atom_site_fract_y
  _atom_site_fract_z
  _atom_site_occupancy
  Rb  Rb1       1.0  0.24999991546703038  0.25000007024647675  0.2499999854604577  1.0000
  Rb  Rb2       1.0  0.7500000079442347  0.7499999610759985  0.7500000292015213  1.0000
  Cr  Cr1       1.0  0.9999998864582034  0.99999953282677  1.9461005550317318e-07  1.0000
  S   S1        1.0  0.24424505053858028  0.24424503295534092  0.7557548963122358  1.0000
  S   S2        1.0  0.7557545532065285  0.755755085371061  0.2442451945286851  1.0000
  S   S3        1.0  0.7557552475963173  0.24424483373490596  0.24424486567135578  1.0000
  S   S4        1.0  0.2442452024613355  0.7557550727558479  0.7557549666150873  1.0000
  S   S5        1.0  0.24424523325812794  0.7557553341290515  0.24424462343572945  1.0000
  S   S6        1.0  0.7557548548520652  0.24424503764354977  0.755755188069775  1.0000
