data_image0
_chemical_formula_structural       Rb2FeTe6
_chemical_formula_sum              "Rb2 Fe1 Te6"
_cell_length_a       8.202954558942151
_cell_length_b       8.202954749082373
_cell_length_c       8.202953954873802
_cell_angle_alpha    60.000000971951565
_cell_angle_beta     60.00000016705382
_cell_angle_gamma    60.00000676010693

_space_group_name_H-M_alt    "P 1"
_space_group_IT_number       1

loop_
  _space_group_symop_operation_xyz
  'x, y, z'

loop_
  _atom_site_type_symbol
  _atom_site_label
  _atom_site_symmetry_multiplicity
  _atom_site_fract_x
  _atom_site_fract_y
  _atom_site_fract_z
  _atom_site_occupancy
  Rb  Rb1       1.0  0.25000001019653173  0.24999997293595483  0.24999998683466162  1.0000
  Rb  Rb2       1.0  0.749999987803391  0.7500000218285351  0.750000001092987  1.0000
  Fe  Fe1       1.0  5.6489494902595935e-08  1.1347205548767472e-07  0.9999996468231536  1.0000
  Te  Te1       1.0  0.20418263868422823  0.2041826856200829  0.7958173863874105  1.0000
  Te  Te2       1.0  0.7958173672493463  0.7958173360193658  0.2041825999838817  1.0000
  Te  Te3       1.0  0.7958171043957649  0.20418291801147528  0.20418262246699742  1.0000
  Te  Te4       1.0  0.20418269779485487  0.7958171827597802  0.7958175481171749  1.0000
  Te  Te5       1.0  0.20418293821616015  0.7958170552882823  0.20418271267139726  1.0000
  Te  Te6       1.0  0.7958171903306779  0.20418271253211856  0.7958175063157955  1.0000
