data_image0
_chemical_formula_structural       Rb2GeSe6
_chemical_formula_sum              "Rb2 Ge1 Se6"
_cell_length_a       6.879685559501207
_cell_length_b       6.87968606700783
_cell_length_c       6.879685456438884
_cell_angle_alpha    60.00000219352189
_cell_angle_beta     60.00000165678823
_cell_angle_gamma    60.00000166545743

_space_group_name_H-M_alt    "P 1"
_space_group_IT_number       1

loop_
  _space_group_symop_operation_xyz
  'x, y, z'

loop_
  _atom_site_type_symbol
  _atom_site_label
  _atom_site_symmetry_multiplicity
  _atom_site_fract_x
  _atom_site_fract_y
  _atom_site_fract_z
  _atom_site_occupancy
  Rb  Rb1       1.0  0.2500000395219396  0.24999997353983397  0.24999998143747504  1.0000
  Rb  Rb2       1.0  0.7499999791870471  0.7500000416753885  0.7499999709165236  1.0000
  Ge  Ge1       1.0  0.9999999953894594  0.999999948373225  5.1375535247741014e-08  1.0000
  Se  Se1       1.0  0.2561262198947228  0.2561265466915535  0.743873578789445  1.0000
  Se  Se2       1.0  0.743873693533429  0.7438733563689526  0.2561265069927609  1.0000
  Se  Se3       1.0  0.743873643682324  0.25612648949787237  0.2561263839525926  1.0000
  Se  Se4       1.0  0.2561263874184275  0.7438736093883292  0.743873559616014  1.0000
  Se  Se5       1.0  0.2561264362916663  0.7438734607525228  0.25612647756128104  1.0000
  Se  Se6       1.0  0.743873629616721  0.25612654378129707  0.743873498686809  1.0000
