data_image0
_chemical_formula_structural       Rb2GeS6
_chemical_formula_sum              "Rb2 Ge1 S6"
_cell_length_a       6.844403722813259
_cell_length_b       6.844403667793898
_cell_length_c       6.844403361889022
_cell_angle_alpha    59.99999971330265
_cell_angle_beta     60.000000502444166
_cell_angle_gamma    59.99999817447061

_space_group_name_H-M_alt    "P 1"
_space_group_IT_number       1

loop_
  _space_group_symop_operation_xyz
  'x, y, z'

loop_
  _atom_site_type_symbol
  _atom_site_label
  _atom_site_symmetry_multiplicity
  _atom_site_fract_x
  _atom_site_fract_y
  _atom_site_fract_z
  _atom_site_occupancy
  Rb  Rb1       1.0  0.24999996099610308  0.2500000677249048  0.25000001926823084  1.0000
  Rb  Rb2       1.0  0.7500000764433146  0.7499999669725068  0.7499999272293312  1.0000
  Ge  Ge1       1.0  0.9999999952457969  0.9999999838953035  5.572192974036963e-08  1.0000
  S   S1        1.0  0.2420779944702095  0.24207798494046012  0.7579220001340086  1.0000
  S   S2        1.0  0.7579221019670852  0.7579219638652391  0.2420779481220898  1.0000
  S   S3        1.0  0.7579219731564463  0.2420780759701861  0.24207793032289043  1.0000
  S   S4        1.0  0.24207797137408552  0.7579219945154404  0.757922031585578  1.0000
  S   S5        1.0  0.2420780260478568  0.7579219308403962  0.2420780445325725  1.0000
  S   S6        1.0  0.7579218938081758  0.24207807701585782  0.757921969794119  1.0000
