data_image0
_chemical_formula_structural       Rb2HfTe6
_chemical_formula_sum              "Rb2 Hf1 Te6"
_cell_length_a       7.600443454538577
_cell_length_b       7.600445313072976
_cell_length_c       7.6004471844757795
_cell_angle_alpha    59.9999900949759
_cell_angle_beta     59.99998669183804
_cell_angle_gamma    60.000015103350414

_space_group_name_H-M_alt    "P 1"
_space_group_IT_number       1

loop_
  _space_group_symop_operation_xyz
  'x, y, z'

loop_
  _atom_site_type_symbol
  _atom_site_label
  _atom_site_symmetry_multiplicity
  _atom_site_fract_x
  _atom_site_fract_y
  _atom_site_fract_z
  _atom_site_occupancy
  Rb  Rb1       1.0  0.24999991448777445  0.24999989934929093  0.25000007393819534  1.0000
  Rb  Rb2       1.0  0.7500001291932136  0.7500001315177739  0.7499998951045528  1.0000
  Hf  Hf1       1.0  6.783197075001446e-08  0.9999998420816375  1.0951309025985439e-07  1.0000
  Te  Te1       1.0  0.2695259248625231  0.2695249140910235  0.7304745231019059  1.0000
  Te  Te2       1.0  0.7304739375795603  0.730475273082969  0.2695253702541168  1.0000
  Te  Te3       1.0  0.7304739658825707  0.2695257512977609  0.26952533296182274  1.0000
  Te  Te4       1.0  0.2695260886333143  0.7304742425068302  0.730474659720411  1.0000
  Te  Te5       1.0  0.26952615406975133  0.7304741649495419  0.26952499993013934  1.0000
  Te  Te6       1.0  0.7304738636470118  0.26952579340397725  0.7304750486128719  1.0000
