data_image0
_chemical_formula_structural       Rb2HfO6
_chemical_formula_sum              "Rb2 Hf1 O6"
_cell_length_a       6.5432252912932745
_cell_length_b       6.543224669178447
_cell_length_c       6.543225282293983
_cell_angle_alpha    59.99999985313347
_cell_angle_beta     59.999999508455794
_cell_angle_gamma    59.999999853267866

_space_group_name_H-M_alt    "P 1"
_space_group_IT_number       1

loop_
  _space_group_symop_operation_xyz
  'x, y, z'

loop_
  _atom_site_type_symbol
  _atom_site_label
  _atom_site_symmetry_multiplicity
  _atom_site_fract_x
  _atom_site_fract_y
  _atom_site_fract_z
  _atom_site_occupancy
  Rb  Rb1       1.0  0.2499999722445727  0.2500000964735097  0.24999995016202675  1.0000
  Rb  Rb2       1.0  0.7499999491258781  0.7500001022429673  0.7500000852935004  1.0000
  Hf  Hf1       1.0  0.9999999525481057  2.0589530643625225e-08  0.9999999859218133  1.0000
  O   O1        1.0  0.22013361398477305  0.22013364729032775  0.7798663653893387  1.0000
  O   O2        1.0  0.7798664461263833  0.7798662781468975  0.22013359673201216  1.0000
  O   O3        1.0  0.7798664148061972  0.22013361182367766  0.22013366818658983  1.0000
  O   O4        1.0  0.22013360500065135  0.7798663604079432  0.7798664144818798  1.0000
  O   O5        1.0  0.2201336243153702  0.7798663274334261  0.22013361340882548  1.0000
  O   O6        1.0  0.77986643123258  0.22013359051669512  0.7798663165302231  1.0000
