data_image0
_chemical_formula_structural       Rb2HfSe6
_chemical_formula_sum              "Rb2 Hf1 Se6"
_cell_length_a       7.083470707958148
_cell_length_b       7.083472048971199
_cell_length_c       7.083471114539147
_cell_angle_alpha    59.99999682861292
_cell_angle_beta     60.0000081414083
_cell_angle_gamma    60.00000586935847

_space_group_name_H-M_alt    "P 1"
_space_group_IT_number       1

loop_
  _space_group_symop_operation_xyz
  'x, y, z'

loop_
  _atom_site_type_symbol
  _atom_site_label
  _atom_site_symmetry_multiplicity
  _atom_site_fract_x
  _atom_site_fract_y
  _atom_site_fract_z
  _atom_site_occupancy
  Rb  Rb1       1.0  0.2500000415209059  0.2499999431170395  0.25000003679884886  1.0000
  Rb  Rb2       1.0  0.749999991645984  0.7500000178140592  0.7499999908605014  1.0000
  Hf  Hf1       1.0  0.9999999577890292  0.9999995348942563  6.604362573632935e-09  1.0000
  Se  Se1       1.0  0.26827120490096473  0.26827083960632997  0.7317290118307661  1.0000
  Se  Se2       1.0  0.7317289704772987  0.7317294429220678  0.2682708333350439  1.0000
  Se  Se3       1.0  0.7317288047017063  0.26827121575140067  0.26827128319411736  1.0000
  Se  Se4       1.0  0.2682710488678812  0.7317289025203133  0.7317287033592758  1.0000
  Se  Se5       1.0  0.26827121160417255  0.7317288213708913  0.2682712069037952  1.0000
  Se  Se6       1.0  0.7317287512832812  0.2682712917137518  0.7317288998161525  1.0000
