data_image0
_chemical_formula_structural       Rb2IrO6
_chemical_formula_sum              "Rb2 Ir1 O6"
_cell_length_a       6.4515942551529815
_cell_length_b       6.451594655707644
_cell_length_c       6.451594780433321
_cell_angle_alpha    59.99999922015253
_cell_angle_beta     59.99999855866673
_cell_angle_gamma    59.9999967004464

_space_group_name_H-M_alt    "P 1"
_space_group_IT_number       1

loop_
  _space_group_symop_operation_xyz
  'x, y, z'

loop_
  _atom_site_type_symbol
  _atom_site_label
  _atom_site_symmetry_multiplicity
  _atom_site_fract_x
  _atom_site_fract_y
  _atom_site_fract_z
  _atom_site_occupancy
  Rb  Rb1       1.0  0.2500000471709064  0.24999996604086225  0.25000001096088686  1.0000
  Rb  Rb2       1.0  0.7499999744634204  0.7500000234143505  0.7499999979612697  1.0000
  Ir  Ir1       1.0  0.999999968633685  0.999999986711482  0.9999999634272507  1.0000
  O   O1        1.0  0.20571853791376257  0.20571849413978438  0.7942814670342999  1.0000
  O   O2        1.0  0.7942814288884555  0.7942814611449518  0.2057185507390487  1.0000
  O   O3        1.0  0.7942815422156033  0.20571855676426093  0.2057185521939278  1.0000
  O   O4        1.0  0.2057184904272938  0.7942815124220687  0.7942814485584897  1.0000
  O   O5        1.0  0.20571844094103453  0.7942814667854552  0.20571861527746774  1.0000
  O   O6        1.0  0.7942814419022581  0.20571857392548207  0.7942813971122291  1.0000
