data_image0
_chemical_formula_structural       Rb2IrSe6
_chemical_formula_sum              "Rb2 Ir1 Se6"
_cell_length_a       6.831815925999036
_cell_length_b       6.831856741557617
_cell_length_c       6.831847103217084
_cell_angle_alpha    60.000051241085984
_cell_angle_beta     59.99986742339716
_cell_angle_gamma    60.00053896651356

_space_group_name_H-M_alt    "P 1"
_space_group_IT_number       1

loop_
  _space_group_symop_operation_xyz
  'x, y, z'

loop_
  _atom_site_type_symbol
  _atom_site_label
  _atom_site_symmetry_multiplicity
  _atom_site_fract_x
  _atom_site_fract_y
  _atom_site_fract_z
  _atom_site_occupancy
  Rb  Rb1       1.0  0.25000027076650844  0.2499994658700228  0.24999915606141174  1.0000
  Rb  Rb2       1.0  0.7500023073248  0.7499964579254459  0.7499991966952982  1.0000
  Ir  Ir1       1.0  0.9999806296533421  1.0275610663190412e-05  6.802978201592446e-06  1.0000
  Se  Se1       1.0  0.25978877285530416  0.2597684433485445  0.7402235852580684  1.0000
  Se  Se2       1.0  0.7402361895491734  0.7402230095855541  0.25976820690660507  1.0000
  Se  Se3       1.0  0.7402193448112393  0.25978388532632546  0.2597865967455146  1.0000
  Se  Se4       1.0  0.25977795017273014  0.7402157134598554  0.7402307352414611  1.0000
  Se  Se5       1.0  0.2597757186613302  0.7402176687835337  0.2597769652763963  1.0000
  Se  Se6       1.0  0.7402199490917394  0.2597846871543658  0.7402091497174578  1.0000
