data_image0
_chemical_formula_structural       Rb2MnS6
_chemical_formula_sum              "Rb2 Mn1 S6"
_cell_length_a       6.777938787644107
_cell_length_b       6.777933672290472
_cell_length_c       6.777929994331788
_cell_angle_alpha    60.00000409470482
_cell_angle_beta     60.00002725544171
_cell_angle_gamma    60.00001428138101

_space_group_name_H-M_alt    "P 1"
_space_group_IT_number       1

loop_
  _space_group_symop_operation_xyz
  'x, y, z'

loop_
  _atom_site_type_symbol
  _atom_site_label
  _atom_site_symmetry_multiplicity
  _atom_site_fract_x
  _atom_site_fract_y
  _atom_site_fract_z
  _atom_site_occupancy
  Rb  Rb1       1.0  0.2500000796730279  0.24999951872820225  0.25000028118558915  1.0000
  Rb  Rb2       1.0  0.7499996769133883  0.7500004878237906  0.7499995804422206  1.0000
  Mn  Mn1       1.0  0.9999997130577016  0.9999997108865569  0.9999995193566733  1.0000
  S   S1        1.0  0.2324407632873859  0.23244161301217053  0.7675588360808733  1.0000
  S   S2        1.0  0.767559629607352  0.7675574250098565  0.23244165049993878  1.0000
  S   S3        1.0  0.7675588407722151  0.23244280239441908  0.2324402486919681  1.0000
  S   S4        1.0  0.23244203270107264  0.7675570017784017  0.76755926338438  1.0000
  S   S5        1.0  0.23244077162651366  0.7675586822329383  0.2324418330926169  1.0000
  S   S6        1.0  0.7675585797254891  0.23244318910066866  0.7675579420256873  1.0000
