data_image0
_chemical_formula_structural       Rb2MoS6
_chemical_formula_sum              "Rb2 Mo1 S6"
_cell_length_a       6.8408722335286045
_cell_length_b       6.840872079659373
_cell_length_c       6.840871997814032
_cell_angle_alpha    60.00000125679413
_cell_angle_beta     60.000001693518534
_cell_angle_gamma    59.99999604551488

_space_group_name_H-M_alt    "P 1"
_space_group_IT_number       1

loop_
  _space_group_symop_operation_xyz
  'x, y, z'

loop_
  _atom_site_type_symbol
  _atom_site_label
  _atom_site_symmetry_multiplicity
  _atom_site_fract_x
  _atom_site_fract_y
  _atom_site_fract_z
  _atom_site_occupancy
  Rb  Rb1       1.0  0.24999998530141662  0.25000001523720516  0.24999998209816515  1.0000
  Rb  Rb2       1.0  0.7499999758699668  0.7500000313889394  0.7500000019450529  1.0000
  Mo  Mo1       1.0  0.9999999950736994  0.9999999337576256  0.9999999405672105  1.0000
  S   S1        1.0  0.23681465658103656  0.23681460949943006  0.7631853683494664  1.0000
  S   S2        1.0  0.763185377906223  0.7631853690940027  0.23681463059379293  1.0000
  S   S3        1.0  0.7631855366463485  0.23681447325042068  0.236814365207834  1.0000
  S   S4        1.0  0.23681443347670875  0.7631855465207077  0.7631857052625582  1.0000
  S   S5        1.0  0.23681449650401412  0.7631855765005888  0.23681430417863839  1.0000
  S   S6        1.0  0.7631855770955489  0.23681441641551754  0.7631857045921812  1.0000
