data_image0
_chemical_formula_structural       Rb2MnTe6
_chemical_formula_sum              "Rb2 Mn1 Te6"
_cell_length_a       8.094834557432554
_cell_length_b       8.094834911561655
_cell_length_c       8.094831040374
_cell_angle_alpha    59.99999835743047
_cell_angle_beta     59.99997668040875
_cell_angle_gamma    59.99995950233354

_space_group_name_H-M_alt    "P 1"
_space_group_IT_number       1

loop_
  _space_group_symop_operation_xyz
  'x, y, z'

loop_
  _atom_site_type_symbol
  _atom_site_label
  _atom_site_symmetry_multiplicity
  _atom_site_fract_x
  _atom_site_fract_y
  _atom_site_fract_z
  _atom_site_occupancy
  Rb  Rb1       1.0  0.24999997984038486  0.2500000252086436  0.2500000439585541  1.0000
  Rb  Rb2       1.0  0.7500000086122043  0.7500000181320804  0.7499998790058036  1.0000
  Mn  Mn1       1.0  1.258603511265854e-07  7.564931762337391e-09  0.9999998344588229  1.0000
  Te  Te1       1.0  0.21613743652566772  0.21613708941529416  0.7838635585839062  1.0000
  Te  Te2       1.0  0.7838624797039523  0.7838624773317989  0.21613705880995476  1.0000
  Te  Te3       1.0  0.7838642925157241  0.21613649344552668  0.21613651743733117  1.0000
  Te  Te4       1.0  0.21613612069515697  0.7838633925434673  0.783863344709663  1.0000
  Te  Te5       1.0  0.2161364945313197  0.7838640519608888  0.21613659672851154  1.0000
  Te  Te6       1.0  0.7838630702530086  0.21613644073973348  0.7838631750301902  1.0000
