data_image0
_chemical_formula_structural       Rb2MnO6
_chemical_formula_sum              "Rb2 Mn1 O6"
_cell_length_a       7.002155709336633
_cell_length_b       7.002156002299014
_cell_length_c       7.002157615430942
_cell_angle_alpha    60.00000568505348
_cell_angle_beta     59.999988349957306
_cell_angle_gamma    59.99999044179211

_space_group_name_H-M_alt    "P 1"
_space_group_IT_number       1

loop_
  _space_group_symop_operation_xyz
  'x, y, z'

loop_
  _atom_site_type_symbol
  _atom_site_label
  _atom_site_symmetry_multiplicity
  _atom_site_fract_x
  _atom_site_fract_y
  _atom_site_fract_z
  _atom_site_occupancy
  Rb  Rb1       1.0  0.249999365950045  0.25000094451153704  0.25000015229184513  1.0000
  Rb  Rb2       1.0  0.7499991759364705  0.7500010092264655  0.7500001130643557  1.0000
  Mn  Mn1       1.0  3.0952681515267876e-06  0.9999956762323119  0.9999995602884205  1.0000
  O   O1        1.0  0.1918627666048228  0.19186364024430821  0.8081367741264206  1.0000
  O   O2        1.0  0.8081361414403047  0.8081373584868075  0.19186363855629723  1.0000
  O   O3        1.0  0.8081368805408943  0.19186356525428508  0.19186263681519888  1.0000
  O   O4        1.0  0.19186317939781553  0.8081366393866101  0.8081366172677081  1.0000
  O   O5        1.0  0.19186308786412742  0.8081373046242534  0.19186341469474125  1.0000
  O   O6        1.0  0.8081365455408992  0.19186341774957388  0.808137316176498  1.0000
