data_image0
_chemical_formula_structural       Rb2NiTe6
_chemical_formula_sum              "Rb2 Ni1 Te6"
_cell_length_a       8.173173613735976
_cell_length_b       8.173175605830497
_cell_length_c       8.173173601945784
_cell_angle_alpha    60.00000559435162
_cell_angle_beta     60.0000059563673
_cell_angle_gamma    60.000007564434625

_space_group_name_H-M_alt    "P 1"
_space_group_IT_number       1

loop_
  _space_group_symop_operation_xyz
  'x, y, z'

loop_
  _atom_site_type_symbol
  _atom_site_label
  _atom_site_symmetry_multiplicity
  _atom_site_fract_x
  _atom_site_fract_y
  _atom_site_fract_z
  _atom_site_occupancy
  Rb  Rb1       1.0  0.2499999102074847  0.249999981808764  0.2500000321418302  1.0000
  Rb  Rb2       1.0  0.7499999867493303  0.7500000967740955  0.7499999685460856  1.0000
  Ni  Ni1       1.0  6.037789324031882e-08  6.893069454131712e-08  0.9999997432538621  1.0000
  Te  Te1       1.0  0.20870418563102144  0.2087044447844026  0.7912957058109479  1.0000
  Te  Te2       1.0  0.7912958746418319  0.7912954659672204  0.20870436075735446  1.0000
  Te  Te3       1.0  0.7912954948320307  0.20870464371381695  0.20870412917749667  1.0000
  Te  Te4       1.0  0.2087042977200885  0.7912954768268445  0.7912960312029294  1.0000
  Te  Te5       1.0  0.20870436959468255  0.7912953521069438  0.20870421975413875  1.0000
  Te  Te6       1.0  0.791295795668072  0.2087045106928996  0.7912957889307498  1.0000
