data_image0
_chemical_formula_structural       Rb2NiS6
_chemical_formula_sum              "Rb2 Ni1 S6"
_cell_length_a       6.5128505481762815
_cell_length_b       6.512850904743668
_cell_length_c       6.512851069202533
_cell_angle_alpha    59.99999849816496
_cell_angle_beta     59.99999998232873
_cell_angle_gamma    60.00000108718791

_space_group_name_H-M_alt    "P 1"
_space_group_IT_number       1

loop_
  _space_group_symop_operation_xyz
  'x, y, z'

loop_
  _atom_site_type_symbol
  _atom_site_label
  _atom_site_symmetry_multiplicity
  _atom_site_fract_x
  _atom_site_fract_y
  _atom_site_fract_z
  _atom_site_occupancy
  Rb  Rb1       1.0  0.24999987476194088  0.24999998729732276  0.25000002283752903  1.0000
  Rb  Rb2       1.0  0.7499998497555852  0.7499999769360081  0.7500001048691288  1.0000
  Ni  Ni1       1.0  8.854031286596405e-08  5.64151596024414e-09  0.9999999544445132  1.0000
  S   S1        1.0  0.23854762814126965  0.23854769724216932  0.7614524085269163  1.0000
  S   S2        1.0  0.761452402326575  0.7614523384503519  0.23854773775748475  1.0000
  S   S3        1.0  0.7614523554542488  0.2385477035992927  0.23854751894109336  1.0000
  S   S4        1.0  0.23854771421528723  0.76145235277879  0.7614522549997135  1.0000
  S   S5        1.0  0.23854774268161377  0.7614521832759336  0.23854773215116112  1.0000
  S   S6        1.0  0.7614523286011448  0.2385477884794198  0.761452276758059  1.0000
