data_image0
_chemical_formula_structural       Rb2NiSe6
_chemical_formula_sum              "Rb2 Ni1 Se6"
_cell_length_a       6.707523548147028
_cell_length_b       6.7075230484878015
_cell_length_c       6.707523631199623
_cell_angle_alpha    59.999999862243904
_cell_angle_beta     60.00000009487596
_cell_angle_gamma    60.00000472235609

_space_group_name_H-M_alt    "P 1"
_space_group_IT_number       1

loop_
  _space_group_symop_operation_xyz
  'x, y, z'

loop_
  _atom_site_type_symbol
  _atom_site_label
  _atom_site_symmetry_multiplicity
  _atom_site_fract_x
  _atom_site_fract_y
  _atom_site_fract_z
  _atom_site_occupancy
  Rb  Rb1       1.0  0.24999998618993116  0.24999995764402413  0.25000003635239887  1.0000
  Rb  Rb2       1.0  0.7500000217759445  0.7500000190062482  0.7499999254012881  1.0000
  Ni  Ni1       1.0  0.9999999483549846  0.9999999999999998  1.3763724600254173e-07  1.0000
  Se  Se1       1.0  0.2498590600169411  0.24985892479340283  0.7501409941538114  1.0000
  Se  Se2       1.0  0.7501409574604425  0.7501410646383616  0.24985900267013442  1.0000
  Se  Se3       1.0  0.7501408479038535  0.2498592199936225  0.2498590586740478  1.0000
  Se  Se4       1.0  0.24985916898280347  0.7501407402233071  0.7501409470892253  1.0000
  Se  Se5       1.0  0.24985909933710834  0.7501408279120224  0.24985905245625306  1.0000
  Se  Se6       1.0  0.7501409221560877  0.24985922177533693  0.7501408421614211  1.0000
