data_image0
_chemical_formula_structural       Rb2NbSe6
_chemical_formula_sum              "Rb2 Nb1 Se6"
_cell_length_a       6.97308554341996
_cell_length_b       6.97308577341075
_cell_length_c       6.973086819942796
_cell_angle_alpha    59.999994469515656
_cell_angle_beta     59.99999272811496
_cell_angle_gamma    60.00001048367749

_space_group_name_H-M_alt    "P 1"
_space_group_IT_number       1

loop_
  _space_group_symop_operation_xyz
  'x, y, z'

loop_
  _atom_site_type_symbol
  _atom_site_label
  _atom_site_symmetry_multiplicity
  _atom_site_fract_x
  _atom_site_fract_y
  _atom_site_fract_z
  _atom_site_occupancy
  Rb  Rb1       1.0  0.2499999756892351  0.2500000055709874  0.25000008344774755  1.0000
  Rb  Rb2       1.0  0.7500000147492651  0.7499999921235355  0.7500000194593445  1.0000
  Nb  Nb1       1.0  3.523957401357416e-08  2.0725386452229274e-07  5.28393835702052e-07  1.0000
  Se  Se1       1.0  0.25673532318239933  0.2567354171957892  0.7432646521750945  1.0000
  Se  Se2       1.0  0.7432645013952961  0.7432645365889917  0.25673541507693143  1.0000
  Se  Se3       1.0  0.743264008112298  0.2567359247024195  0.2567358036990373  1.0000
  Se  Se4       1.0  0.25673639220431754  0.7432635934980689  0.743263770420563  1.0000
  Se  Se5       1.0  0.25673587674433684  0.7432640896844689  0.2567358882351469  1.0000
  Se  Se6       1.0  0.7432638236980599  0.25673626631329244  0.7432638248652707  1.0000
