data_image0
_chemical_formula_structural       Rb2OsSe6
_chemical_formula_sum              "Rb2 Os1 Se6"
_cell_length_a       6.822917325188984
_cell_length_b       6.822917611160057
_cell_length_c       6.822916905687717
_cell_angle_alpha    60.00000481621001
_cell_angle_beta     60.0000037010234
_cell_angle_gamma    60.00000333024831

_space_group_name_H-M_alt    "P 1"
_space_group_IT_number       1

loop_
  _space_group_symop_operation_xyz
  'x, y, z'

loop_
  _atom_site_type_symbol
  _atom_site_label
  _atom_site_symmetry_multiplicity
  _atom_site_fract_x
  _atom_site_fract_y
  _atom_site_fract_z
  _atom_site_occupancy
  Rb  Rb1       1.0  0.25000000567623576  0.2500000556887137  0.249999983481753  1.0000
  Rb  Rb2       1.0  0.7500000029119084  0.7499999606358998  0.7500000240775566  1.0000
  Os  Os1       1.0  0.9999998566429354  3.5900900883869665e-09  0.9999998925399802  1.0000
  Se  Se1       1.0  0.25694704266785745  0.2569470106476456  0.7430530473420806  1.0000
  Se  Se2       1.0  0.7430529886751457  0.7430529069494626  0.25694711692110445  1.0000
  Se  Se3       1.0  0.7430529959094162  0.25694700080992405  0.25694712905810174  1.0000
  Se  Se4       1.0  0.25694713846376777  0.7430529275574558  0.7430528537247101  1.0000
  Se  Se5       1.0  0.2569470013363768  0.7430530808918154  0.2569470970322067  1.0000
  Se  Se6       1.0  0.7430529671624152  0.2569470557008516  0.7430528455217232  1.0000
