data_image0
_chemical_formula_structural       Rb2OsO6
_chemical_formula_sum              "Rb2 Os1 O6"
_cell_length_a       6.480015898103434
_cell_length_b       6.48001557006457
_cell_length_c       6.480016005614475
_cell_angle_alpha    60.000005144553455
_cell_angle_beta     60.00000274105875
_cell_angle_gamma    59.99999954538212

_space_group_name_H-M_alt    "P 1"
_space_group_IT_number       1

loop_
  _space_group_symop_operation_xyz
  'x, y, z'

loop_
  _atom_site_type_symbol
  _atom_site_label
  _atom_site_symmetry_multiplicity
  _atom_site_fract_x
  _atom_site_fract_y
  _atom_site_fract_z
  _atom_site_occupancy
  Rb  Rb1       1.0  0.2499998771763933  0.24999999018815755  0.2500001168853453  1.0000
  Rb  Rb2       1.0  0.7500000611374733  0.7500000556159673  0.7499999235734901  1.0000
  Os  Os1       1.0  0.9999999064557825  7.749138354722668e-08  0.9999999555574127  1.0000
  O   O1        1.0  0.20308443332881448  0.2030845297541413  0.7969154475303755  1.0000
  O   O2        1.0  0.7969157014155618  0.7969153383867961  0.20308447706357544  1.0000
  O   O3        1.0  0.7969156073649692  0.20308451351042514  0.20308449178045918  1.0000
  O   O4        1.0  0.20308457304276487  0.7969154207816993  0.7969154710417939  1.0000
  O   O5        1.0  0.2030843489328759  0.796915467395692  0.20308453118333478  1.0000
  O   O6        1.0  0.7969155365527749  0.203084576518393  0.7969154286102027  1.0000
