data_image0
_chemical_formula_structural       Rb2OsS6
_chemical_formula_sum              "Rb2 Os1 S6"
_cell_length_a       6.638286924240384
_cell_length_b       6.638287678306646
_cell_length_c       6.638287010085875
_cell_angle_alpha    60.00000460056877
_cell_angle_beta     60.0000035183091
_cell_angle_gamma    60.000003985128934

_space_group_name_H-M_alt    "P 1"
_space_group_IT_number       1

loop_
  _space_group_symop_operation_xyz
  'x, y, z'

loop_
  _atom_site_type_symbol
  _atom_site_label
  _atom_site_symmetry_multiplicity
  _atom_site_fract_x
  _atom_site_fract_y
  _atom_site_fract_z
  _atom_site_occupancy
  Rb  Rb1       1.0  0.24999989599922226  0.24999992778671584  0.25000014088981015  1.0000
  Rb  Rb2       1.0  0.7499999299175084  0.75000008040047  0.750000118541866  1.0000
  Os  Os1       1.0  8.331148989226882e-07  0.999999791518274  0.9999998398311212  1.0000
  S   S1        1.0  0.2473925918199499  0.24739280647275794  0.7526072684148449  1.0000
  S   S2        1.0  0.752607058728307  0.7526071851096907  0.24739283693891956  1.0000
  S   S3        1.0  0.7526070830664469  0.24739290175975057  0.24739268392454947  1.0000
  S   S4        1.0  0.24739286213409403  0.7526071451718245  0.7526071439924539  1.0000
  S   S5        1.0  0.2473926452233752  0.7526072764205098  0.24739273392251793  1.0000
  S   S6        1.0  0.7526071276112465  0.2473928701394985  0.7526071951389711  1.0000
