data_image0
_chemical_formula_structural       Rb2PS6
_chemical_formula_sum              "Rb2 P1 S6"
_cell_length_a       6.857122357242838
_cell_length_b       6.857121542505625
_cell_length_c       6.857121789515625
_cell_angle_alpha    60.0000008668501
_cell_angle_beta     59.99999786262143
_cell_angle_gamma    60.000003973537616

_space_group_name_H-M_alt    "P 1"
_space_group_IT_number       1

loop_
  _space_group_symop_operation_xyz
  'x, y, z'

loop_
  _atom_site_type_symbol
  _atom_site_label
  _atom_site_symmetry_multiplicity
  _atom_site_fract_x
  _atom_site_fract_y
  _atom_site_fract_z
  _atom_site_occupancy
  Rb  Rb1       1.0  0.2500000939414512  0.24999983185041522  0.25000012733678983  1.0000
  Rb  Rb2       1.0  0.7500000732777812  0.7500000706727821  0.7500000733058522  1.0000
  P   P1        1.0  2.363939386794617e-09  2.3219187422906674e-08  0.9999998442913312  1.0000
  S   S1        1.0  0.22699517476952527  0.22699510865073175  0.7730048301932725  1.0000
  S   S2        1.0  0.7730047872800376  0.7730048385247329  0.22699512695708418  1.0000
  S   S3        1.0  0.7730048500330318  0.2269951263866102  0.22699515230250847  1.0000
  S   S4        1.0  0.2269951693552158  0.773004845794151  0.7730049430514072  1.0000
  S   S5        1.0  0.22699511051954988  0.7730049158689674  0.22699500280815962  1.0000
  S   S6        1.0  0.7730046935252642  0.2269952224183048  0.7730048590384343  1.0000
