data_image0
_chemical_formula_structural       Rb2PbO6
_chemical_formula_sum              "Rb2 Pb1 O6"
_cell_length_a       6.497214378978854
_cell_length_b       6.497214554633936
_cell_length_c       6.497214477656992
_cell_angle_alpha    60.00000205518862
_cell_angle_beta     59.999998684809874
_cell_angle_gamma    59.99999910510605

_space_group_name_H-M_alt    "P 1"
_space_group_IT_number       1

loop_
  _space_group_symop_operation_xyz
  'x, y, z'

loop_
  _atom_site_type_symbol
  _atom_site_label
  _atom_site_symmetry_multiplicity
  _atom_site_fract_x
  _atom_site_fract_y
  _atom_site_fract_z
  _atom_site_occupancy
  Rb  Rb1       1.0  0.2500002067599923  0.24999989475395853  0.2499998709959201  1.0000
  Rb  Rb2       1.0  0.7500000541646121  0.7500000763482703  0.7500001217214396  1.0000
  Pb  Pb1       1.0  0.9999999718017003  0.9999997700262621  6.598205036436971e-08  1.0000
  O   O1        1.0  0.23504300674788758  0.2350431380623063  0.7649569033012138  1.0000
  O   O2        1.0  0.7649566968090282  0.7649569216363729  0.23504318681999012  1.0000
  O   O3        1.0  0.7649569006612197  0.23504321547099571  0.2350429523024141  1.0000
  O   O4        1.0  0.2350430146162946  0.7649569874900056  0.7649569280057865  1.0000
  O   O5        1.0  0.23504316423738517  0.7649568608839434  0.23504314162753578  1.0000
  O   O6        1.0  0.7649568786430186  0.2350432365153424  0.7649568615636128  1.0000
