data_image0
_chemical_formula_structural       Rb2PdSe6
_chemical_formula_sum              "Rb2 Pd1 Se6"
_cell_length_a       6.829593425366376
_cell_length_b       6.829593246928605
_cell_length_c       6.829593632162582
_cell_angle_alpha    60.00000087793422
_cell_angle_beta     59.99999967606415
_cell_angle_gamma    60.00000264707587

_space_group_name_H-M_alt    "P 1"
_space_group_IT_number       1

loop_
  _space_group_symop_operation_xyz
  'x, y, z'

loop_
  _atom_site_type_symbol
  _atom_site_label
  _atom_site_symmetry_multiplicity
  _atom_site_fract_x
  _atom_site_fract_y
  _atom_site_fract_z
  _atom_site_occupancy
  Rb  Rb1       1.0  0.2500000018666238  0.2499999971791764  0.24999998555223166  1.0000
  Rb  Rb2       1.0  0.7500000024235289  0.749999980777784  0.7500000002301376  1.0000
  Pd  Pd1       1.0  0.9999999372026414  7.173164505786353e-08  1.5806082956908773e-07  1.0000
  Se  Se1       1.0  0.2618581558997528  0.2618580682390764  0.7381418504586762  1.0000
  Se  Se2       1.0  0.7381419141413851  0.7381418899916835  0.2618580830269816  1.0000
  Se  Se3       1.0  0.7381419497264546  0.261858034742757  0.26185813624926096  1.0000
  Se  Se4       1.0  0.26185801524905006  0.7381419952196426  0.7381418431877137  1.0000
  Se  Se5       1.0  0.261858093449199  0.7381419080996272  0.2618581248970726  1.0000
  Se  Se6       1.0  0.738141928858827  0.2618580411646754  0.7381418222962097  1.0000
