data_image0
_chemical_formula_structural       Rb2PdO6
_chemical_formula_sum              "Rb2 Pd1 O6"
_cell_length_a       6.23907636617242
_cell_length_b       6.239076790880948
_cell_length_c       6.239076729630531
_cell_angle_alpha    59.99999371161446
_cell_angle_beta     59.99999821408208
_cell_angle_gamma    59.99999921339319

_space_group_name_H-M_alt    "P 1"
_space_group_IT_number       1

loop_
  _space_group_symop_operation_xyz
  'x, y, z'

loop_
  _atom_site_type_symbol
  _atom_site_label
  _atom_site_symmetry_multiplicity
  _atom_site_fract_x
  _atom_site_fract_y
  _atom_site_fract_z
  _atom_site_occupancy
  Rb  Rb1       1.0  0.24999984280723042  0.2500001536105686  0.25000006252014695  1.0000
  Rb  Rb2       1.0  0.7500001992839891  0.749999864072826  0.7500000142706557  1.0000
  Pd  Pd1       1.0  6.227487991345884e-07  1.4722648272625428e-07  2.6715543419032355e-06  1.0000
  O   O1        1.0  0.2078136595335209  0.20781353821008985  0.7921864134620463  1.0000
  O   O2        1.0  0.7921858696067163  0.7921860417192386  0.20781406655524576  1.0000
  O   O3        1.0  0.7921870323476353  0.20781288726996291  0.20781301987437278  1.0000
  O   O4        1.0  0.20781468221792246  0.7921855442912394  0.7921853917055698  1.0000
  O   O5        1.0  0.20781294576820658  0.7921871588303893  0.2078128478673823  1.0000
  O   O6        1.0  0.7921852265810455  0.20781463146260132  0.7921855849313927  1.0000
