data_image0
_chemical_formula_structural       Rb2PbSe6
_chemical_formula_sum              "Rb2 Pb1 Se6"
_cell_length_a       7.222363508242657
_cell_length_b       7.222362982305659
_cell_length_c       7.222364193183056
_cell_angle_alpha    59.99999260159195
_cell_angle_beta     59.99999653800798
_cell_angle_gamma    60.00000784952687

_space_group_name_H-M_alt    "P 1"
_space_group_IT_number       1

loop_
  _space_group_symop_operation_xyz
  'x, y, z'

loop_
  _atom_site_type_symbol
  _atom_site_label
  _atom_site_symmetry_multiplicity
  _atom_site_fract_x
  _atom_site_fract_y
  _atom_site_fract_z
  _atom_site_occupancy
  Rb  Rb1       1.0  0.249999990643355  0.2500000255287229  0.24999995781138992  1.0000
  Rb  Rb2       1.0  0.7500000161640579  0.7500000206258428  0.7499999651418033  1.0000
  Pb  Pb1       1.0  0.9999999833470763  1.746640678277284e-07  0.9999995693090311  1.0000
  Se  Se1       1.0  0.29978947636456693  0.299789839082431  0.7002100295243879  1.0000
  Se  Se2       1.0  0.7002097162348755  0.7002096423814094  0.299790049811719  1.0000
  Se  Se3       1.0  0.7002098382793657  0.2997905648994085  0.29978966676503416  1.0000
  Se  Se4       1.0  0.29978929970295565  0.7002108310860352  0.7002102607573549  1.0000
  Se  Se5       1.0  0.29979061266223206  0.7002095485239624  0.2997900946711067  1.0000
  Se  Se6       1.0  0.7002110768292631  0.29978933942156627  0.7002103995666527  1.0000
