data_image0
_chemical_formula_structural       Rb2PbTe6
_chemical_formula_sum              "Rb2 Pb1 Te6"
_cell_length_a       7.899978393873311
_cell_length_b       7.8999785256073665
_cell_length_c       7.899978234888686
_cell_angle_alpha    60.00000097952342
_cell_angle_beta     59.99999766316686
_cell_angle_gamma    59.99999926547191

_space_group_name_H-M_alt    "P 1"
_space_group_IT_number       1

loop_
  _space_group_symop_operation_xyz
  'x, y, z'

loop_
  _atom_site_type_symbol
  _atom_site_label
  _atom_site_symmetry_multiplicity
  _atom_site_fract_x
  _atom_site_fract_y
  _atom_site_fract_z
  _atom_site_occupancy
  Rb  Rb1       1.0  0.25000006692565946  0.25000004254964925  0.250000012881514  1.0000
  Rb  Rb2       1.0  0.7499999321905987  0.7499999555640771  0.7499999994857877  1.0000
  Pb  Pb1       1.0  8.814233011713873e-08  0.9999999767452883  1.7515169748669255e-07  1.0000
  Te  Te1       1.0  0.2895414950802207  0.289541432240345  0.7104585400227428  1.0000
  Te  Te2       1.0  0.7104584504717467  0.7104585643230682  0.289541541674129  1.0000
  Te  Te3       1.0  0.7104585249078426  0.28954146542856696  0.2895415241973699  1.0000
  Te  Te4       1.0  0.28954168826304433  0.7104582939367746  0.7104583308960848  1.0000
  Te  Te5       1.0  0.28954142839165986  0.7104585460976691  0.28954153711830305  1.0000
  Te  Te6       1.0  0.7104583243211328  0.2895417264216656  0.7104583397286104  1.0000
