data_image0
_chemical_formula_structural       Rb2PdS6
_chemical_formula_sum              "Rb2 Pd1 S6"
_cell_length_a       6.592653938252957
_cell_length_b       6.592654128034619
_cell_length_c       6.592653754353486
_cell_angle_alpha    59.99999967681691
_cell_angle_beta     59.999999182072116
_cell_angle_gamma    59.99999932965938

_space_group_name_H-M_alt    "P 1"
_space_group_IT_number       1

loop_
  _space_group_symop_operation_xyz
  'x, y, z'

loop_
  _atom_site_type_symbol
  _atom_site_label
  _atom_site_symmetry_multiplicity
  _atom_site_fract_x
  _atom_site_fract_y
  _atom_site_fract_z
  _atom_site_occupancy
  Rb  Rb1       1.0  0.24999999974120252  0.25000001152006623  0.24999997825457823  1.0000
  Rb  Rb2       1.0  0.7499999945185793  0.7499999751124634  0.7499999577390785  1.0000
  Pd  Pd1       1.0  3.5436672314614165e-08  9.288710911352513e-09  0.9999998380880406  1.0000
  S   S1        1.0  0.2555938853896407  0.2555939580510933  0.7444060821454873  1.0000
  S   S2        1.0  0.7444061228821066  0.7444060285814346  0.2555939272347  1.0000
  S   S3        1.0  0.7444061119112366  0.2555938853798608  0.2555939356114862  1.0000
  S   S4        1.0  0.25559385770312826  0.7444061384075016  0.7444061154746511  1.0000
  S   S5        1.0  0.2555938921623403  0.7444061027873206  0.25559398211408596  1.0000
  S   S6        1.0  0.7444061399048534  0.2555938912761723  0.7444061026632867  1.0000
