data_image0
_chemical_formula_structural       Rb2PSe6
_chemical_formula_sum              "Rb2 P1 Se6"
_cell_length_a       6.8164019534365625
_cell_length_b       6.816401731741665
_cell_length_c       6.816400829701882
_cell_angle_alpha    60.00000262094633
_cell_angle_beta     60.0000057152842
_cell_angle_gamma    60.00000036186258

_space_group_name_H-M_alt    "P 1"
_space_group_IT_number       1

loop_
  _space_group_symop_operation_xyz
  'x, y, z'

loop_
  _atom_site_type_symbol
  _atom_site_label
  _atom_site_symmetry_multiplicity
  _atom_site_fract_x
  _atom_site_fract_y
  _atom_site_fract_z
  _atom_site_occupancy
  Rb  Rb1       1.0  0.25000002192472726  0.2499999864847926  0.250000009863993  1.0000
  Rb  Rb2       1.0  0.7499999880026695  0.7500000403086496  0.7499999869732017  1.0000
  P   P1        1.0  5.6415892172871675e-08  0.9999999730485707  2.331991982891346e-07  1.0000
  Se  Se1       1.0  0.24323409318284894  0.2432340477173582  0.7567658960378292  1.0000
  Se  Se2       1.0  0.7567660236223851  0.7567658820509596  0.24323404892741443  1.0000
  Se  Se3       1.0  0.7567659541498398  0.24323412420599844  0.24323406702688355  1.0000
  Se  Se4       1.0  0.24323401702100758  0.7567658918068746  0.756765985386918  1.0000
  Se  Se5       1.0  0.24323399403520546  0.7567659312893595  0.2432340447517457  1.0000
  Se  Se6       1.0  0.7567658270181635  0.2432341691713152  0.7567657177459196  1.0000
