data_image0
_chemical_formula_structural       Rb2RuO6
_chemical_formula_sum              "Rb2 Ru1 O6"
_cell_length_a       6.439354520832615
_cell_length_b       6.439354639883755
_cell_length_c       6.4393556425424086
_cell_angle_alpha    59.999998741967275
_cell_angle_beta     59.99999633496484
_cell_angle_gamma    60.00000201304308

_space_group_name_H-M_alt    "P 1"
_space_group_IT_number       1

loop_
  _space_group_symop_operation_xyz
  'x, y, z'

loop_
  _atom_site_type_symbol
  _atom_site_label
  _atom_site_symmetry_multiplicity
  _atom_site_fract_x
  _atom_site_fract_y
  _atom_site_fract_z
  _atom_site_occupancy
  Rb  Rb1       1.0  0.2500000115899613  0.24999997382493405  0.25000000754196505  1.0000
  Rb  Rb2       1.0  0.7499998948075218  0.7500000831421118  0.7500001530919114  1.0000
  Ru  Ru1       1.0  0.9999999760731617  0.9999999695685027  0.9999999433198442  1.0000
  O   O1        1.0  0.20178228106163026  0.20178223419029367  0.7982178023612433  1.0000
  O   O2        1.0  0.7982177121177519  0.7982176915409344  0.20178223918110266  1.0000
  O   O3        1.0  0.7982177661310226  0.20178228326139167  0.20178220951404163  1.0000
  O   O4        1.0  0.20178228982877658  0.7982176101363746  0.7982177562397609  1.0000
  O   O5        1.0  0.20178230974051964  0.7982177654261625  0.20178220471987757  1.0000
  O   O6        1.0  0.7982177174162228  0.20178232197237211  0.7982176396113138  1.0000
