data_image0
_chemical_formula_structural       Rb2ReTe6
_chemical_formula_sum              "Rb2 Re1 Te6"
_cell_length_a       8.29600294749082
_cell_length_b       8.2960026484075
_cell_length_c       8.296003542734942
_cell_angle_alpha    59.999994768116444
_cell_angle_beta     60.000000212773394
_cell_angle_gamma    60.00000036616504

_space_group_name_H-M_alt    "P 1"
_space_group_IT_number       1

loop_
  _space_group_symop_operation_xyz
  'x, y, z'

loop_
  _atom_site_type_symbol
  _atom_site_label
  _atom_site_symmetry_multiplicity
  _atom_site_fract_x
  _atom_site_fract_y
  _atom_site_fract_z
  _atom_site_occupancy
  Rb  Rb1       1.0  0.24999999388616778  0.24999999961018818  0.24999996022627796  1.0000
  Rb  Rb2       1.0  0.7499999657448565  0.7499999087758121  0.7500001446079779  1.0000
  Re  Re1       1.0  0.9999998494795757  5.905229445060797e-08  0.9999997600543375  1.0000
  Te  Te1       1.0  0.22044636017033595  0.2204464819656533  0.7795536560760085  1.0000
  Te  Te2       1.0  0.7795536554684779  0.7795537010135055  0.2204463810951451  1.0000
  Te  Te3       1.0  0.7795535224134931  0.220446392851641  0.22044647932874423  1.0000
  Te  Te4       1.0  0.22044650389967527  0.7795535952549582  0.779553494444956  1.0000
  Te  Te5       1.0  0.22044653368789793  0.7795536083246485  0.22044635883667357  1.0000
  Te  Te6       1.0  0.7795536201037936  0.2204462395327578  0.7795537539163304  1.0000
