data_image0
_chemical_formula_structural       Rb2ReSe6
_chemical_formula_sum              "Rb2 Re1 Se6"
_cell_length_a       6.875102410390356
_cell_length_b       6.875101520537383
_cell_length_c       6.875102331960112
_cell_angle_alpha    60.00000322417905
_cell_angle_beta     59.99999581632326
_cell_angle_gamma    60.0000071205183

_space_group_name_H-M_alt    "P 1"
_space_group_IT_number       1

loop_
  _space_group_symop_operation_xyz
  'x, y, z'

loop_
  _atom_site_type_symbol
  _atom_site_label
  _atom_site_symmetry_multiplicity
  _atom_site_fract_x
  _atom_site_fract_y
  _atom_site_fract_z
  _atom_site_occupancy
  Rb  Rb1       1.0  0.2499999990007602  0.2500000777520939  0.24999993069581117  1.0000
  Rb  Rb2       1.0  0.7499999753255584  0.7499999606989283  0.7500000642935046  1.0000
  Re  Re1       1.0  9.282013428388636e-08  0.9999997416940084  6.237957825895602e-08  1.0000
  Se  Se1       1.0  0.25490618628294953  0.2549063076440236  0.7450937766060394  1.0000
  Se  Se2       1.0  0.7450936675210695  0.7450938857905842  0.2549061822438364  1.0000
  Se  Se3       1.0  0.7450937428005061  0.2549063121803141  0.2549061262273072  1.0000
  Se  Se4       1.0  0.2549059572135497  0.7450939899209327  0.7450937751854326  1.0000
  Se  Se5       1.0  0.2549064201651362  0.7450936461452629  0.2549063965907723  1.0000
  Se  Se6       1.0  0.7450939123660086  0.2549061037156587  0.7450937235887709  1.0000
