data_image0
_chemical_formula_structural       Rb2ReO6
_chemical_formula_sum              "Rb2 Re1 O6"
_cell_length_a       6.615731730770671
_cell_length_b       6.615734471037429
_cell_length_c       6.61573337814396
_cell_angle_alpha    60.00002112260969
_cell_angle_beta     60.000010000894456
_cell_angle_gamma    60.000014317553386

_space_group_name_H-M_alt    "P 1"
_space_group_IT_number       1

loop_
  _space_group_symop_operation_xyz
  'x, y, z'

loop_
  _atom_site_type_symbol
  _atom_site_label
  _atom_site_symmetry_multiplicity
  _atom_site_fract_x
  _atom_site_fract_y
  _atom_site_fract_z
  _atom_site_occupancy
  Rb  Rb1       1.0  0.25000012028099344  0.24999991010797776  0.2499998570214004  1.0000
  Rb  Rb2       1.0  0.7499999734883777  0.7499998765735839  0.7500004171597856  1.0000
  Re  Re1       1.0  3.6743914445784044e-08  0.9999998426428919  1.1321077091987073e-07  1.0000
  O   O1        1.0  0.20217446420317758  0.20217431259444257  0.7978255820489407  1.0000
  O   O2        1.0  0.7978253905479616  0.79782583508281  0.20217417767906007  1.0000
  O   O3        1.0  0.7978255049127394  0.202174379542866  0.2021743036597863  1.0000
  O   O4        1.0  0.2021744654241576  0.7978256255873687  0.797825644888437  1.0000
  O   O5        1.0  0.2021746414564134  0.7978256016358857  0.20217412028476567  1.0000
  O   O6        1.0  0.7978255179659949  0.20217428131115886  0.7978256980732227  1.0000
