data_image0
_chemical_formula_structural       Rb2RuS6
_chemical_formula_sum              "Rb2 Ru1 S6"
_cell_length_a       6.514012061139194
_cell_length_b       6.51401333651412
_cell_length_c       6.5140126284289455
_cell_angle_alpha    60.00000471251982
_cell_angle_beta     59.99999485359192
_cell_angle_gamma    59.99999922914868

_space_group_name_H-M_alt    "P 1"
_space_group_IT_number       1

loop_
  _space_group_symop_operation_xyz
  'x, y, z'

loop_
  _atom_site_type_symbol
  _atom_site_label
  _atom_site_symmetry_multiplicity
  _atom_site_fract_x
  _atom_site_fract_y
  _atom_site_fract_z
  _atom_site_occupancy
  Rb  Rb1       1.0  0.24999987035944415  0.2500002433962481  0.24999987275781596  1.0000
  Rb  Rb2       1.0  0.7499999331924578  0.7499999818813443  0.7500000186586263  1.0000
  Ru  Ru1       1.0  3.567616526480055e-06  0.9999943651323918  2.2202979858290178e-06  1.0000
  S   S1        1.0  0.2544048773843383  0.2544059886605357  0.7455945818965148  1.0000
  S   S2        1.0  0.7455944793998394  0.7455957896369269  0.25440453993743306  1.0000
  S   S3        1.0  0.745593978095527  0.25440584937143945  0.25440581605897467  1.0000
  S   S4        1.0  0.25440490820760053  0.7455957503099927  0.7455947724766635  1.0000
  S   S5        1.0  0.25440453627847437  0.7455958733789083  0.25440418044485735  1.0000
  S   S6        1.0  0.7455938735005122  0.25440608165450124  0.7455940615584208  1.0000
