data_image0
_chemical_formula_structural       Rb2RuSe6
_chemical_formula_sum              "Rb2 Ru1 Se6"
_cell_length_a       6.79826511840284
_cell_length_b       6.798263660797257
_cell_length_c       6.798264339720692
_cell_angle_alpha    59.99998205387348
_cell_angle_beta     59.99999803674814
_cell_angle_gamma    59.9999643475727

_space_group_name_H-M_alt    "P 1"
_space_group_IT_number       1

loop_
  _space_group_symop_operation_xyz
  'x, y, z'

loop_
  _atom_site_type_symbol
  _atom_site_label
  _atom_site_symmetry_multiplicity
  _atom_site_fract_x
  _atom_site_fract_y
  _atom_site_fract_z
  _atom_site_occupancy
  Rb  Rb1       1.0  0.2499999155164764  0.2499998518605796  0.2500000733857477  1.0000
  Rb  Rb2       1.0  0.750000029027722  0.7500000329939752  0.7500000181985198  1.0000
  Ru  Ru1       1.0  1.1432816304830845e-06  7.332328590672324e-07  0.9999999605014391  1.0000
  Se  Se1       1.0  0.25767750708525294  0.2576776220047778  0.742322578178801  1.0000
  Se  Se2       1.0  0.7423225313897541  0.7423224141804347  0.2576775319872267  1.0000
  Se  Se3       1.0  0.7423220344252126  0.25767742897583285  0.2576774399076211  1.0000
  Se  Se4       1.0  0.25767740086295315  0.7423219352292513  0.7423226385535131  1.0000
  Se  Se5       1.0  0.25767727616826497  0.7423219961341235  0.2576774823009709  1.0000
  Se  Se6       1.0  0.7423221909349978  0.2576779860046578  0.7423222433373863  1.0000
