data_image0
_chemical_formula_structural       Rb2RhS6
_chemical_formula_sum              "Rb2 Rh1 S6"
_cell_length_a       6.504811125113063
_cell_length_b       6.504811291024278
_cell_length_c       6.504811646975349
_cell_angle_alpha    59.99999707481042
_cell_angle_beta     60.000000365441
_cell_angle_gamma    59.99999776010749

_space_group_name_H-M_alt    "P 1"
_space_group_IT_number       1

loop_
  _space_group_symop_operation_xyz
  'x, y, z'

loop_
  _atom_site_type_symbol
  _atom_site_label
  _atom_site_symmetry_multiplicity
  _atom_site_fract_x
  _atom_site_fract_y
  _atom_site_fract_z
  _atom_site_occupancy
  Rb  Rb1       1.0  0.2500000081732144  0.24999995090015104  0.24999999892792013  1.0000
  Rb  Rb2       1.0  0.7500000118935445  0.75000001838943  0.749999912565702  1.0000
  Rh  Rh1       1.0  0.9999996299045162  2.3158799746523341e-07  4.428233504634622e-07  1.0000
  S   S1        1.0  0.25240448516383296  0.2524043570166285  0.7475954969171915  1.0000
  S   S2        1.0  0.7475955864007039  0.7475955802648557  0.2524043325773854  1.0000
  S   S3        1.0  0.7475956743780918  0.25240443309365546  0.2524042498393723  1.0000
  S   S4        1.0  0.2524043193290609  0.7475956152747525  0.7475957613551674  1.0000
  S   S5        1.0  0.25240444999955136  0.7475955029171384  0.2524042440022148  1.0000
  S   S6        1.0  0.747595782835882  0.2524043552855118  0.747595627411806  1.0000
