data_image0
_chemical_formula_structural       Rb2SiS6
_chemical_formula_sum              "Rb2 Si1 S6"
_cell_length_a       6.748541249969544
_cell_length_b       6.748541721269662
_cell_length_c       6.748541416897051
_cell_angle_alpha    60.00000169143876
_cell_angle_beta     60.00000602333846
_cell_angle_gamma    60.000002257545916

_space_group_name_H-M_alt    "P 1"
_space_group_IT_number       1

loop_
  _space_group_symop_operation_xyz
  'x, y, z'

loop_
  _atom_site_type_symbol
  _atom_site_label
  _atom_site_symmetry_multiplicity
  _atom_site_fract_x
  _atom_site_fract_y
  _atom_site_fract_z
  _atom_site_occupancy
  Rb  Rb1       1.0  0.24999996396146978  0.2500000560458163  0.24999996944800057  1.0000
  Rb  Rb2       1.0  0.7499999890370287  0.7499999485431524  0.7499999517832251  1.0000
  Si  Si1       1.0  1.7937616430402562e-08  1.3611217732621e-07  0.999999476952799  1.0000
  S   S1        1.0  0.2413502762310119  0.2413503375225282  0.7586497064259374  1.0000
  S   S2        1.0  0.7586495785327005  0.7586494946576933  0.24135048941640722  1.0000
  S   S3        1.0  0.7586496791633585  0.2413504299842909  0.24135054226003405  1.0000
  S   S4        1.0  0.2413501876397027  0.7586498177917399  0.7586497346432669  1.0000
  S   S5        1.0  0.24135039048201665  0.7586496412532711  0.24135048239071344  1.0000
  S   S6        1.0  0.758649851581041  0.24135018911211564  0.7586496333263236  1.0000
