data_image0
_chemical_formula_structural       Rb2SeO6
_chemical_formula_sum              "Rb2 Se1 O6"
_cell_length_a       6.423832601095216
_cell_length_b       6.42383348623379
_cell_length_c       6.4238332995528005
_cell_angle_alpha    59.99999702888629
_cell_angle_beta     59.999996220157655
_cell_angle_gamma    59.999997660759306

_space_group_name_H-M_alt    "P 1"
_space_group_IT_number       1

loop_
  _space_group_symop_operation_xyz
  'x, y, z'

loop_
  _atom_site_type_symbol
  _atom_site_label
  _atom_site_symmetry_multiplicity
  _atom_site_fract_x
  _atom_site_fract_y
  _atom_site_fract_z
  _atom_site_occupancy
  Rb  Rb1       1.0  0.24999995773028877  0.2500001212481294  0.2499999558831927  1.0000
  Rb  Rb2       1.0  0.75000004053235  0.7499998832902848  0.7499999775048148  1.0000
  Se  Se1       1.0  1.6799752968415732e-06  0.9999959199532853  0.999999791219693  1.0000
  O   O1        1.0  0.20124537595027375  0.20124648219954425  0.7987542204055835  1.0000
  O   O2        1.0  0.7987538130948424  0.7987548283351417  0.20124585843884832  1.0000
  O   O3        1.0  0.7987538333496935  0.20124665566915384  0.20124579106133442  1.0000
  O   O4        1.0  0.20124552792759826  0.798754860774423  0.7987542030116529  1.0000
  O   O5        1.0  0.2012457236121379  0.7987547192196944  0.20124585326546252  1.0000
  O   O6        1.0  0.7987540896106466  0.20124656843619362  0.7987542316000074  1.0000
