data_image0
_chemical_formula_structural       Rb2SnO6
_chemical_formula_sum              "Rb2 Sn1 O6"
_cell_length_a       6.3048627717462695
_cell_length_b       6.304863291721912
_cell_length_c       6.30486308650865
_cell_angle_alpha    60.000001901960694
_cell_angle_beta     60.00000204110206
_cell_angle_gamma    60.000002211458316

_space_group_name_H-M_alt    "P 1"
_space_group_IT_number       1

loop_
  _space_group_symop_operation_xyz
  'x, y, z'

loop_
  _atom_site_type_symbol
  _atom_site_label
  _atom_site_symmetry_multiplicity
  _atom_site_fract_x
  _atom_site_fract_y
  _atom_site_fract_z
  _atom_site_occupancy
  Rb  Rb1       1.0  0.2500000115714971  0.2500000030915079  0.24999998482744665  1.0000
  Rb  Rb2       1.0  0.7500000574694943  0.7499999684811859  0.7500000174281346  1.0000
  Sn  Sn1       1.0  1.1656492476966814e-07  1.9425391685740875e-09  0.9999999677095848  1.0000
  O   O1        1.0  0.2315237636902781  0.23152393104740573  0.768476148401335  1.0000
  O   O2        1.0  0.7684760728874374  0.7684760016744919  0.23152394192895753  1.0000
  O   O3        1.0  0.768476151020362  0.23152391209762727  0.2315238446984665  1.0000
  O   O4        1.0  0.2315238415062283  0.7684761022109445  0.7684761474830608  1.0000
  O   O5        1.0  0.23152381324803636  0.7684761435305631  0.2315238656136146  1.0000
  O   O6        1.0  0.768476120542178  0.23152390962880656  0.7684760873423052  1.0000
