data_image0
_chemical_formula_structural       Rb2SeS6
_chemical_formula_sum              "Rb2 Se1 S6"
_cell_length_a       6.915616313445494
_cell_length_b       6.915616609659495
_cell_length_c       6.915616098186208
_cell_angle_alpha    59.99999840131519
_cell_angle_beta     60.0000017588595
_cell_angle_gamma    59.999994058739105

_space_group_name_H-M_alt    "P 1"
_space_group_IT_number       1

loop_
  _space_group_symop_operation_xyz
  'x, y, z'

loop_
  _atom_site_type_symbol
  _atom_site_label
  _atom_site_symmetry_multiplicity
  _atom_site_fract_x
  _atom_site_fract_y
  _atom_site_fract_z
  _atom_site_occupancy
  Rb  Rb1       1.0  0.24999998694536932  0.24999999099684442  0.2500000497208869  1.0000
  Rb  Rb2       1.0  0.7499999933359246  0.7499999907003824  0.7499999707815344  1.0000
  Se  Se1       1.0  0.9999999633678822  0.9999999946870486  3.5432562216526625e-08  1.0000
  S   S1        1.0  0.2318587801208526  0.23185882896521426  0.7681412159366962  1.0000
  S   S2        1.0  0.7681412276511611  0.7681411704418556  0.23185876750541579  1.0000
  S   S3        1.0  0.7681412620878668  0.23185874620892188  0.23185865000421974  1.0000
  S   S4        1.0  0.23185857913366  0.7681413771670658  0.7681413995547577  1.0000
  S   S5        1.0  0.23185874543294835  0.7681412721846488  0.23185865202129477  1.0000
  S   S6        1.0  0.7681414140474419  0.23185862273433003  0.7681413193787004  1.0000
