data_image0
_chemical_formula_structural       Rb2SnS6
_chemical_formula_sum              "Rb2 Sn1 S6"
_cell_length_a       6.9009050187903
_cell_length_b       6.900905553106972
_cell_length_c       6.900905572875716
_cell_angle_alpha    59.9999958242453
_cell_angle_beta     59.999999082764994
_cell_angle_gamma    59.999999646080326

_space_group_name_H-M_alt    "P 1"
_space_group_IT_number       1

loop_
  _space_group_symop_operation_xyz
  'x, y, z'

loop_
  _atom_site_type_symbol
  _atom_site_label
  _atom_site_symmetry_multiplicity
  _atom_site_fract_x
  _atom_site_fract_y
  _atom_site_fract_z
  _atom_site_occupancy
  Rb  Rb1       1.0  0.2500000398599049  0.25000002336872695  0.2499999485366356  1.0000
  Rb  Rb2       1.0  0.7499999979740974  0.7499999831429479  0.7500000701684028  1.0000
  Sn  Sn1       1.0  6.103492228699082e-08  0.999999811875461  2.562731439832189e-07  1.0000
  S   S1        1.0  0.2567389842801161  0.2567391323137607  0.7432610888957016  1.0000
  S   S2        1.0  0.7432609410365135  0.7432610711962357  0.2567389846575617  1.0000
  S   S3        1.0  0.7432609803642969  0.2567389337635873  0.2567388893976172  1.0000
  S   S4        1.0  0.25673910491553326  0.7432608952721333  0.7432608813200915  1.0000
  S   S5        1.0  0.25673903235001766  0.7432610221381385  0.25673893693095606  1.0000
  S   S6        1.0  0.7432608515759421  0.2567390997329238  0.7432609575889711  1.0000
