data_image0
_chemical_formula_structural       Rb2TaTe6
_chemical_formula_sum              "Rb2 Ta1 Te6"
_cell_length_a       7.484627839260169
_cell_length_b       7.4846326367425915
_cell_length_c       7.484636685748862
_cell_angle_alpha    59.99997536184106
_cell_angle_beta     59.99999243552236
_cell_angle_gamma    60.00001128085958

_space_group_name_H-M_alt    "P 1"
_space_group_IT_number       1

loop_
  _space_group_symop_operation_xyz
  'x, y, z'

loop_
  _atom_site_type_symbol
  _atom_site_label
  _atom_site_symmetry_multiplicity
  _atom_site_fract_x
  _atom_site_fract_y
  _atom_site_fract_z
  _atom_site_occupancy
  Rb  Rb1       1.0  0.24999976987074787  0.24999965757401216  0.24999940817329588  1.0000
  Rb  Rb2       1.0  0.7499996063556728  0.7500007252482953  0.7500002594857728  1.0000
  Ta  Ta1       1.0  3.517733205973128e-06  0.9999981803830356  1.852476745590198e-06  1.0000
  Te  Te1       1.0  0.26490801438384115  0.2649027016288592  0.7350952693777688  1.0000
  Te  Te2       1.0  0.7350918898106322  0.7350958288492877  0.264906679786651  1.0000
  Te  Te3       1.0  0.7350949121013908  0.2649030265229695  0.2649050868970049  1.0000
  Te  Te4       1.0  0.2649065936485349  0.735094739782228  0.735093990551705  1.0000
  Te  Te5       1.0  0.2649015441358375  0.7350989847961724  0.26490580011875053  1.0000
  Te  Te6       1.0  0.7350942947665564  0.26490618761132223  0.7350914417220976  1.0000
