data_image0
_chemical_formula_structural       Rb2TiTe6
_chemical_formula_sum              "Rb2 Ti1 Te6"
_cell_length_a       7.405450535212915
_cell_length_b       7.405464572639161
_cell_length_c       7.40546275387474
_cell_angle_alpha    59.999981563859635
_cell_angle_beta     60.00000794255613
_cell_angle_gamma    59.999951559328615

_space_group_name_H-M_alt    "P 1"
_space_group_IT_number       1

loop_
  _space_group_symop_operation_xyz
  'x, y, z'

loop_
  _atom_site_type_symbol
  _atom_site_label
  _atom_site_symmetry_multiplicity
  _atom_site_fract_x
  _atom_site_fract_y
  _atom_site_fract_z
  _atom_site_occupancy
  Rb  Rb1       1.0  0.25000147805078304  0.2499994659736316  0.2499994910206042  1.0000
  Rb  Rb2       1.0  0.7499990981085216  0.7499999657652794  0.7500004800409581  1.0000
  Ti  Ti1       1.0  1.9737167193268484e-06  8.335376165798136e-07  0.9999911869784219  1.0000
  Te  Te1       1.0  0.2661904029187368  0.26619259578181625  0.7338094204951929  1.0000
  Te  Te2       1.0  0.7338077410910635  0.7338063298836547  0.26619286229800565  1.0000
  Te  Te3       1.0  0.7338051882867476  0.26619557354092993  0.26619550185581514  1.0000
  Te  Te4       1.0  0.26618933993189475  0.7338088527971117  0.7338085365021677  1.0000
  Te  Te5       1.0  0.2661946356734113  0.7338056706941537  0.26619575911002974  1.0000
  Te  Te6       1.0  0.7338100262354621  0.2661908453202084  0.7338068002746277  1.0000
