data_image0
_chemical_formula_structural       Rb2TiO6
_chemical_formula_sum              "Rb2 Ti1 O6"
_cell_length_a       6.471678006033902
_cell_length_b       6.471678270315563
_cell_length_c       6.471678250572814
_cell_angle_alpha    60.00000221523044
_cell_angle_beta     60.00000274903344
_cell_angle_gamma    60.0000004757847

_space_group_name_H-M_alt    "P 1"
_space_group_IT_number       1

loop_
  _space_group_symop_operation_xyz
  'x, y, z'

loop_
  _atom_site_type_symbol
  _atom_site_label
  _atom_site_symmetry_multiplicity
  _atom_site_fract_x
  _atom_site_fract_y
  _atom_site_fract_z
  _atom_site_occupancy
  Rb  Rb1       1.0  0.2500000539737727  0.25000002371044433  0.2499999317163005  1.0000
  Rb  Rb2       1.0  0.7500000187866062  0.7500000294970272  0.7500001455808446  1.0000
  Ti  Ti1       1.0  2.8099473996170125e-08  0.9999998675271912  1.5102004242025996e-08  1.0000
  O   O1        1.0  0.2066572002977812  0.20665719341574576  0.7933428326900699  1.0000
  O   O2        1.0  0.7933425977798103  0.793342886286292  0.20665726053758057  1.0000
  O   O3        1.0  0.7933428529333901  0.2066571393341136  0.20665715514457556  1.0000
  O   O4        1.0  0.20665710543794075  0.793342893056203  0.7933427904256095  1.0000
  O   O5        1.0  0.2066571650810406  0.7933428840748399  0.2066571554286657  1.0000
  O   O6        1.0  0.7933428782503064  0.20665705936944712  0.7933428369451602  1.0000
