data_image0
_chemical_formula_structural       Rb2TeO6
_chemical_formula_sum              "Rb2 Te1 O6"
_cell_length_a       6.471138633707809
_cell_length_b       6.471138814961791
_cell_length_c       6.4711390384885
_cell_angle_alpha    59.99999932945042
_cell_angle_beta     59.99999889929392
_cell_angle_gamma    60.00000096240753

_space_group_name_H-M_alt    "P 1"
_space_group_IT_number       1

loop_
  _space_group_symop_operation_xyz
  'x, y, z'

loop_
  _atom_site_type_symbol
  _atom_site_label
  _atom_site_symmetry_multiplicity
  _atom_site_fract_x
  _atom_site_fract_y
  _atom_site_fract_z
  _atom_site_occupancy
  Rb  Rb1       1.0  0.24999996225316545  0.250000014939427  0.2500000204235804  1.0000
  Rb  Rb2       1.0  0.7499999880025426  0.7499999445090784  0.7500000515318818  1.0000
  Te  Te1       1.0  1.1516528385278706e-08  5.110091506634954e-08  0.9999998960610975  1.0000
  O   O1        1.0  0.21082662836210803  0.21082658757192826  0.7891734517388175  1.0000
  O   O2        1.0  0.7891734426009342  0.7891733737692049  0.21082663309216876  1.0000
  O   O3        1.0  0.7891734292780773  0.21082654454769742  0.21082670602133805  1.0000
  O   O4        1.0  0.21082668452878456  0.7891733846187858  0.7891732513945464  1.0000
  O   O5        1.0  0.2108265720023267  0.789173453667346  0.21082665629520592  1.0000
  O   O6        1.0  0.7891733168605487  0.21082666854703613  0.7891733232500131  1.0000
