data_image0
_chemical_formula_structural       Rb2TeS6
_chemical_formula_sum              "Rb2 Te1 S6"
_cell_length_a       7.01408798176236
_cell_length_b       7.014088118401496
_cell_length_c       7.014088098370929
_cell_angle_alpha    60.00000101636614
_cell_angle_beta     60.00000311126321
_cell_angle_gamma    60.00000077452238

_space_group_name_H-M_alt    "P 1"
_space_group_IT_number       1

loop_
  _space_group_symop_operation_xyz
  'x, y, z'

loop_
  _atom_site_type_symbol
  _atom_site_label
  _atom_site_symmetry_multiplicity
  _atom_site_fract_x
  _atom_site_fract_y
  _atom_site_fract_z
  _atom_site_occupancy
  Rb  Rb1       1.0  0.2500000190933459  0.24999999091541217  0.24999999093964465  1.0000
  Rb  Rb2       1.0  0.7500000345148662  0.7499999867152068  0.7499999871969484  1.0000
  Te  Te1       1.0  4.930503530778024e-08  0.999999975554302  0.999999872088464  1.0000
  S   S1        1.0  0.24194668743528655  0.24194664738255067  0.758053332649398  1.0000
  S   S2        1.0  0.7580532015813001  0.7580532708799455  0.24194677742689366  1.0000
  S   S3        1.0  0.7580532940000936  0.2419467426778625  0.24194666752501304  1.0000
  S   S4        1.0  0.2419466431545136  0.7580533274971858  0.7580534152368008  1.0000
  S   S5        1.0  0.24194667687679322  0.7580533519432426  0.24194660088987432  1.0000
  S   S6        1.0  0.7580533679665457  0.2419467112473198  0.758053368788928  1.0000
