data_image0
_chemical_formula_structural       Rb2VO6
_chemical_formula_sum              "Rb2 V1 O6"
_cell_length_a       6.441923947661589
_cell_length_b       6.441923928972906
_cell_length_c       6.441923698101287
_cell_angle_alpha    60.000000293820804
_cell_angle_beta     60.00000040630317
_cell_angle_gamma    59.99999725044985

_space_group_name_H-M_alt    "P 1"
_space_group_IT_number       1

loop_
  _space_group_symop_operation_xyz
  'x, y, z'

loop_
  _atom_site_type_symbol
  _atom_site_label
  _atom_site_symmetry_multiplicity
  _atom_site_fract_x
  _atom_site_fract_y
  _atom_site_fract_z
  _atom_site_occupancy
  Rb  Rb1       1.0  0.24999991394653898  0.25000012058447585  0.2500000028284467  1.0000
  Rb  Rb2       1.0  0.7499999927742638  0.750000017634449  0.7499998905303853  1.0000
  V   V1        1.0  0.9999999718826734  0.9999999391612878  3.205936931553807e-08  1.0000
  O   O1        1.0  0.20124348754095256  0.20124356719923261  0.7987563957254312  1.0000
  O   O2        1.0  0.7987564282355215  0.7987564094168598  0.20124362358158504  1.0000
  O   O3        1.0  0.7987564834867078  0.20124357799640138  0.20124350596167886  1.0000
  O   O4        1.0  0.2012436008354387  0.7987564898777549  0.7987564377750643  1.0000
  O   O5        1.0  0.20124358117788307  0.7987564140909842  0.2012435498605478  1.0000
  O   O6        1.0  0.7987564750455932  0.20124356062389331  0.798756456057502  1.0000
