data_image0
_chemical_formula_structural       Rb2VS6
_chemical_formula_sum              "Rb2 V1 S6"
_cell_length_a       6.729275249783252
_cell_length_b       6.729273899064911
_cell_length_c       6.729274412062222
_cell_angle_alpha    60.00000311302779
_cell_angle_beta     59.999992635064395
_cell_angle_gamma    59.99999426526673

_space_group_name_H-M_alt    "P 1"
_space_group_IT_number       1

loop_
  _space_group_symop_operation_xyz
  'x, y, z'

loop_
  _atom_site_type_symbol
  _atom_site_label
  _atom_site_symmetry_multiplicity
  _atom_site_fract_x
  _atom_site_fract_y
  _atom_site_fract_z
  _atom_site_occupancy
  Rb  Rb1       1.0  0.24999996242352757  0.25000004491389544  0.25000005868786035  1.0000
  Rb  Rb2       1.0  0.7499999737781895  0.7500001274615561  0.7499998912525226  1.0000
  V   V1        1.0  1.402755979541807e-07  0.9999998725982406  1.2879309598045473e-07  1.0000
  S   S1        1.0  0.23663096201216152  0.23663107598051272  0.7633687562483155  1.0000
  S   S2        1.0  0.7633689607953217  0.763368868891744  0.23663098423893486  1.0000
  S   S3        1.0  0.7633691973994206  0.2366309112234551  0.23663088663060486  1.0000
  S   S4        1.0  0.23663094210069144  0.7633690682293074  0.763369028401013  1.0000
  S   S5        1.0  0.23663090232152237  0.76336910272788  0.23663106154398056  1.0000
  S   S6        1.0  0.7633689985236192  0.23663094406585405  0.7633692081186818  1.0000
