data_image0
_chemical_formula_structural       Rb2WTe6
_chemical_formula_sum              "Rb2 W1 Te6"
_cell_length_a       8.290711072457611
_cell_length_b       8.290711255240268
_cell_length_c       8.290711402880158
_cell_angle_alpha    59.999999573533934
_cell_angle_beta     60.00000003201574
_cell_angle_gamma    59.999997866506

_space_group_name_H-M_alt    "P 1"
_space_group_IT_number       1

loop_
  _space_group_symop_operation_xyz
  'x, y, z'

loop_
  _atom_site_type_symbol
  _atom_site_label
  _atom_site_symmetry_multiplicity
  _atom_site_fract_x
  _atom_site_fract_y
  _atom_site_fract_z
  _atom_site_occupancy
  Rb  Rb1       1.0  0.2500000101830552  0.2500000036815594  0.24999997404158655  1.0000
  Rb  Rb2       1.0  0.7499999778630885  0.750000022862675  0.7500000595572033  1.0000
  W   W1        1.0  0.999999938001492  0.9999999645460148  0.9999998665947102  1.0000
  Te  Te1       1.0  0.21801232144959823  0.21801232672589163  0.7819877311291716  1.0000
  Te  Te2       1.0  0.7819877318295091  0.781987809134802  0.21801229480206888  1.0000
  Te  Te3       1.0  0.7819877933155353  0.21801209289244314  0.218012417851981  1.0000
  Te  Te4       1.0  0.21801216196565446  0.781987923311046  0.7819875890528936  1.0000
  Te  Te5       1.0  0.21801222919935426  0.7819878114010367  0.21801235247953207  1.0000
  Te  Te6       1.0  0.7819878384058085  0.21801206003200088  0.7819877068336561  1.0000
