data_image0
_chemical_formula_structural       Rb2WSe6
_chemical_formula_sum              "Rb2 W1 Se6"
_cell_length_a       7.393630062127451
_cell_length_b       7.393629705050615
_cell_length_c       7.393629406457654
_cell_angle_alpha    60.000001197340794
_cell_angle_beta     59.99999997957868
_cell_angle_gamma    59.99999787966791

_space_group_name_H-M_alt    "P 1"
_space_group_IT_number       1

loop_
  _space_group_symop_operation_xyz
  'x, y, z'

loop_
  _atom_site_type_symbol
  _atom_site_label
  _atom_site_symmetry_multiplicity
  _atom_site_fract_x
  _atom_site_fract_y
  _atom_site_fract_z
  _atom_site_occupancy
  Rb  Rb1       1.0  0.2499999826622821  0.25000001026515256  0.25000002836449486  1.0000
  Rb  Rb2       1.0  0.7499999604348817  0.749999951284099  0.7500000537043916  1.0000
  W   W1        1.0  5.163250729192719e-08  0.9999999950305377  0.9999998414169043  1.0000
  Se  Se1       1.0  0.2264115358054278  0.2264118017557431  0.7735882750112836  1.0000
  Se  Se2       1.0  0.773588341649452  0.7735882442743268  0.22641172189745665  1.0000
  Se  Se3       1.0  0.7735885644077796  0.22641136483783444  0.22641139511730718  1.0000
  Se  Se4       1.0  0.226411429720959  0.7735886778792606  0.7735886370820575  1.0000
  Se  Se5       1.0  0.22641164793514146  0.7735883578987618  0.22641159704062136  1.0000
  Se  Se6       1.0  0.7735884242188935  0.226411633467247  0.7735885097351584  1.0000
