data_image0
_chemical_formula_structural       Rb2WO6
_chemical_formula_sum              "Rb2 W1 O6"
_cell_length_a       6.573147000811417
_cell_length_b       6.573147717573761
_cell_length_c       6.573146635850816
_cell_angle_alpha    59.99999419388581
_cell_angle_beta     59.99999552616188
_cell_angle_gamma    59.99999808794941

_space_group_name_H-M_alt    "P 1"
_space_group_IT_number       1

loop_
  _space_group_symop_operation_xyz
  'x, y, z'

loop_
  _atom_site_type_symbol
  _atom_site_label
  _atom_site_symmetry_multiplicity
  _atom_site_fract_x
  _atom_site_fract_y
  _atom_site_fract_z
  _atom_site_occupancy
  Rb  Rb1       1.0  0.2500000130883241  0.2500000231438376  0.24999985774075584  1.0000
  Rb  Rb2       1.0  0.7500001155304289  0.750000061978428  0.7500001716940943  1.0000
  W   W1        1.0  0.9999998972927111  1.6582968525504932e-07  0.9999999243198925  1.0000
  O   O1        1.0  0.20379144513707018  0.20379095509008438  0.796208820633473  1.0000
  O   O2        1.0  0.7962087375343624  0.7962089362537035  0.20379103220698594  1.0000
  O   O3        1.0  0.7962087384078066  0.2037911549095964  0.2037912012945094  1.0000
  O   O4        1.0  0.20379129549261282  0.7962088612722444  0.7962088704148546  1.0000
  O   O5        1.0  0.20379124433904186  0.7962088220820878  0.20379102873153712  1.0000
  O   O6        1.0  0.7962085243554803  0.20379109907377463  0.7962090481395262  1.0000
