data_image0
_chemical_formula_structural       Rb2WS6
_chemical_formula_sum              "Rb2 W1 S6"
_cell_length_a       7.0032960639108355
_cell_length_b       7.003295490119135
_cell_length_c       7.003294929036457
_cell_angle_alpha    60.00000956246022
_cell_angle_beta     60.00000165569784
_cell_angle_gamma    60.00000277669273

_space_group_name_H-M_alt    "P 1"
_space_group_IT_number       1

loop_
  _space_group_symop_operation_xyz
  'x, y, z'

loop_
  _atom_site_type_symbol
  _atom_site_label
  _atom_site_symmetry_multiplicity
  _atom_site_fract_x
  _atom_site_fract_y
  _atom_site_fract_z
  _atom_site_occupancy
  Rb  Rb1       1.0  0.2499999923646455  0.25000012433902463  0.24999996276986222  1.0000
  Rb  Rb2       1.0  0.7499999430095144  0.7499999410605026  0.7500001884413292  1.0000
  W   W1        1.0  2.3242041376999705e-07  0.9999995995220271  0.9999999783642032  1.0000
  S   S1        1.0  0.22832964810578943  0.22833010892914038  0.7716702513820556  1.0000
  S   S2        1.0  0.7716701784306728  0.7716699862002113  0.22833013786108144  1.0000
  S   S3        1.0  0.7716704878952927  0.2283295709830505  0.22832987297159585  1.0000
  S   S4        1.0  0.2283298494909112  0.7716701638909641  0.7716699169352587  1.0000
  S   S5        1.0  0.2283298294744832  0.771670279846239  0.2283299070540073  1.0000
  S   S6        1.0  0.7716698276787581  0.2283302245050813  0.7716697754031654  1.0000
