data_image0
_chemical_formula_structural       Rb2ZrSe6
_chemical_formula_sum              "Rb2 Zr1 Se6"
_cell_length_a       7.054199063888268
_cell_length_b       7.054198898487069
_cell_length_c       7.054198697926941
_cell_angle_alpha    60.000002137327115
_cell_angle_beta     60.000004263022014
_cell_angle_gamma    59.99999411653846

_space_group_name_H-M_alt    "P 1"
_space_group_IT_number       1

loop_
  _space_group_symop_operation_xyz
  'x, y, z'

loop_
  _atom_site_type_symbol
  _atom_site_label
  _atom_site_symmetry_multiplicity
  _atom_site_fract_x
  _atom_site_fract_y
  _atom_site_fract_z
  _atom_site_occupancy
  Rb  Rb1       1.0  0.2500000945781264  0.24999991992747217  0.25000001839617425  1.0000
  Rb  Rb2       1.0  0.7499999109299424  0.7500000531990182  0.7499999318589587  1.0000
  Zr  Zr1       1.0  0.9999996536045055  8.160108678345177e-08  8.84517388966942e-08  1.0000
  Se  Se1       1.0  0.2688036543534333  0.26880370711574325  0.7311963937915834  1.0000
  Se  Se2       1.0  0.7311964421370315  0.7311966167216728  0.2688036318943435  1.0000
  Se  Se3       1.0  0.7311967738532731  0.2688034302124869  0.2688032006054471  1.0000
  Se  Se4       1.0  0.2688036074210331  0.7311961227553302  0.7311964585573122  1.0000
  Se  Se5       1.0  0.2688033702640789  0.7311964646980923  0.2688036285185815  1.0000
  Se  Se6       1.0  0.7311965090694679  0.2688035726675407  0.7311966277177574  1.0000
