data_image0
_chemical_formula_structural       Rb2ZrS6
_chemical_formula_sum              "Rb2 Zr1 S6"
_cell_length_a       6.804620054447207
_cell_length_b       6.804621037094419
_cell_length_c       6.804620110971943
_cell_angle_alpha    59.99999170881597
_cell_angle_beta     60.00000104480778
_cell_angle_gamma    60.00000508299494

_space_group_name_H-M_alt    "P 1"
_space_group_IT_number       1

loop_
  _space_group_symop_operation_xyz
  'x, y, z'

loop_
  _atom_site_type_symbol
  _atom_site_label
  _atom_site_symmetry_multiplicity
  _atom_site_fract_x
  _atom_site_fract_y
  _atom_site_fract_z
  _atom_site_occupancy
  Rb  Rb1       1.0  0.250000006187781  0.24999998519031721  0.24999998476560406  1.0000
  Rb  Rb2       1.0  0.7499999803219901  0.7499999735696609  0.7500000423063891  1.0000
  Zr  Zr1       1.0  5.235217494463805e-08  0.9999997462180535  0.9999997480133697  1.0000
  S   S1        1.0  0.261844749438288  0.2618446929171903  0.7381553015313047  1.0000
  S   S2        1.0  0.7381554231344872  0.7381552676426797  0.2618445933999083  1.0000
  S   S3        1.0  0.7381549852702624  0.2618448186336001  0.26184498626782654  1.0000
  S   S4        1.0  0.2618446810772195  0.7381555558968532  0.7381551032192618  1.0000
  S   S5        1.0  0.26184459808852656  0.7381551647836079  0.2618449736160038  1.0000
  S   S6        1.0  0.7381555213998912  0.2618447615786291  0.7381553250056972  1.0000
