data_image0
_chemical_formula_structural       Rb2ZrTe6
_chemical_formula_sum              "Rb2 Zr1 Te6"
_cell_length_a       7.591276295701504
_cell_length_b       7.591276491191423
_cell_length_c       7.591277193942312
_cell_angle_alpha    59.99999894852503
_cell_angle_beta     59.999998958898956
_cell_angle_gamma    60.0000079501473

_space_group_name_H-M_alt    "P 1"
_space_group_IT_number       1

loop_
  _space_group_symop_operation_xyz
  'x, y, z'

loop_
  _atom_site_type_symbol
  _atom_site_label
  _atom_site_symmetry_multiplicity
  _atom_site_fract_x
  _atom_site_fract_y
  _atom_site_fract_z
  _atom_site_occupancy
  Rb  Rb1       1.0  0.24999996638808183  0.2500000451368643  0.2500000354792745  1.0000
  Rb  Rb2       1.0  0.7500000760587562  0.7499999789148589  0.7499999513352835  1.0000
  Zr  Zr1       1.0  2.194112367753757e-08  0.9999999661194781  0.9999999177105059  1.0000
  Te  Te1       1.0  0.27113495924752334  0.2711350749654049  0.7288649541800939  1.0000
  Te  Te2       1.0  0.7288650286404847  0.7288649119790738  0.27113506265988313  1.0000
  Te  Te3       1.0  0.7288650252271698  0.2711349745419882  0.27113496882531135  1.0000
  Te  Te4       1.0  0.27113486819775434  0.7288651269509171  0.7288651012024605  1.0000
  Te  Te5       1.0  0.27113520686045484  0.7288653215426849  0.2711346988909822  1.0000
  Te  Te6       1.0  0.7288648234651566  0.2711346202277669  0.7288652995576859  1.0000
