data_image0
_chemical_formula_structural       Re2CoN6
_chemical_formula_sum              "Re2 Co1 N6"
_cell_length_a       4.886225633493721
_cell_length_b       4.886225616317152
_cell_length_c       4.886225465149691
_cell_angle_alpha    60.00000054920096
_cell_angle_beta     60.000000226146646
_cell_angle_gamma    60.00000062840355

_space_group_name_H-M_alt    "P 1"
_space_group_IT_number       1

loop_
  _space_group_symop_operation_xyz
  'x, y, z'

loop_
  _atom_site_type_symbol
  _atom_site_label
  _atom_site_symmetry_multiplicity
  _atom_site_fract_x
  _atom_site_fract_y
  _atom_site_fract_z
  _atom_site_occupancy
  Re  Re1       1.0  0.24999987160327258  0.2500004978349024  0.2499998469236645  1.0000
  Re  Re2       1.0  0.7499995358918813  0.7500002201898032  0.7499999324142586  1.0000
  Co  Co1       1.0  3.962516433635799e-08  0.9999999874673732  7.797175287408851e-10  1.0000
  N   N1        1.0  0.2608199330099865  0.26081962055503294  0.7391801703104568  1.0000
  N   N2        1.0  0.7391803028541905  0.7391801224312942  0.2608198665533968  1.0000
  N   N3        1.0  0.7391802198929845  0.26081971578607827  0.2608198340732828  1.0000
  N   N4        1.0  0.2608199528822239  0.7391799896023674  0.7391804189061256  1.0000
  N   N5        1.0  0.26081990606219596  0.7391800581987412  0.2608197190421744  1.0000
  N   N6        1.0  0.7391802425774304  0.260819797581229  0.7391801986155193  1.0000
