data_image0
_chemical_formula_structural       Re2CN6
_chemical_formula_sum              "Re2 C1 N6"
_cell_length_a       4.820194678772662
_cell_length_b       4.820194605101541
_cell_length_c       4.820194675876032
_cell_angle_alpha    59.9999987777377
_cell_angle_beta     59.99999867049847
_cell_angle_gamma    59.99999856520529

_space_group_name_H-M_alt    "P 1"
_space_group_IT_number       1

loop_
  _space_group_symop_operation_xyz
  'x, y, z'

loop_
  _atom_site_type_symbol
  _atom_site_label
  _atom_site_symmetry_multiplicity
  _atom_site_fract_x
  _atom_site_fract_y
  _atom_site_fract_z
  _atom_site_occupancy
  Re  Re1       1.0  0.2500001521738178  0.2500001248205663  0.24999981649737202  1.0000
  Re  Re2       1.0  0.749999709455386  0.750000021281894  0.750000447729743  1.0000
  C   C1        1.0  0.9999997686241636  0.9999999898365552  0.9999995149849815  1.0000
  N   N1        1.0  0.2371330983723999  0.2371329317099855  0.7628669405839944  1.0000
  N   N2        1.0  0.7628670565058799  0.7628672042290278  0.23713267174747202  1.0000
  N   N3        1.0  0.762866960647407  0.23713308547539277  0.2371329715706148  1.0000
  N   N4        1.0  0.23713284600458498  0.7628670961991347  0.762867306508283  1.0000
  N   N5        1.0  0.23713318840031974  0.7628668234951054  0.23713301601445713  1.0000
  N   N6        1.0  0.7628672473717665  0.23713273566825  0.7628672795060268  1.0000
