data_image0
_chemical_formula_structural       Re2CrN6
_chemical_formula_sum              "Re2 Cr1 N6"
_cell_length_a       4.965458868776353
_cell_length_b       4.965458638746714
_cell_length_c       4.965458686468277
_cell_angle_alpha    59.99999920305995
_cell_angle_beta     59.999999385176025
_cell_angle_gamma    59.999999499680236

_space_group_name_H-M_alt    "P 1"
_space_group_IT_number       1

loop_
  _space_group_symop_operation_xyz
  'x, y, z'

loop_
  _atom_site_type_symbol
  _atom_site_label
  _atom_site_symmetry_multiplicity
  _atom_site_fract_x
  _atom_site_fract_y
  _atom_site_fract_z
  _atom_site_occupancy
  Re  Re1       1.0  0.2500000331459503  0.2499998798311119  0.25000004454049485  1.0000
  Re  Re2       1.0  0.7499998244402598  0.7499999552090744  0.7500001575684914  1.0000
  Cr  Cr1       1.0  0.9999999268062517  1.726570407361485e-08  1.1657617913142444e-07  1.0000
  N   N1        1.0  0.2638215157287811  0.26382138305720065  0.7361785426879341  1.0000
  N   N2        1.0  0.7361785481628332  0.7361786493053253  0.26382138107849656  1.0000
  N   N3        1.0  0.7361785714031631  0.26382152493900524  0.26382139596968235  1.0000
  N   N4        1.0  0.26382147195824457  0.7361785271557544  0.7361785201400841  1.0000
  N   N5        1.0  0.26382152632819955  0.7361785017902508  0.26382141073506366  1.0000
  N   N6        1.0  0.736178562438224  0.2638215675702137  0.7361784760532545  1.0000
