data_image0
_chemical_formula_structural       Re2FeN6
_chemical_formula_sum              "Re2 Fe1 N6"
_cell_length_a       4.897748706005192
_cell_length_b       4.897749433087976
_cell_length_c       4.897747046634374
_cell_angle_alpha    60.00003235541332
_cell_angle_beta     60.0000313191257
_cell_angle_gamma    60.00002154692825

_space_group_name_H-M_alt    "P 1"
_space_group_IT_number       1

loop_
  _space_group_symop_operation_xyz
  'x, y, z'

loop_
  _atom_site_type_symbol
  _atom_site_label
  _atom_site_symmetry_multiplicity
  _atom_site_fract_x
  _atom_site_fract_y
  _atom_site_fract_z
  _atom_site_occupancy
  Re  Re1       1.0  0.2500001443521148  0.24999947643534748  0.2500000983485049  1.0000
  Re  Re2       1.0  0.7500001017601075  0.7499993595393465  0.7500003916775337  1.0000
  Fe  Fe1       1.0  0.9999992273019332  2.5656433104987866e-06  0.9999987768467599  1.0000
  N   N1        1.0  0.27741226756659315  0.2774098102812907  0.7225893809845747  1.0000
  N   N2        1.0  0.7225910720047125  0.7225900009378928  0.2774093666612465  1.0000
  N   N3        1.0  0.7225900857348927  0.2774088818642931  0.2774117214724164  1.0000
  N   N4        1.0  0.2774086849563724  0.7225903842185163  0.722591410551663  1.0000
  N   N5        1.0  0.27740888882514914  0.7225905911710403  0.2774093818988177  1.0000
  N   N6        1.0  0.7225895532008013  0.27740888996523383  0.7225894784103558  1.0000
