data_image0
_chemical_formula_structural       Re2GeN6
_chemical_formula_sum              "Re2 Ge1 N6"
_cell_length_a       4.8133106594008375
_cell_length_b       4.813310722652401
_cell_length_c       4.813311034875392
_cell_angle_alpha    60.00000020131152
_cell_angle_beta     60.00000088844815
_cell_angle_gamma    60.000000658073695

_space_group_name_H-M_alt    "P 1"
_space_group_IT_number       1

loop_
  _space_group_symop_operation_xyz
  'x, y, z'

loop_
  _atom_site_type_symbol
  _atom_site_label
  _atom_site_symmetry_multiplicity
  _atom_site_fract_x
  _atom_site_fract_y
  _atom_site_fract_z
  _atom_site_occupancy
  Re  Re1       1.0  0.2499999866527606  0.24999991048403872  0.2500002603218674  1.0000
  Re  Re2       1.0  0.7499999759442869  0.750000151293908  0.7500000748223029  1.0000
  Ge  Ge1       1.0  0.9999999937967656  0.9999999898220165  0.9999999791046013  1.0000
  N   N1        1.0  0.27556401031713845  0.27556396735454514  0.7244359578587762  1.0000
  N   N2        1.0  0.7244360501555943  0.7244359519316337  0.2755639321397461  1.0000
  N   N3        1.0  0.724435957577432  0.27556391186745277  0.27556397292737933  1.0000
  N   N4        1.0  0.2755640003671763  0.7244361422770005  0.7244359071387838  1.0000
  N   N5        1.0  0.2755639682573573  0.7244360547938492  0.27556393594757167  1.0000
  N   N6        1.0  0.7244360784992108  0.27556391283774934  0.724435978287763  1.0000
