data_image0
_chemical_formula_structural       Re2IrN6
_chemical_formula_sum              "Re2 Ir1 N6"
_cell_length_a       4.9854710813444765
_cell_length_b       4.985470739533181
_cell_length_c       4.985470780528686
_cell_angle_alpha    59.99999773902194
_cell_angle_beta     60.000000610600374
_cell_angle_gamma    59.99999859077168

_space_group_name_H-M_alt    "P 1"
_space_group_IT_number       1

loop_
  _space_group_symop_operation_xyz
  'x, y, z'

loop_
  _atom_site_type_symbol
  _atom_site_label
  _atom_site_symmetry_multiplicity
  _atom_site_fract_x
  _atom_site_fract_y
  _atom_site_fract_z
  _atom_site_occupancy
  Re  Re1       1.0  0.2500009428290134  0.24999917527562396  0.24999979611708636  1.0000
  Re  Re2       1.0  0.7499999171650685  0.749999790838224  0.7500012439596346  1.0000
  Ir  Ir1       1.0  0.9999999630823977  0.9999999926301151  0.9999999820271716  1.0000
  N   N1        1.0  0.2736249971698782  0.27362550077136344  0.7263748462427114  1.0000
  N   N2        1.0  0.7263736465744095  0.7263757991394946  0.27362441606525817  1.0000
  N   N3        1.0  0.7263748136388803  0.27362549627459276  0.27362503338913907  1.0000
  N   N4        1.0  0.2736253695104015  0.7263746318245091  0.7263747812613184  1.0000
  N   N5        1.0  0.27362572292977866  0.7263746814253662  0.27362494599230874  1.0000
  N   N6        1.0  0.7263746011144097  0.27362494060828396  0.7263749589753107  1.0000
