data_image0
_chemical_formula_structural       Re2MnN6
_chemical_formula_sum              "Re2 Mn1 N6"
_cell_length_a       4.931213861356423
_cell_length_b       4.931213653690581
_cell_length_c       4.931213094962814
_cell_angle_alpha    60.00000908110105
_cell_angle_beta     60.00000202757726
_cell_angle_gamma    59.99998996001627

_space_group_name_H-M_alt    "P 1"
_space_group_IT_number       1

loop_
  _space_group_symop_operation_xyz
  'x, y, z'

loop_
  _atom_site_type_symbol
  _atom_site_label
  _atom_site_symmetry_multiplicity
  _atom_site_fract_x
  _atom_site_fract_y
  _atom_site_fract_z
  _atom_site_occupancy
  Re  Re1       1.0  0.250000108050549  0.24999993280104563  0.24999997008303432  1.0000
  Re  Re2       1.0  0.7500000958054818  0.7499999846775232  0.7499999333129038  1.0000
  Mn  Mn1       1.0  0.9999973528987852  6.705881679733041e-07  2.1380751038066967e-06  1.0000
  N   N1        1.0  0.2630145603837942  0.26301442162601385  0.7369855184840606  1.0000
  N   N2        1.0  0.7369867368232775  0.7369865290541096  0.2630134027515386  1.0000
  N   N3        1.0  0.7369877100276728  0.26301224182210675  0.26301238519173986  1.0000
  N   N4        1.0  0.263013484235108  0.7369864114743079  0.7369866026124667  1.0000
  N   N5        1.0  0.2630132360924425  0.7369866877003503  0.2630132183289987  1.0000
  N   N6        1.0  0.7369867422137685  0.26301310559535096  0.7369868011242249  1.0000
