data_image0
_chemical_formula_structural       Re2NiN6
_chemical_formula_sum              "Re2 Ni1 N6"
_cell_length_a       4.872843962459102
_cell_length_b       4.872844074323268
_cell_length_c       4.872844115001331
_cell_angle_alpha    59.999999018248616
_cell_angle_beta     60.00000004687705
_cell_angle_gamma    60.00000013496855

_space_group_name_H-M_alt    "P 1"
_space_group_IT_number       1

loop_
  _space_group_symop_operation_xyz
  'x, y, z'

loop_
  _atom_site_type_symbol
  _atom_site_label
  _atom_site_symmetry_multiplicity
  _atom_site_fract_x
  _atom_site_fract_y
  _atom_site_fract_z
  _atom_site_occupancy
  Re  Re1       1.0  0.24999999571717738  0.2499999759962124  0.24999999484627172  1.0000
  Re  Re2       1.0  0.7500000250661639  0.7499999279886376  0.7499999491639827  1.0000
  Ni  Ni1       1.0  0.9999998585839446  1.2567043681123954e-07  0.999999923733034  1.0000
  N   N1        1.0  0.27446136238137914  0.27446144897128705  0.7255386043398593  1.0000
  N   N2        1.0  0.7255386072959873  0.7255386083314931  0.2744614342698773  1.0000
  N   N3        1.0  0.725538600936317  0.27446139762157074  0.2744614287342178  1.0000
  N   N4        1.0  0.274461438204703  0.7255385792521309  0.7255385784188199  1.0000
  N   N5        1.0  0.2744614271835649  0.7255385193566274  0.2744615020045811  1.0000
  N   N6        1.0  0.7255386837661126  0.27446141981594224  0.7255385968607431  1.0000
