data_image0
_chemical_formula_structural       Re2OsN6
_chemical_formula_sum              "Re2 Os1 N6"
_cell_length_a       4.991271946775071
_cell_length_b       4.991271581017419
_cell_length_c       4.991271913747926
_cell_angle_alpha    59.999997727173735
_cell_angle_beta     60.00000001848141
_cell_angle_gamma    59.9999993161132

_space_group_name_H-M_alt    "P 1"
_space_group_IT_number       1

loop_
  _space_group_symop_operation_xyz
  'x, y, z'

loop_
  _atom_site_type_symbol
  _atom_site_label
  _atom_site_symmetry_multiplicity
  _atom_site_fract_x
  _atom_site_fract_y
  _atom_site_fract_z
  _atom_site_occupancy
  Re  Re1       1.0  0.2500012614696669  0.2499998609409888  0.24999935677112203  1.0000
  Re  Re2       1.0  0.7500006006904794  0.7500012636576343  0.7499992865666796  1.0000
  Os  Os1       1.0  0.9999998714297286  0.9999999484707578  3.1948334218753415e-08  1.0000
  N   N1        1.0  0.26273575429070395  0.2627356931354447  0.7372642008743695  1.0000
  N   N2        1.0  0.7372639110767868  0.7372644499538067  0.26273581122974216  1.0000
  N   N3        1.0  0.7372639888908998  0.26273525303491085  0.2627362366588875  1.0000
  N   N4        1.0  0.2627353554581731  0.7372641735525237  0.7372643022193318  1.0000
  N   N5        1.0  0.26273556259170655  0.7372641588344447  0.262735969335854  1.0000
  N   N6        1.0  0.7372636727932019  0.2627351990473345  0.7372648066360785  1.0000
