data_image0
_chemical_formula_structural       Re2PN6
_chemical_formula_sum              "Re2 P1 N6"
_cell_length_a       4.913068904930869
_cell_length_b       4.913068977615037
_cell_length_c       4.913069345312479
_cell_angle_alpha    59.99999836339909
_cell_angle_beta     59.999999138284124
_cell_angle_gamma    60.00000235314587

_space_group_name_H-M_alt    "P 1"
_space_group_IT_number       1

loop_
  _space_group_symop_operation_xyz
  'x, y, z'

loop_
  _atom_site_type_symbol
  _atom_site_label
  _atom_site_symmetry_multiplicity
  _atom_site_fract_x
  _atom_site_fract_y
  _atom_site_fract_z
  _atom_site_occupancy
  Re  Re1       1.0  0.25000037608850606  0.24999992435518784  0.24999981205383037  1.0000
  Re  Re2       1.0  0.7499997317527998  0.7500000846693422  0.750000328702593  1.0000
  P   P1        1.0  1.008942885869624e-08  4.985661540642471e-09  0.9999999660024174  1.0000
  N   N1        1.0  0.2512690858805524  0.2512690277405972  0.7487308988465083  1.0000
  N   N2        1.0  0.7487309783037128  0.748730928934488  0.2512688869064292  1.0000
  N   N3        1.0  0.7487309363757301  0.25126909203022496  0.2512690921095032  1.0000
  N   N4        1.0  0.2512691041388798  0.748730914501472  0.748730855593282  1.0000
  N   N5        1.0  0.2512691491447821  0.7487309311731526  0.2512690084803403  1.0000
  N   N6        1.0  0.7487307155277849  0.25126905292306273  0.7487310627858544  1.0000
