data_image0
_chemical_formula_structural       Re2PtN6
_chemical_formula_sum              "Re2 Pt1 N6"
_cell_length_a       4.903108080240422
_cell_length_b       4.9031083087949465
_cell_length_c       4.903108350159547
_cell_angle_alpha    60.00000052081043
_cell_angle_beta     59.99999935200394
_cell_angle_gamma    59.99999921621444

_space_group_name_H-M_alt    "P 1"
_space_group_IT_number       1

loop_
  _space_group_symop_operation_xyz
  'x, y, z'

loop_
  _atom_site_type_symbol
  _atom_site_label
  _atom_site_symmetry_multiplicity
  _atom_site_fract_x
  _atom_site_fract_y
  _atom_site_fract_z
  _atom_site_occupancy
  Re  Re1       1.0  0.2500000840953756  0.25000000282134704  0.2499999266008849  1.0000
  Re  Re2       1.0  0.7500000534181257  0.749999898556675  0.7499999545855613  1.0000
  Pt  Pt1       1.0  3.35174481859037e-08  1.2489472975370493e-08  0.9999999198899087  1.0000
  N   N1        1.0  0.27550428458099996  0.2755042621923513  0.7244957286491821  1.0000
  N   N2        1.0  0.7244957054915805  0.7244957141225172  0.2755042826073372  1.0000
  N   N3        1.0  0.7244957739377428  0.27550424496877596  0.27550429681700134  1.0000
  N   N4        1.0  0.2755042677089793  0.7244956614050381  0.7244957684924702  1.0000
  N   N5        1.0  0.2755041199114064  0.724495799206085  0.27550436584044813  1.0000
  N   N6        1.0  0.7244956863456654  0.2755043894298441  0.7244958065622336  1.0000
