data_image0
_chemical_formula_structural       Re2PdN6
_chemical_formula_sum              "Re2 Pd1 N6"
_cell_length_a       4.907001049289811
_cell_length_b       4.9070011525966875
_cell_length_c       4.907000890609747
_cell_angle_alpha    60.00000226106558
_cell_angle_beta     60.00000121337031
_cell_angle_gamma    60.00000212639534

_space_group_name_H-M_alt    "P 1"
_space_group_IT_number       1

loop_
  _space_group_symop_operation_xyz
  'x, y, z'

loop_
  _atom_site_type_symbol
  _atom_site_label
  _atom_site_symmetry_multiplicity
  _atom_site_fract_x
  _atom_site_fract_y
  _atom_site_fract_z
  _atom_site_occupancy
  Re  Re1       1.0  0.2500000955300095  0.2500007315069263  0.2499993950439287  1.0000
  Re  Re2       1.0  0.7499998733551253  0.7499996362098708  0.7500000255000935  1.0000
  Pd  Pd1       1.0  1.145587021136181e-08  5.740600098569225e-08  0.9999999777964926  1.0000
  N   N1        1.0  0.2817731967221466  0.2817731835822128  0.7182268070076044  1.0000
  N   N2        1.0  0.7182269710040606  0.7182265876113608  0.2817732179205192  1.0000
  N   N3        1.0  0.7182267961984015  0.2817732096392559  0.28177317473414726  1.0000
  N   N4        1.0  0.28177332895873836  0.7182264492382298  0.7182271069721641  1.0000
  N   N5        1.0  0.28177322459483234  0.7182266192443949  0.2817731937169776  1.0000
  N   N6        1.0  0.7182265298705883  0.2817735163524877  0.7182270838852082  1.0000
