data_image0
_chemical_formula_structural       Re2RhN6
_chemical_formula_sum              "Re2 Rh1 N6"
_cell_length_a       4.86888170735641
_cell_length_b       4.868881613418732
_cell_length_c       4.868881690970699
_cell_angle_alpha    59.99999992600557
_cell_angle_beta     60.00000008269362
_cell_angle_gamma    59.99999945379071

_space_group_name_H-M_alt    "P 1"
_space_group_IT_number       1

loop_
  _space_group_symop_operation_xyz
  'x, y, z'

loop_
  _atom_site_type_symbol
  _atom_site_label
  _atom_site_symmetry_multiplicity
  _atom_site_fract_x
  _atom_site_fract_y
  _atom_site_fract_z
  _atom_site_occupancy
  Re  Re1       1.0  0.25000008271702034  0.24999996092204474  0.24999995731686034  1.0000
  Re  Re2       1.0  0.7499999090090362  0.7500001317961016  0.749999810205905  1.0000
  Rh  Rh1       1.0  0.9999999472988763  0.9999999446600085  2.5119109078386054e-07  1.0000
  N   N1        1.0  0.2846492874968422  0.2846492107699374  0.715350774172403  1.0000
  N   N2        1.0  0.7153507179573756  0.715350783845496  0.2846492614622074  1.0000
  N   N3        1.0  0.7153507869176927  0.28464921619187783  0.28464924574052275  1.0000
  N   N4        1.0  0.28464929069134176  0.7153507255990167  0.7153507514749126  1.0000
  N   N5        1.0  0.28464924732178293  0.7153507635883702  0.2846492064381659  1.0000
  N   N6        1.0  0.7153507299363594  0.2846492586970589  0.7153507452512358  1.0000
