data_image0
_chemical_formula_structural       Re2RuN6
_chemical_formula_sum              "Re2 Ru1 N6"
_cell_length_a       4.93696543626867
_cell_length_b       4.9369654865976225
_cell_length_c       4.936965672972291
_cell_angle_alpha    60.000000894524845
_cell_angle_beta     60.00000049736567
_cell_angle_gamma    60.000001422162086

_space_group_name_H-M_alt    "P 1"
_space_group_IT_number       1

loop_
  _space_group_symop_operation_xyz
  'x, y, z'

loop_
  _atom_site_type_symbol
  _atom_site_label
  _atom_site_symmetry_multiplicity
  _atom_site_fract_x
  _atom_site_fract_y
  _atom_site_fract_z
  _atom_site_occupancy
  Re  Re1       1.0  0.24999982600895929  0.25000055265229154  0.24999987000531843  1.0000
  Re  Re2       1.0  0.749999930417586  0.7500006656510773  0.7499989826611958  1.0000
  Ru  Ru1       1.0  0.9999999503200325  0.9999997841734904  9.629359245648132e-08  1.0000
  N   N1        1.0  0.26885643397800174  0.26885602811037324  0.7311438559377861  1.0000
  N   N2        1.0  0.7311439678402502  0.7311437662342165  0.2688565446186463  1.0000
  N   N3        1.0  0.7311437649726762  0.26885586437450015  0.2688566104611413  1.0000
  N   N4        1.0  0.26885616075440716  0.7311437935280374  0.7311439363445751  1.0000
  N   N5        1.0  0.2688560476293568  0.7311433319552649  0.26885639728735455  1.0000
  N   N6        1.0  0.7311439150497723  0.26885618702445474  0.7311437042475105  1.0000
