data_image0
_chemical_formula_structural       Re2SiN6
_chemical_formula_sum              "Re2 Si1 N6"
_cell_length_a       4.817241799721211
_cell_length_b       4.817242197563822
_cell_length_c       4.817241942868605
_cell_angle_alpha    59.999999545930216
_cell_angle_beta     60.00000012038931
_cell_angle_gamma    60.00000005112721

_space_group_name_H-M_alt    "P 1"
_space_group_IT_number       1

loop_
  _space_group_symop_operation_xyz
  'x, y, z'

loop_
  _atom_site_type_symbol
  _atom_site_label
  _atom_site_symmetry_multiplicity
  _atom_site_fract_x
  _atom_site_fract_y
  _atom_site_fract_z
  _atom_site_occupancy
  Re  Re1       1.0  0.24999991488349382  0.24999998565024203  0.25000006188883056  1.0000
  Re  Re2       1.0  0.7500000605704833  0.7500000662747451  0.7499999564374691  1.0000
  Si  Si1       1.0  0.9999999926635486  7.62725795786189e-09  0.9999999832475834  1.0000
  N   N1        1.0  0.26910698269803  0.2691069802539681  0.730893050981929  1.0000
  N   N2        1.0  0.7308929878414591  0.7308930360771505  0.26910701458494546  1.0000
  N   N3        1.0  0.7308930656886258  0.26910692525012997  0.2691070250449131  1.0000
  N   N4        1.0  0.2691069325266669  0.7308930224356738  0.7308929966545431  1.0000
  N   N5        1.0  0.26910697607689116  0.730893013012037  0.2691069812165616  1.0000
  N   N6        1.0  0.7308930755748213  0.2691069397586053  0.7308929780082394  1.0000
