data_image0
_chemical_formula_structural       Re2SeN6
_chemical_formula_sum              "Re2 Se1 N6"
_cell_length_a       4.793865601284934
_cell_length_b       4.79386500473195
_cell_length_c       4.793857611922216
_cell_angle_alpha    59.99998412357559
_cell_angle_beta     60.00001727273855
_cell_angle_gamma    59.999921703853865

_space_group_name_H-M_alt    "P 1"
_space_group_IT_number       1

loop_
  _space_group_symop_operation_xyz
  'x, y, z'

loop_
  _atom_site_type_symbol
  _atom_site_label
  _atom_site_symmetry_multiplicity
  _atom_site_fract_x
  _atom_site_fract_y
  _atom_site_fract_z
  _atom_site_occupancy
  Re  Re1       1.0  0.2500000640705768  0.24999954415297893  0.2500001990803005  1.0000
  Re  Re2       1.0  0.7499999352383808  0.7499997719080641  0.7500003187107224  1.0000
  Se  Se1       1.0  9.056073408387562e-07  0.999996929110331  0.9999965059524978  1.0000
  N   N1        1.0  0.2789303750500262  0.27892864093741976  0.7210692215378999  1.0000
  N   N2        1.0  0.7210729754298427  0.7210717353724097  0.2789260971278816  1.0000
  N   N3        1.0  0.7210666657389443  0.2789325308879417  0.278932392859538  1.0000
  N   N4        1.0  0.27892411813243473  0.7210748992797389  0.7210753966962421  1.0000
  N   N5        1.0  0.27893143903662604  0.7210679309387136  0.27892963504679535  1.0000
  N   N6        1.0  0.7210735870807934  0.27892528676586514  0.7210727410455954  1.0000
