data_image0
_chemical_formula_structural       Re2SN6
_chemical_formula_sum              "Re2 S1 N6"
_cell_length_a       4.956248078441803
_cell_length_b       4.956247989661345
_cell_length_c       4.956247995093958
_cell_angle_alpha    60.000001262342124
_cell_angle_beta     60.000000675425746
_cell_angle_gamma    60.00000128228071

_space_group_name_H-M_alt    "P 1"
_space_group_IT_number       1

loop_
  _space_group_symop_operation_xyz
  'x, y, z'

loop_
  _atom_site_type_symbol
  _atom_site_label
  _atom_site_symmetry_multiplicity
  _atom_site_fract_x
  _atom_site_fract_y
  _atom_site_fract_z
  _atom_site_occupancy
  Re  Re1       1.0  0.2499999951767056  0.25000018272893537  0.24999988193826203  1.0000
  Re  Re2       1.0  0.7500000690838008  0.7499999131107854  0.7500002040476894  1.0000
  S   S1        1.0  0.9999999832675114  2.2240014827262166e-08  0.9999998943458172  1.0000
  N   N1        1.0  0.24385362398370836  0.24385370410332638  0.7561463415767838  1.0000
  N   N2        1.0  0.7561463079513769  0.7561462854785334  0.24385363368810414  1.0000
  N   N3        1.0  0.756146408558654  0.24385364846040852  0.24385370094165162  1.0000
  N   N4        1.0  0.24385366937783956  0.7561462595747269  0.7561463308727264  1.0000
  N   N5        1.0  0.24385370393394634  0.7561462868593328  0.243853649844198  1.0000
  N   N6        1.0  0.7561462007260666  0.24385370766475314  0.7561463809755292  1.0000
