data_image0
_chemical_formula_structural       Re2TiN6
_chemical_formula_sum              "Re2 Ti1 N6"
_cell_length_a       4.910714971475639
_cell_length_b       4.91071489585616
_cell_length_c       4.9107151174275225
_cell_angle_alpha    59.99999936810499
_cell_angle_beta     59.999999235688065
_cell_angle_gamma    59.99999938409053

_space_group_name_H-M_alt    "P 1"
_space_group_IT_number       1

loop_
  _space_group_symop_operation_xyz
  'x, y, z'

loop_
  _atom_site_type_symbol
  _atom_site_label
  _atom_site_symmetry_multiplicity
  _atom_site_fract_x
  _atom_site_fract_y
  _atom_site_fract_z
  _atom_site_occupancy
  Re  Re1       1.0  0.2499998821689836  0.25000004391351  0.2500000677693751  1.0000
  Re  Re2       1.0  0.7500000515165527  0.750000101812223  0.7500000320583848  1.0000
  Ti  Ti1       1.0  6.91153390917574e-09  7.482076585926379e-09  0.9999999581850189  1.0000
  N   N1        1.0  0.27511983394388345  0.27511969247859547  0.7248802701026084  1.0000
  N   N2        1.0  0.7248802352951236  0.7248802088326248  0.27511977011932676  1.0000
  N   N3        1.0  0.7248802533303083  0.2751197981322787  0.27511973048649385  1.0000
  N   N4        1.0  0.27511967943019583  0.7248802727726837  0.7248802157960176  1.0000
  N   N5        1.0  0.2751197578253146  0.7248802039118006  0.27511976327623094  1.0000
  N   N6        1.0  0.7248803111528939  0.2751196699651368  0.7248801849023537  1.0000
