data_image0
_chemical_formula_structural       Re2VN6
_chemical_formula_sum              "Re2 V1 N6"
_cell_length_a       4.957393324382648
_cell_length_b       4.957393167775713
_cell_length_c       4.957393326151427
_cell_angle_alpha    59.9999983927788
_cell_angle_beta     59.999999327854084
_cell_angle_gamma    60.00000010278503

_space_group_name_H-M_alt    "P 1"
_space_group_IT_number       1

loop_
  _space_group_symop_operation_xyz
  'x, y, z'

loop_
  _atom_site_type_symbol
  _atom_site_label
  _atom_site_symmetry_multiplicity
  _atom_site_fract_x
  _atom_site_fract_y
  _atom_site_fract_z
  _atom_site_occupancy
  Re  Re1       1.0  0.25000033476789346  0.24999994387717528  0.24999935952374894  1.0000
  Re  Re2       1.0  0.7500000409993992  0.7500002269182536  0.7499993046073569  1.0000
  V   V1        1.0  1.7640786295280315e-09  2.964650603644057e-08  1.2535355550747428e-08  1.0000
  N   N1        1.0  0.2681421582241944  0.2681420130329166  0.7318582011522499  1.0000
  N   N2        1.0  0.7318577914802268  0.7318580663524382  0.2681423758104293  1.0000
  N   N3        1.0  0.731857949231881  0.2681417576533771  0.2681423486853124  1.0000
  N   N4        1.0  0.268142143295778  0.7318577535072812  0.7318580355230798  1.0000
  N   N5        1.0  0.2681418712296004  0.7318579850039967  0.268142361135538  1.0000
  N   N6        1.0  0.7318577305204232  0.26814222284954636  0.7318580129059298  1.0000
