data_image0
_chemical_formula_structural       Rh2CN6
_chemical_formula_sum              "Rh2 C1 N6"
_cell_length_a       4.769052983189389
_cell_length_b       4.769052850637529
_cell_length_c       4.769052959084454
_cell_angle_alpha    60.00000011324213
_cell_angle_beta     60.0000002755206
_cell_angle_gamma    60.0000003980291

_space_group_name_H-M_alt    "P 1"
_space_group_IT_number       1

loop_
  _space_group_symop_operation_xyz
  'x, y, z'

loop_
  _atom_site_type_symbol
  _atom_site_label
  _atom_site_symmetry_multiplicity
  _atom_site_fract_x
  _atom_site_fract_y
  _atom_site_fract_z
  _atom_site_occupancy
  Rh  Rh1       1.0  0.25000002033884167  0.25000000760904467  0.24999998376818813  1.0000
  Rh  Rh2       1.0  0.7500000195869579  0.7499999945779324  0.7500000092093247  1.0000
  C   C1        1.0  5.4123240228665145e-08  0.9999999974318908  0.9999999385759442  1.0000
  N   N1        1.0  0.23545363262897118  0.23545367644432408  0.7645463348070104  1.0000
  N   N2        1.0  0.7645462875064568  0.7645463437194167  0.23545370698045426  1.0000
  N   N3        1.0  0.7645463260906915  0.2354536399651003  0.2354536553403326  1.0000
  N   N4        1.0  0.23545367609823262  0.7645463519494393  0.7645463469638699  1.0000
  N   N5        1.0  0.23545366949973795  0.7645463264301319  0.23545366230249845  1.0000
  N   N6        1.0  0.7645463281404585  0.235453650075752  0.7645463227213151  1.0000
