data_image0
_chemical_formula_structural       Rh2CrN6
_chemical_formula_sum              "Rh2 Cr1 N6"
_cell_length_a       4.97446019783721
_cell_length_b       4.974460603044774
_cell_length_c       4.974460577377178
_cell_angle_alpha    59.999987752671046
_cell_angle_beta     59.999979573967515
_cell_angle_gamma    59.99998747839898

_space_group_name_H-M_alt    "P 1"
_space_group_IT_number       1

loop_
  _space_group_symop_operation_xyz
  'x, y, z'

loop_
  _atom_site_type_symbol
  _atom_site_label
  _atom_site_symmetry_multiplicity
  _atom_site_fract_x
  _atom_site_fract_y
  _atom_site_fract_z
  _atom_site_occupancy
  Rh  Rh1       1.0  0.24997189952082383  0.2500232379911878  0.250013905121656  1.0000
  Rh  Rh2       1.0  0.7499989374853516  0.7499964453472949  0.7500495537132387  1.0000
  Cr  Cr1       1.0  4.1312005335194607e-07  0.9999996380763915  0.9999984767519333  1.0000
  N   N1        1.0  0.2620632691163117  0.2620659607465433  0.7379282674935552  1.0000
  N   N2        1.0  0.7379489143074426  0.7379229492337206  0.26204253855220283  1.0000
  N   N3        1.0  0.737939675759214  0.262075773447424  0.2620480082818391  1.0000
  N   N4        1.0  0.26206051652490675  0.7379260180612763  0.7379403303986038  1.0000
  N   N5        1.0  0.26207131744154294  0.7379359897578689  0.2620550460623236  1.0000
  N   N6        1.0  0.7379450564670924  0.2620539838338994  0.7379239220441005  1.0000
