data_image0
_chemical_formula_structural       Rh2CoN6
_chemical_formula_sum              "Rh2 Co1 N6"
_cell_length_a       4.905349764200696
_cell_length_b       4.905349840683254
_cell_length_c       4.905349581860646
_cell_angle_alpha    59.999998140996645
_cell_angle_beta     59.99999842161578
_cell_angle_gamma    60.00000110053339

_space_group_name_H-M_alt    "P 1"
_space_group_IT_number       1

loop_
  _space_group_symop_operation_xyz
  'x, y, z'

loop_
  _atom_site_type_symbol
  _atom_site_label
  _atom_site_symmetry_multiplicity
  _atom_site_fract_x
  _atom_site_fract_y
  _atom_site_fract_z
  _atom_site_occupancy
  Rh  Rh1       1.0  0.2500004495129077  0.2500004316111484  0.24999995892816623  1.0000
  Rh  Rh2       1.0  0.7500003701970825  0.7499997243755444  0.750001077795068  1.0000
  Co  Co1       1.0  6.037075209752083e-08  2.4967529916210374e-09  2.768537618260817e-08  1.0000
  N   N1        1.0  0.26472452457526063  0.26472476026412445  0.7352749774256406  1.0000
  N   N2        1.0  0.7352752213733614  0.7352752908589817  0.2647239923264246  1.0000
  N   N3        1.0  0.7352751564315396  0.2647249505134924  0.2647242695312464  1.0000
  N   N4        1.0  0.264724384057437  0.7352750531712682  0.7352756991866363  1.0000
  N   N5        1.0  0.2647246193417892  0.735275234687723  0.26472462147907083  1.0000
  N   N6        1.0  0.7352752124714672  0.26472455177949705  0.7352753917290695  1.0000
