data_image0
_chemical_formula_structural       Rh2FeN6
_chemical_formula_sum              "Rh2 Fe1 N6"
_cell_length_a       4.89028752413001
_cell_length_b       4.890287639228705
_cell_length_c       4.890287523958473
_cell_angle_alpha    59.999999506075056
_cell_angle_beta     60.00000117267344
_cell_angle_gamma    60.0000026325419

_space_group_name_H-M_alt    "P 1"
_space_group_IT_number       1

loop_
  _space_group_symop_operation_xyz
  'x, y, z'

loop_
  _atom_site_type_symbol
  _atom_site_label
  _atom_site_symmetry_multiplicity
  _atom_site_fract_x
  _atom_site_fract_y
  _atom_site_fract_z
  _atom_site_occupancy
  Rh  Rh1       1.0  0.24999992360727838  0.25000009002957596  0.2500001255003771  1.0000
  Rh  Rh2       1.0  0.7499999858149813  0.7500000572110486  0.7500001116552311  1.0000
  Fe  Fe1       1.0  6.38824067148109e-07  8.815640628200187e-07  1.0760987791825297e-06  1.0000
  N   N1        1.0  0.2804224242979096  0.2804224295584267  0.7195775352382535  1.0000
  N   N2        1.0  0.7195771548657096  0.7195776600800002  0.28042239689960363  1.0000
  N   N3        1.0  0.7195775662390933  0.2804220869896632  0.28042215046935504  1.0000
  N   N4        1.0  0.28042301720134205  0.7195766828071352  0.7195767186638146  1.0000
  N   N5        1.0  0.28042232527714095  0.7195775175582315  0.2804224442554293  1.0000
  N   N6        1.0  0.7195769215039468  0.2804225846024079  0.719577435146152  1.0000
