data_image0
_chemical_formula_structural       Rh2GeN6
_chemical_formula_sum              "Rh2 Ge1 N6"
_cell_length_a       4.734352847854553
_cell_length_b       4.73435299930158
_cell_length_c       4.734352679725006
_cell_angle_alpha    60.00000163054099
_cell_angle_beta     60.00000144661243
_cell_angle_gamma    59.999999029136774

_space_group_name_H-M_alt    "P 1"
_space_group_IT_number       1

loop_
  _space_group_symop_operation_xyz
  'x, y, z'

loop_
  _atom_site_type_symbol
  _atom_site_label
  _atom_site_symmetry_multiplicity
  _atom_site_fract_x
  _atom_site_fract_y
  _atom_site_fract_z
  _atom_site_occupancy
  Rh  Rh1       1.0  0.25000002008771693  0.25000003025941575  0.25000000380207205  1.0000
  Rh  Rh2       1.0  0.7499998800997039  0.7500000312788204  0.7500000615343543  1.0000
  Ge  Ge1       1.0  0.9999999985712771  0.9999999896522727  0.9999999995515616  1.0000
  N   N1        1.0  0.2758704508998753  0.27587040993164047  0.7241295203721152  1.0000
  N   N2        1.0  0.7241295969834428  0.7241295377815911  0.2758703865100466  1.0000
  N   N3        1.0  0.7241295329099365  0.2758704607886329  0.27587045252144216  1.0000
  N   N4        1.0  0.27587051450414984  0.7241295541848257  0.7241295455862712  1.0000
  N   N5        1.0  0.2758704722162513  0.7241295602933713  0.2758704364908414  1.0000
  N   N6        1.0  0.7241295169581452  0.2758704391584983  0.7241295520286453  1.0000
