data_image0
_chemical_formula_structural       Rh2MnN6
_chemical_formula_sum              "Rh2 Mn1 N6"
_cell_length_a       4.9599731990916
_cell_length_b       4.965108328639115
_cell_length_c       4.954498775998729
_cell_angle_alpha    59.947979837238414
_cell_angle_beta     59.9022736901116
_cell_angle_gamma    59.95879370013594

_space_group_name_H-M_alt    "P 1"
_space_group_IT_number       1

loop_
  _space_group_symop_operation_xyz
  'x, y, z'

loop_
  _atom_site_type_symbol
  _atom_site_label
  _atom_site_symmetry_multiplicity
  _atom_site_fract_x
  _atom_site_fract_y
  _atom_site_fract_z
  _atom_site_occupancy
  Rh  Rh1       1.0  0.2294138902692019  0.24028759904791888  0.28345115763344386  1.0000
  Rh  Rh2       1.0  0.7279697367852626  0.7498650952701735  0.7660720628407471  1.0000
  Mn  Mn1       1.0  0.0072545904127336415  0.0019061844357190683  0.9908880667384706  1.0000
  N   N1        1.0  0.28363731582409263  0.27594115473423336  0.7145214309503382  1.0000
  N   N2        1.0  0.727471590201759  0.7202895606106353  0.27227246850077463  1.0000
  N   N3        1.0  0.7283603841120814  0.2823632127203602  0.2713651390487204  1.0000
  N   N4        1.0  0.2844262747114041  0.7256559914502354  0.7144972044275325  1.0000
  N   N5        1.0  0.28497718237625386  0.7232856774407038  0.2714995056092126  1.0000
  N   N6        1.0  0.7264887468812041  0.28040573574588074  0.7154331519192846  1.0000
