data_image0
_chemical_formula_structural       Rh2NiN6
_chemical_formula_sum              "Rh2 Ni1 N6"
_cell_length_a       4.6347978567224555
_cell_length_b       4.63479938959247
_cell_length_c       4.634797587134973
_cell_angle_alpha    60.0000025863032
_cell_angle_beta     59.99999977167343
_cell_angle_gamma    60.0000103817269

_space_group_name_H-M_alt    "P 1"
_space_group_IT_number       1

loop_
  _space_group_symop_operation_xyz
  'x, y, z'

loop_
  _atom_site_type_symbol
  _atom_site_label
  _atom_site_symmetry_multiplicity
  _atom_site_fract_x
  _atom_site_fract_y
  _atom_site_fract_z
  _atom_site_occupancy
  Rh  Rh1       1.0  0.2499986812653574  0.24999992871059043  0.25000341952763006  1.0000
  Rh  Rh2       1.0  0.7499988837203778  0.7499930900426722  0.7500078153853287  1.0000
  Ni  Ni1       1.0  0.9999999936096863  0.9999998995850712  1.28918332597787e-07  1.0000
  N   N1        1.0  0.28061389865689484  0.2806146911704705  0.7193858476342129  1.0000
  N   N2        1.0  0.7193873156339693  0.7193843683339038  0.2806136206964806  1.0000
  N   N3        1.0  0.719384864267327  0.28061863346247673  0.28060957379044443  1.0000
  N   N4        1.0  0.28061299586995764  0.7193886125007417  0.7193831027914201  1.0000
  N   N5        1.0  0.2806171057272487  0.7193845853247912  0.28061169511456435  1.0000
  N   N6        1.0  0.7193863331034216  0.280616186518432  0.7193847497143759  1.0000
