data_image0
_chemical_formula_structural       Rh2PN6
_chemical_formula_sum              "Rh2 P1 N6"
_cell_length_a       4.8879610656065235
_cell_length_b       4.887961037673408
_cell_length_c       4.887961229036984
_cell_angle_alpha    60.00000110016158
_cell_angle_beta     59.999998836163094
_cell_angle_gamma    60.00000129853008

_space_group_name_H-M_alt    "P 1"
_space_group_IT_number       1

loop_
  _space_group_symop_operation_xyz
  'x, y, z'

loop_
  _atom_site_type_symbol
  _atom_site_label
  _atom_site_symmetry_multiplicity
  _atom_site_fract_x
  _atom_site_fract_y
  _atom_site_fract_z
  _atom_site_occupancy
  Rh  Rh1       1.0  0.24999997928978082  0.2500000251824013  0.2500000544476826  1.0000
  Rh  Rh2       1.0  0.7500000373045043  0.7499999402428866  0.7500000503436878  1.0000
  P   P1        1.0  5.2208815516136593e-08  7.015779445072327e-08  0.9999999735960229  1.0000
  N   N1        1.0  0.24663209741914305  0.24663216158812645  0.7533678914169064  1.0000
  N   N2        1.0  0.7533678771279536  0.7533679441527459  0.2466321315067847  1.0000
  N   N3        1.0  0.7533678175716708  0.24663211300271612  0.24663208828429406  1.0000
  N   N4        1.0  0.24663207300819168  0.7533678123323979  0.7533679133876845  1.0000
  N   N5        1.0  0.24663214712636441  0.7533678034736131  0.2466320917574716  1.0000
  N   N6        1.0  0.7533679398139701  0.246632106827689  0.7533677681051079  1.0000
