data_image0
_chemical_formula_structural       Rh2SN6
_chemical_formula_sum              "Rh2 S1 N6"
_cell_length_a       2.690407783159562
_cell_length_b       4.544370607462952
_cell_length_c       3.0269489733218315
_cell_angle_alpha    60.726422149184195
_cell_angle_beta     97.34967798548982
_cell_angle_gamma    82.61299443091907

_space_group_name_H-M_alt    "P 1"
_space_group_IT_number       1

loop_
  _space_group_symop_operation_xyz
  'x, y, z'

loop_
  _atom_site_type_symbol
  _atom_site_label
  _atom_site_symmetry_multiplicity
  _atom_site_fract_x
  _atom_site_fract_y
  _atom_site_fract_z
  _atom_site_occupancy
  Rh  Rh1       1.0  0.09326621982946037  0.7687562432262873  0.6487355656388045  1.0000
  Rh  Rh2       1.0  0.3910577335167581  0.15075884116212915  0.6474812858291188  1.0000
  S   S1        1.0  0.8406962375778912  0.9259589511509019  0.2979662032182486  1.0000
  N   N1        1.0  0.30430869362292123  0.16828539560648959  0.8194130402060957  1.0000
  N   N2        1.0  0.22340072404847258  0.02231836733128433  0.14229215121918326  1.0000
  N   N3        1.0  0.25964898502294675  0.08441888652246798  0.23079429964642162  1.0000
  N   N4        1.0  0.9243334210474584  0.9373742090096104  0.7548112089365773  1.0000
  N   N5        1.0  0.8571751357192086  0.9336779860659051  0.3200367282156351  1.0000
  N   N6        1.0  0.31100989279756486  0.1413433402593125  0.7592059288853883  1.0000
