data_image0
_chemical_formula_structural       Rh2SeN6
_chemical_formula_sum              "Rh2 Se1 N6"
_cell_length_a       4.712914260334595
_cell_length_b       4.712893779258492
_cell_length_c       4.71285986312869
_cell_angle_alpha    59.9997609759821
_cell_angle_beta     59.99997460893925
_cell_angle_gamma    59.99817793475373

_space_group_name_H-M_alt    "P 1"
_space_group_IT_number       1

loop_
  _space_group_symop_operation_xyz
  'x, y, z'

loop_
  _atom_site_type_symbol
  _atom_site_label
  _atom_site_symmetry_multiplicity
  _atom_site_fract_x
  _atom_site_fract_y
  _atom_site_fract_z
  _atom_site_occupancy
  Rh  Rh1       1.0  0.25001390361350384  0.25000512746710096  0.24999372330040132  1.0000
  Rh  Rh2       1.0  0.7499961281206006  0.7499872439980345  0.7500013810262687  1.0000
  Se  Se1       1.0  2.6163572517890604e-06  0.9999957380223677  0.9999977503807266  1.0000
  N   N1        1.0  0.27862340410422554  0.2786119624015631  0.7213833335223664  1.0000
  N   N2        1.0  0.7213785134376344  0.7213884262969084  0.2786096274136805  1.0000
  N   N3        1.0  0.7213822202859757  0.2786248554665025  0.27862680590493016  1.0000
  N   N4        1.0  0.2786213508411784  0.7213764011850952  0.7213660909617661  1.0000
  N   N5        1.0  0.27862260006099177  0.7213754779658281  0.27862573185047135  1.0000
  N   N6        1.0  0.721380902131295  0.27862078910765053  0.7213674430357547  1.0000
