data_image0
_chemical_formula_structural       Rh2VN6
_chemical_formula_sum              "Rh2 V1 N6"
_cell_length_a       4.855883817234496
_cell_length_b       4.855884006851699
_cell_length_c       4.855883917183925
_cell_angle_alpha    60.0000001677425
_cell_angle_beta     59.99999970741469
_cell_angle_gamma    59.99999870768067

_space_group_name_H-M_alt    "P 1"
_space_group_IT_number       1

loop_
  _space_group_symop_operation_xyz
  'x, y, z'

loop_
  _atom_site_type_symbol
  _atom_site_label
  _atom_site_symmetry_multiplicity
  _atom_site_fract_x
  _atom_site_fract_y
  _atom_site_fract_z
  _atom_site_occupancy
  Rh  Rh1       1.0  0.24999964266919206  0.2499996501774584  0.2500004258406065  1.0000
  Rh  Rh2       1.0  0.7499999044016282  0.7499991245632709  0.7500010894685204  1.0000
  V   V1        1.0  0.9999999739911428  0.999999742736901  1.9929798335985518e-07  1.0000
  N   N1        1.0  0.27830171327094366  0.27830205774629757  0.7216980305223988  1.0000
  N   N2        1.0  0.7216983378688923  0.7216985077473725  0.2783013571216699  1.0000
  N   N3        1.0  0.7216984276083914  0.27830209214373525  0.27830133468726886  1.0000
  N   N4        1.0  0.27830181946233706  0.7216982993190096  0.7216981614495407  1.0000
  N   N5        1.0  0.2783019177914014  0.7216984913608717  0.2783013068862636  1.0000
  N   N6        1.0  0.7216982612297643  0.2783020186446758  0.7216981104606356  1.0000
