data_image0
_chemical_formula_structural       Ru2CN6
_chemical_formula_sum              "Ru2 C1 N6"
_cell_length_a       4.803156195390067
_cell_length_b       4.803156001333689
_cell_length_c       4.80315634969193
_cell_angle_alpha    60.00000193838547
_cell_angle_beta     60.0000014337801
_cell_angle_gamma    60.00000270493435

_space_group_name_H-M_alt    "P 1"
_space_group_IT_number       1

loop_
  _space_group_symop_operation_xyz
  'x, y, z'

loop_
  _atom_site_type_symbol
  _atom_site_label
  _atom_site_symmetry_multiplicity
  _atom_site_fract_x
  _atom_site_fract_y
  _atom_site_fract_z
  _atom_site_occupancy
  Ru  Ru1       1.0  0.24999975232247967  0.2499988489744938  0.24999981392798487  1.0000
  Ru  Ru2       1.0  0.7500000793782662  0.750000318189012  0.7499989437630616  1.0000
  C   C1        1.0  1.1728838412778973e-06  0.9999970727431177  0.9999966653726877  1.0000
  N   N1        1.0  0.23388293220145812  0.23388263715625882  0.7661172691041761  1.0000
  N   N2        1.0  0.7661180538649578  0.7661187356494071  0.23388165320341037  1.0000
  N   N3        1.0  0.7661162097201909  0.23388388143327507  0.23388466056619614  1.0000
  N   N4        1.0  0.23388026396037068  0.7661199290531547  0.7661196170878681  1.0000
  N   N5        1.0  0.23388278519090275  0.7661173376289396  0.23388313438654393  1.0000
  N   N6        1.0  0.7661187322167317  0.23388125836268447  0.766118201475233  1.0000
