data_image0
_chemical_formula_structural       Ru2CoN6
_chemical_formula_sum              "Ru2 Co1 N6"
_cell_length_a       4.968207306961544
_cell_length_b       4.9682070447144175
_cell_length_c       4.968207292137349
_cell_angle_alpha    59.99999932790175
_cell_angle_beta     59.999999672235056
_cell_angle_gamma    59.99999929148391

_space_group_name_H-M_alt    "P 1"
_space_group_IT_number       1

loop_
  _space_group_symop_operation_xyz
  'x, y, z'

loop_
  _atom_site_type_symbol
  _atom_site_label
  _atom_site_symmetry_multiplicity
  _atom_site_fract_x
  _atom_site_fract_y
  _atom_site_fract_z
  _atom_site_occupancy
  Ru  Ru1       1.0  0.25000068628546157  0.24999930669978868  0.24999957862236488  1.0000
  Ru  Ru2       1.0  0.749999916573766  0.7500006515019011  0.7499992323369593  1.0000
  Co  Co1       1.0  0.999999994106964  2.46516470145985e-08  0.9999999584159193  1.0000
  N   N1        1.0  0.2599096871023618  0.259909477518413  0.740090527028602  1.0000
  N   N2        1.0  0.7400901354165319  0.7400906532448203  0.2599098639343466  1.0000
  N   N3        1.0  0.7400904791234783  0.2599092975422453  0.2599098991758077  1.0000
  N   N4        1.0  0.25990960166546145  0.7400905743786896  0.7400903612413643  1.0000
  N   N5        1.0  0.25990945604641896  0.7400905781564585  0.25990970504630856  1.0000
  N   N6        1.0  0.7400900317222162  0.25990943427886465  0.7400909023917323  1.0000
