data_image0
_chemical_formula_structural       Ru2FeN6
_chemical_formula_sum              "Ru2 Fe1 N6"
_cell_length_a       4.89008830068044
_cell_length_b       4.890087883058889
_cell_length_c       4.890080004801332
_cell_angle_alpha    60.00004811489637
_cell_angle_beta     60.0000412737519
_cell_angle_gamma    60.00004238603374

_space_group_name_H-M_alt    "P 1"
_space_group_IT_number       1

loop_
  _space_group_symop_operation_xyz
  'x, y, z'

loop_
  _atom_site_type_symbol
  _atom_site_label
  _atom_site_symmetry_multiplicity
  _atom_site_fract_x
  _atom_site_fract_y
  _atom_site_fract_z
  _atom_site_occupancy
  Ru  Ru1       1.0  0.2500000495385365  0.25000010285474117  0.2500004621579074  1.0000
  Ru  Ru2       1.0  0.7499998693678145  0.7499999278734374  0.7500006510208175  1.0000
  Fe  Fe1       1.0  9.061391082014595e-08  0.9999999123409639  0.999998280759249  1.0000
  N   N1        1.0  0.2786205818662925  0.2786206415488138  0.721380320591442  1.0000
  N   N2        1.0  0.7213794127204435  0.7213794242429955  0.2786214590848453  1.0000
  N   N3        1.0  0.7213820510299488  0.2786179541914245  0.2786187740088309  1.0000
  N   N4        1.0  0.27862037550790486  0.7213795619745501  0.7213806330515802  1.0000
  N   N5        1.0  0.2786181549980577  0.7213818247346073  0.27861906858293317  1.0000
  N   N6        1.0  0.7213793910887363  0.2786205853104061  0.7213804033373153  1.0000
