data_image0
_chemical_formula_structural       Ru2HfN6
_chemical_formula_sum              "Ru2 Hf1 N6"
_cell_length_a       5.051998220707372
_cell_length_b       5.051998265133539
_cell_length_c       5.0519982469890365
_cell_angle_alpha    60.00000100578047
_cell_angle_beta     60.000000416175524
_cell_angle_gamma    60.000000053596374

_space_group_name_H-M_alt    "P 1"
_space_group_IT_number       1

loop_
  _space_group_symop_operation_xyz
  'x, y, z'

loop_
  _atom_site_type_symbol
  _atom_site_label
  _atom_site_symmetry_multiplicity
  _atom_site_fract_x
  _atom_site_fract_y
  _atom_site_fract_z
  _atom_site_occupancy
  Ru  Ru1       1.0  0.25000021585244175  0.24999938206197833  0.2500002090765965  1.0000
  Ru  Ru2       1.0  0.7500006674381509  0.7499993413550202  0.74999972081321  1.0000
  Hf  Hf1       1.0  0.9999999704016517  3.3939893481101235e-08  3.5438108355201775e-08  1.0000
  N   N1        1.0  0.2929954527423593  0.2929954408633121  0.7070045491421357  1.0000
  N   N2        1.0  0.7070045254137404  0.7070047225748683  0.29299539240181594  1.0000
  N   N3        1.0  0.7070044610719028  0.29299545551942374  0.2929956307644563  1.0000
  N   N4        1.0  0.29299503294221557  0.7070049261037874  0.7070045486669532  1.0000
  N   N5        1.0  0.292995047960496  0.7070049422554774  0.29299559686617177  1.0000
  N   N6        1.0  0.7070046116528058  0.2929957448267693  0.7070043529743756  1.0000
