data_image0
_chemical_formula_structural       Ru2IrN6
_chemical_formula_sum              "Ru2 Ir1 N6"
_cell_length_a       4.976882093770841
_cell_length_b       4.976881313770044
_cell_length_c       4.976882923000311
_cell_angle_alpha    59.99998647826767
_cell_angle_beta     60.000007214804015
_cell_angle_gamma    60.00000541337498

_space_group_name_H-M_alt    "P 1"
_space_group_IT_number       1

loop_
  _space_group_symop_operation_xyz
  'x, y, z'

loop_
  _atom_site_type_symbol
  _atom_site_label
  _atom_site_symmetry_multiplicity
  _atom_site_fract_x
  _atom_site_fract_y
  _atom_site_fract_z
  _atom_site_occupancy
  Ru  Ru1       1.0  0.24999478379224707  0.25003106652159246  0.24999119018854635  1.0000
  Ru  Ru2       1.0  0.7499997976345185  0.7500190609830605  0.7499983114384989  1.0000
  Ir  Ir1       1.0  0.9999994317888165  2.219703213990773e-06  0.9999999297468405  1.0000
  N   N1        1.0  0.2898443574831248  0.28983969715789515  0.7101621931799232  1.0000
  N   N2        1.0  0.7101842271220068  0.7101488397365697  0.2898323054969561  1.0000
  N   N3        1.0  0.7101458871604085  0.28983771395577684  0.2898472814421737  1.0000
  N   N4        1.0  0.28981980634557725  0.7101492898073979  0.7101864397559544  1.0000
  N   N5        1.0  0.2898441635876705  0.7101450268142846  0.2898277823959781  1.0000
  N   N6        1.0  0.7101674837722669  0.28982701487851925  0.7101545730739227  1.0000
