data_image0
_chemical_formula_structural       Ru2MnN6
_chemical_formula_sum              "Ru2 Mn1 N6"
_cell_length_a       4.889704704954574
_cell_length_b       4.889714559497799
_cell_length_c       4.88969674567087
_cell_angle_alpha    59.999980120688484
_cell_angle_beta     60.00017894078748
_cell_angle_gamma    60.00024450952431

_space_group_name_H-M_alt    "P 1"
_space_group_IT_number       1

loop_
  _space_group_symop_operation_xyz
  'x, y, z'

loop_
  _atom_site_type_symbol
  _atom_site_label
  _atom_site_symmetry_multiplicity
  _atom_site_fract_x
  _atom_site_fract_y
  _atom_site_fract_z
  _atom_site_occupancy
  Ru  Ru1       1.0  0.24999952712587656  0.2499995483125833  0.2500003489516178  1.0000
  Ru  Ru2       1.0  0.7500004613336978  0.7500004508558767  0.7499993695720623  1.0000
  Mn  Mn1       1.0  1.793435495300518e-06  0.9999986224029457  0.9999980210129588  1.0000
  N   N1        1.0  0.26418787855944303  0.26418742869269657  0.7358122369615523  1.0000
  N   N2        1.0  0.7358124403275907  0.7358119192448057  0.264187840341191  1.0000
  N   N3        1.0  0.7358097488779932  0.2641902154971979  0.26419036655722405  1.0000
  N   N4        1.0  0.26418800451462005  0.7358119477520135  0.7358122894756108  1.0000
  N   N5        1.0  0.2641881843362271  0.7358117363603346  0.2641878099288161  1.0000
  N   N6        1.0  0.7358119586956984  0.26418808246792974  0.7358117108321135  1.0000
