data_image0
_chemical_formula_structural       Ru2MoN6
_chemical_formula_sum              "Ru2 Mo1 N6"
_cell_length_a       4.928317470672462
_cell_length_b       4.928317237722631
_cell_length_c       4.928318442542269
_cell_angle_alpha    60.000001575022694
_cell_angle_beta     60.00000676614111
_cell_angle_gamma    59.99999050877707

_space_group_name_H-M_alt    "P 1"
_space_group_IT_number       1

loop_
  _space_group_symop_operation_xyz
  'x, y, z'

loop_
  _atom_site_type_symbol
  _atom_site_label
  _atom_site_symmetry_multiplicity
  _atom_site_fract_x
  _atom_site_fract_y
  _atom_site_fract_z
  _atom_site_occupancy
  Ru  Ru1       1.0  0.24999562139509798  0.250005485037106  0.2500056420897331  1.0000
  Ru  Ru2       1.0  0.7499898635027648  0.749991367846208  0.7500279682123985  1.0000
  Mo  Mo1       1.0  9.27276041719143e-07  2.3360087283314734e-07  0.999997836871717  1.0000
  N   N1        1.0  0.2875602516781209  0.28756354612105034  0.7124358230979558  1.0000
  N   N2        1.0  0.7124402025338054  0.7124405608174111  0.28755179344123377  1.0000
  N   N3        1.0  0.7124439471398631  0.28756616378825345  0.28755100881642637  1.0000
  N   N4        1.0  0.28756510037965044  0.7124340514549367  0.7124397334301803  1.0000
  N   N5        1.0  0.2875670087572428  0.712436541192758  0.2875518934766707  1.0000
  N   N6        1.0  0.7124370459458386  0.28756207114978893  0.7124383055611259  1.0000
