data_image0
_chemical_formula_structural       Ru2NiN6
_chemical_formula_sum              "Ru2 Ni1 N6"
_cell_length_a       4.931879085143472
_cell_length_b       4.931878881468475
_cell_length_c       4.931879287101016
_cell_angle_alpha    60.00000004544352
_cell_angle_beta     60.00000121204967
_cell_angle_gamma    59.999999652962714

_space_group_name_H-M_alt    "P 1"
_space_group_IT_number       1

loop_
  _space_group_symop_operation_xyz
  'x, y, z'

loop_
  _atom_site_type_symbol
  _atom_site_label
  _atom_site_symmetry_multiplicity
  _atom_site_fract_x
  _atom_site_fract_y
  _atom_site_fract_z
  _atom_site_occupancy
  Ru  Ru1       1.0  0.2499999121312645  0.250000193600829  0.25000012883779527  1.0000
  Ru  Ru2       1.0  0.7499994415850175  0.7500002430705385  0.7500004412201557  1.0000
  Ni  Ni1       1.0  0.9999999994562732  0.9999999875833844  4.45254631379881e-09  1.0000
  N   N1        1.0  0.2734351942016788  0.2734348726503478  0.7265648808559563  1.0000
  N   N2        1.0  0.7265650073371869  0.7265648537905984  0.2734349796765267  1.0000
  N   N3        1.0  0.7265647929249216  0.2734351613469541  0.27343490146613053  1.0000
  N   N4        1.0  0.2734351981281326  0.72656488047603  0.7265650749110876  1.0000
  N   N5        1.0  0.27343544528352015  0.7265648905282206  0.27343466474406214  1.0000
  N   N6        1.0  0.726565035105276  0.27343490544577065  0.7265649181880827  1.0000
