data_image0
_chemical_formula_structural       Ru2OsN6
_chemical_formula_sum              "Ru2 Os1 N6"
_cell_length_a       5.054648854796149
_cell_length_b       5.054648956210825
_cell_length_c       5.054648962986935
_cell_angle_alpha    59.99999953766986
_cell_angle_beta     60.00000034237162
_cell_angle_gamma    59.99999917002804

_space_group_name_H-M_alt    "P 1"
_space_group_IT_number       1

loop_
  _space_group_symop_operation_xyz
  'x, y, z'

loop_
  _atom_site_type_symbol
  _atom_site_label
  _atom_site_symmetry_multiplicity
  _atom_site_fract_x
  _atom_site_fract_y
  _atom_site_fract_z
  _atom_site_occupancy
  Ru  Ru1       1.0  0.24999968776047776  0.2500003464803759  0.24999998575738472  1.0000
  Ru  Ru2       1.0  0.7499996651408344  0.7500001453516121  0.7500000104035117  1.0000
  Os  Os1       1.0  4.841258489621661e-08  0.9999999370018233  0.9999999261793496  1.0000
  N   N1        1.0  0.26568530097227117  0.26568489869306117  0.7343149067814092  1.0000
  N   N2        1.0  0.7343149090627604  0.7343150091942767  0.2656851130334782  1.0000
  N   N3        1.0  0.7343151598613191  0.26568503844353203  0.26568502429800084  1.0000
  N   N4        1.0  0.2656850853864488  0.7343148597517769  0.7343151370699199  1.0000
  N   N5        1.0  0.26568509875089663  0.7343147499511191  0.2656849921043958  1.0000
  N   N6        1.0  0.7343150327385025  0.2656850440549022  0.7343148746484951  1.0000
