data_image0
_chemical_formula_structural       Ru2PN6
_chemical_formula_sum              "Ru2 P1 N6"
_cell_length_a       5.004939295302171
_cell_length_b       5.004939328081391
_cell_length_c       5.004939290458451
_cell_angle_alpha    60.00000103267754
_cell_angle_beta     60.00000068985654
_cell_angle_gamma    60.00000096636244

_space_group_name_H-M_alt    "P 1"
_space_group_IT_number       1

loop_
  _space_group_symop_operation_xyz
  'x, y, z'

loop_
  _atom_site_type_symbol
  _atom_site_label
  _atom_site_symmetry_multiplicity
  _atom_site_fract_x
  _atom_site_fract_y
  _atom_site_fract_z
  _atom_site_occupancy
  Ru  Ru1       1.0  0.24999985395295757  0.25000054340678673  0.2499999788258281  1.0000
  Ru  Ru2       1.0  0.7500000808021619  0.750000024940906  0.7499997463699318  1.0000
  P   P1        1.0  3.6826141430042044e-09  0.9999999681880596  4.074531785310397e-09  1.0000
  N   N1        1.0  0.24644868056765906  0.24644861376531194  0.7535513094728151  1.0000
  N   N2        1.0  0.7535514389095214  0.7535512204606817  0.2464487423714427  1.0000
  N   N3        1.0  0.7535512764003814  0.24644857673935078  0.24644873329323627  1.0000
  N   N4        1.0  0.24644864210130052  0.7535512305688469  0.7535514724581922  1.0000
  N   N5        1.0  0.24644866515637134  0.7535510682627078  0.2464486937357851  1.0000
  N   N6        1.0  0.7535514095538618  0.24644873415134477  0.7535512905025258  1.0000
