data_image0
_chemical_formula_structural       Ru2PdN6
_chemical_formula_sum              "Ru2 Pd1 N6"
_cell_length_a       4.9940090448340815
_cell_length_b       4.994009684464335
_cell_length_c       4.994007271898466
_cell_angle_alpha    59.99998652233327
_cell_angle_beta     59.999991298485185
_cell_angle_gamma    59.99999053349978

_space_group_name_H-M_alt    "P 1"
_space_group_IT_number       1

loop_
  _space_group_symop_operation_xyz
  'x, y, z'

loop_
  _atom_site_type_symbol
  _atom_site_label
  _atom_site_symmetry_multiplicity
  _atom_site_fract_x
  _atom_site_fract_y
  _atom_site_fract_z
  _atom_site_occupancy
  Ru  Ru1       1.0  0.25000220350557356  0.2500034826035272  0.2500013626218858  1.0000
  Ru  Ru2       1.0  0.7500229488054878  0.7499806262809405  0.7500168226733124  1.0000
  Pd  Pd1       1.0  8.952071027577702e-07  1.9619256327697116e-08  6.921786927478979e-08  1.0000
  N   N1        1.0  0.2841926839055464  0.2842155755188747  0.7157964955990374  1.0000
  N   N2        1.0  0.7158023703349964  0.7157958509730172  0.2841917924267814  1.0000
  N   N3        1.0  0.7157936127799809  0.2842156142989199  0.28418947518371573  1.0000
  N   N4        1.0  0.2841876386816562  0.7157959274593296  0.715799038668591  1.0000
  N   N5        1.0  0.2841990649091531  0.7157925263650976  0.28420736660186274  1.0000
  N   N6        1.0  0.7157985057759692  0.2842005436990532  0.7157974957918951  1.0000
