data_image0
_chemical_formula_structural       Ru2PtN6
_chemical_formula_sum              "Ru2 Pt1 N6"
_cell_length_a       4.9901253500955205
_cell_length_b       4.99012527470596
_cell_length_c       4.990125433069617
_cell_angle_alpha    60.00000021368734
_cell_angle_beta     60.00000053072343
_cell_angle_gamma    60.000001155098744

_space_group_name_H-M_alt    "P 1"
_space_group_IT_number       1

loop_
  _space_group_symop_operation_xyz
  'x, y, z'

loop_
  _atom_site_type_symbol
  _atom_site_label
  _atom_site_symmetry_multiplicity
  _atom_site_fract_x
  _atom_site_fract_y
  _atom_site_fract_z
  _atom_site_occupancy
  Ru  Ru1       1.0  0.25000006011366693  0.25000005007073733  0.24999999411843882  1.0000
  Ru  Ru2       1.0  0.7500001224676411  0.7500001919359358  0.7499996918404455  1.0000
  Pt  Pt1       1.0  0.9999999662248311  3.190638011715978e-08  7.107291188595075e-08  1.0000
  N   N1        1.0  0.2874665520863819  0.2874664413210949  0.7125334556711673  1.0000
  N   N2        1.0  0.7125335493937895  0.7125335233455071  0.28746651772203013  1.0000
  N   N3        1.0  0.7125335125763326  0.2874663468004812  0.28746665515900877  1.0000
  N   N4        1.0  0.2874664235371381  0.7125335933227497  0.7125334452525456  1.0000
  N   N5        1.0  0.2874662874358065  0.7125334809795524  0.2874666631515318  1.0000
  N   N6        1.0  0.7125335320928847  0.28746634378984165  0.7125335131501759  1.0000
