data_image0
_chemical_formula_structural       Ru2RhN6
_chemical_formula_sum              "Ru2 Rh1 N6"
_cell_length_a       6.853540002589681
_cell_length_b       5.911182665902177
_cell_length_c       5.126843990689074
_cell_angle_alpha    58.45456515211011
_cell_angle_beta     50.14012105748699
_cell_angle_gamma    51.941147964307106

_space_group_name_H-M_alt    "P 1"
_space_group_IT_number       1

loop_
  _space_group_symop_operation_xyz
  'x, y, z'

loop_
  _atom_site_type_symbol
  _atom_site_label
  _atom_site_symmetry_multiplicity
  _atom_site_fract_x
  _atom_site_fract_y
  _atom_site_fract_z
  _atom_site_occupancy
  Ru  Ru1       1.0  0.3760885539690917  0.21736259190673685  0.16955420259163276  1.0000
  Ru  Ru2       1.0  0.8089628815447453  0.5069673023786121  0.9333959820063924  1.0000
  Rh  Rh1       1.0  0.02466990992794076  0.9505423446064994  0.056424813366737395  1.0000
  N   N1        1.0  0.1322907055377398  0.6256545935828597  0.6868853301385636  1.0000
  N   N2        1.0  0.447818083884498  0.8255586252362177  0.19933095077992613  1.0000
  N   N3        1.0  0.653780092591866  0.2550682724219571  0.10177409566664807  1.0000
  N   N4        1.0  0.21600447474536616  0.591104431219273  0.8775032994760329  1.0000
  N   N5        1.0  0.22670019154024934  0.7842131246101731  0.349060348554483  1.0000
  N   N6        1.0  0.11375399980487733  0.2430907445842223  0.6266809486891587  1.0000
