data_image0
_chemical_formula_structural       Ru2ReN6
_chemical_formula_sum              "Ru2 Re1 N6"
_cell_length_a       5.876575521369931
_cell_length_b       5.192765617030701
_cell_length_c       6.664216271556315
_cell_angle_alpha    73.67816128838145
_cell_angle_beta     74.62529566366145
_cell_angle_gamma    61.66259188266873

_space_group_name_H-M_alt    "P 1"
_space_group_IT_number       1

loop_
  _space_group_symop_operation_xyz
  'x, y, z'

loop_
  _atom_site_type_symbol
  _atom_site_label
  _atom_site_symmetry_multiplicity
  _atom_site_fract_x
  _atom_site_fract_y
  _atom_site_fract_z
  _atom_site_occupancy
  Ru  Ru1       1.0  0.3604906411663742  0.2501154880110635  0.8756903860102754  1.0000
  Ru  Ru2       1.0  0.6394685152527432  0.7498715123732631  0.12433041332854411  1.0000
  Re  Re1       1.0  9.086713563173525e-05  0.00017734778603634534  0.9999028795204011  1.0000
  N   N1        1.0  0.16207908032694324  0.19266245063903825  0.7402693024758494  1.0000
  N   N2        1.0  0.8377853940418004  0.8071976330635249  0.2595136533713063  1.0000
  N   N3        1.0  0.7690445274331734  0.3897097662460379  0.07847994036645216  1.0000
  N   N4        1.0  0.23111541985718428  0.6100047574701151  0.9216695682821221  1.0000
  N   N5        1.0  0.26623586573330876  0.9979179404551812  0.148563719454676  1.0000
  N   N6        1.0  0.7336861020681669  0.002335328807151273  0.8515831901147278  1.0000
