data_image0
_chemical_formula_structural       Ru2SN6
_chemical_formula_sum              "Ru2 S1 N6"
_cell_length_a       5.080978168300661
_cell_length_b       5.080978061445048
_cell_length_c       5.080978085691876
_cell_angle_alpha    60.000000330427106
_cell_angle_beta     60.000000485543744
_cell_angle_gamma    59.99999775161215

_space_group_name_H-M_alt    "P 1"
_space_group_IT_number       1

loop_
  _space_group_symop_operation_xyz
  'x, y, z'

loop_
  _atom_site_type_symbol
  _atom_site_label
  _atom_site_symmetry_multiplicity
  _atom_site_fract_x
  _atom_site_fract_y
  _atom_site_fract_z
  _atom_site_occupancy
  Ru  Ru1       1.0  0.2500001836167812  0.2499997977165427  0.25000020247324783  1.0000
  Ru  Ru2       1.0  0.7500009435794412  0.7500003693822851  0.7499997064451195  1.0000
  S   S1        1.0  0.999999829441174  0.9999999662536915  4.11148192328639e-07  1.0000
  N   N1        1.0  0.24331064215245976  0.24331101607514138  0.756689109555828  1.0000
  N   N2        1.0  0.75668902766435  0.7566893438598001  0.24331067784231486  1.0000
  N   N3        1.0  0.7566891320716359  0.24331075142342637  0.24331078294902633  1.0000
  N   N4        1.0  0.24331039370537844  0.7566892565856667  0.7566890182250623  1.0000
  N   N5        1.0  0.24331053328987592  0.7566890704482446  0.24331095444669518  1.0000
  N   N6        1.0  0.7566892763175824  0.24331043377657657  0.7566890314930553  1.0000
