data_image0
_chemical_formula_structural       Ru2SiN6
_chemical_formula_sum              "Ru2 Si1 N6"
_cell_length_a       4.8807600443902
_cell_length_b       4.880760089496993
_cell_length_c       4.8807601562169936
_cell_angle_alpha    59.999999552464004
_cell_angle_beta     60.00000084274165
_cell_angle_gamma    60.00000043625818

_space_group_name_H-M_alt    "P 1"
_space_group_IT_number       1

loop_
  _space_group_symop_operation_xyz
  'x, y, z'

loop_
  _atom_site_type_symbol
  _atom_site_label
  _atom_site_symmetry_multiplicity
  _atom_site_fract_x
  _atom_site_fract_y
  _atom_site_fract_z
  _atom_site_occupancy
  Ru  Ru1       1.0  0.2499999819899851  0.249999602126537  0.25000006999091123  1.0000
  Ru  Ru2       1.0  0.750000075945897  0.7500002617923199  0.7500000319367631  1.0000
  Si  Si1       1.0  1.0730260754568342e-08  0.9999999749066778  0.9999999436668343  1.0000
  N   N1        1.0  0.2658543828902137  0.2658544738258484  0.7341456473525952  1.0000
  N   N2        1.0  0.7341454640528294  0.7341456611008923  0.2658543692483025  1.0000
  N   N3        1.0  0.7341456754933664  0.2658542463178735  0.265854556372822  1.0000
  N   N4        1.0  0.26585432977116075  0.7341457330302675  0.7341454752475247  1.0000
  N   N5        1.0  0.26585443252490637  0.7341456505206587  0.2658543492244566  1.0000
  N   N6        1.0  0.7341455764420624  0.26585442418210836  0.7341456103298836  1.0000
