data_image0
_chemical_formula_structural       Ru2TaN6
_chemical_formula_sum              "Ru2 Ta1 N6"
_cell_length_a       4.935279330660633
_cell_length_b       4.935280765867712
_cell_length_c       4.935280578626425
_cell_angle_alpha    60.000000997223005
_cell_angle_beta     59.99999055769416
_cell_angle_gamma    59.99999750837234

_space_group_name_H-M_alt    "P 1"
_space_group_IT_number       1

loop_
  _space_group_symop_operation_xyz
  'x, y, z'

loop_
  _atom_site_type_symbol
  _atom_site_label
  _atom_site_symmetry_multiplicity
  _atom_site_fract_x
  _atom_site_fract_y
  _atom_site_fract_z
  _atom_site_occupancy
  Ru  Ru1       1.0  0.24999986882537784  0.2500003094838683  0.24999992872382135  1.0000
  Ru  Ru2       1.0  0.7500000845916852  0.7499999854392957  0.7499999821477501  1.0000
  Ta  Ta1       1.0  5.842328058636708e-08  0.9999998808826559  6.276666753421958e-08  1.0000
  N   N1        1.0  0.2918330294942433  0.2918323539670222  0.7081673522057487  1.0000
  N   N2        1.0  0.7081675762862317  0.7081669805725419  0.29183268633495896  1.0000
  N   N3        1.0  0.7081671858403406  0.2918327908841271  0.29183256228466753  1.0000
  N   N4        1.0  0.2918325156002042  0.7081674668148854  0.7081670575483818  1.0000
  N   N5        1.0  0.29183248707459797  0.7081675308582758  0.29183288669218704  1.0000
  N   N6        1.0  0.70816727394481  0.2918327516568461  0.7081674001229136  1.0000
