data_image0
_chemical_formula_structural       Ru2TiN6
_chemical_formula_sum              "Ru2 Ti1 N6"
_cell_length_a       4.986210086513216
_cell_length_b       4.98620996546864
_cell_length_c       4.9862101371505645
_cell_angle_alpha    59.999999865197175
_cell_angle_beta     59.99999979043363
_cell_angle_gamma    59.9999998057712

_space_group_name_H-M_alt    "P 1"
_space_group_IT_number       1

loop_
  _space_group_symop_operation_xyz
  'x, y, z'

loop_
  _atom_site_type_symbol
  _atom_site_label
  _atom_site_symmetry_multiplicity
  _atom_site_fract_x
  _atom_site_fract_y
  _atom_site_fract_z
  _atom_site_occupancy
  Ru  Ru1       1.0  0.24999998010895652  0.25000003974459273  0.2500000185668971  1.0000
  Ru  Ru2       1.0  0.7500002092433654  0.7499998613260391  0.7499996210126342  1.0000
  Ti  Ti1       1.0  9.684580440497432e-09  0.9999999778936223  0.999999962089212  1.0000
  N   N1        1.0  0.27299121426013134  0.27299124997495133  0.7270087206481164  1.0000
  N   N2        1.0  0.7270087249147814  0.7270087763651562  0.2729914566962768  1.0000
  N   N3        1.0  0.7270087489895517  0.2729912810241838  0.27299124845298234  1.0000
  N   N4        1.0  0.27299121498075035  0.7270087404033945  0.7270088226844832  1.0000
  N   N5        1.0  0.2729910799594164  0.7270087477331724  0.2729913786974097  1.0000
  N   N6        1.0  0.727008794887133  0.27299133264474573  0.7270087656871674  1.0000
