data_image0
_chemical_formula_structural       Ru2VN6
_chemical_formula_sum              "Ru2 V1 N6"
_cell_length_a       4.9614223512234625
_cell_length_b       4.961422629475552
_cell_length_c       4.961422202312363
_cell_angle_alpha    60.000000835604325
_cell_angle_beta     60.00000064385464
_cell_angle_gamma    59.99999979779594

_space_group_name_H-M_alt    "P 1"
_space_group_IT_number       1

loop_
  _space_group_symop_operation_xyz
  'x, y, z'

loop_
  _atom_site_type_symbol
  _atom_site_label
  _atom_site_symmetry_multiplicity
  _atom_site_fract_x
  _atom_site_fract_y
  _atom_site_fract_z
  _atom_site_occupancy
  Ru  Ru1       1.0  0.2499995168969093  0.25000033931203147  0.2499999382055534  1.0000
  Ru  Ru2       1.0  0.7499997419837836  0.7500001391373639  0.7500005653675049  1.0000
  V   V1        1.0  0.9999999658882551  3.949656962086651e-08  5.777412022709319e-08  1.0000
  N   N1        1.0  0.2691888319317183  0.2691884384256413  0.7308113414111737  1.0000
  N   N2        1.0  0.730811556625519  0.730811178504807  0.2691884052778048  1.0000
  N   N3        1.0  0.730811596165811  0.2691887630418414  0.2691883382258706  1.0000
  N   N4        1.0  0.2691885995674352  0.7308112019521329  0.7308114759630149  1.0000
  N   N5        1.0  0.2691886638680087  0.7308114537911895  0.26918860637863035  1.0000
  N   N6        1.0  0.7308115183488463  0.2691884470208575  0.730811293017091  1.0000
