data_image0
_chemical_formula_structural       Ru2WN6
_chemical_formula_sum              "Ru2 W1 N6"
_cell_length_a       4.978098060105832
_cell_length_b       4.978098350146106
_cell_length_c       4.978097826879864
_cell_angle_alpha    59.99999974860764
_cell_angle_beta     59.99999934233275
_cell_angle_gamma    60.0000001898601

_space_group_name_H-M_alt    "P 1"
_space_group_IT_number       1

loop_
  _space_group_symop_operation_xyz
  'x, y, z'

loop_
  _atom_site_type_symbol
  _atom_site_label
  _atom_site_symmetry_multiplicity
  _atom_site_fract_x
  _atom_site_fract_y
  _atom_site_fract_z
  _atom_site_occupancy
  Ru  Ru1       1.0  0.25000034730837234  0.25000069649315426  0.2499990985825952  1.0000
  Ru  Ru2       1.0  0.7500003826198586  0.7499999687296627  0.7500007267155907  1.0000
  W   W1        1.0  2.37584362095551e-08  0.9999999704768014  1.0917579281789965e-08  1.0000
  N   N1        1.0  0.27416542616045253  0.2741653604972644  0.7258345226817365  1.0000
  N   N2        1.0  0.7258345541638073  0.7258345543443061  0.27416499196300076  1.0000
  N   N3        1.0  0.7258347069508939  0.274165525319012  0.27416526495742394  1.0000
  N   N4        1.0  0.2741650269170008  0.7258342173038883  0.7258349290839032  1.0000
  N   N5        1.0  0.27416539082120744  0.7258345057168051  0.27416540754326885  1.0000
  N   N6        1.0  0.7258341565450985  0.27416520492262764  0.7258350142597557  1.0000
