data_image0
_chemical_formula_structural       Ru2ZrN6
_chemical_formula_sum              "Ru2 Zr1 N6"
_cell_length_a       5.156615484363519
_cell_length_b       5.156615403150535
_cell_length_c       5.156615488506318
_cell_angle_alpha    59.99999963966698
_cell_angle_beta     59.99999996901504
_cell_angle_gamma    59.99999933550472

_space_group_name_H-M_alt    "P 1"
_space_group_IT_number       1

loop_
  _space_group_symop_operation_xyz
  'x, y, z'

loop_
  _atom_site_type_symbol
  _atom_site_label
  _atom_site_symmetry_multiplicity
  _atom_site_fract_x
  _atom_site_fract_y
  _atom_site_fract_z
  _atom_site_occupancy
  Ru  Ru1       1.0  0.2500000569863892  0.2499999828129778  0.2500000571911873  1.0000
  Ru  Ru2       1.0  0.7500000287098615  0.7499999318132722  0.7500001346556567  1.0000
  Zr  Zr1       1.0  0.9999999985990493  0.999999916871693  0.9999999899047037  1.0000
  N   N1        1.0  0.29189379311480684  0.2918939951124701  0.708106118214854  1.0000
  N   N2        1.0  0.7081060673862759  0.7081060643945434  0.29189385198956774  1.0000
  N   N3        1.0  0.7081061755309463  0.29189392713290185  0.2918938025165693  1.0000
  N   N4        1.0  0.29189400762940043  0.7081060041190087  0.708106128663466  1.0000
  N   N5        1.0  0.2918938432095286  0.7081061481094573  0.2918938374599681  1.0000
  N   N6        1.0  0.7081060180133348  0.2918940301522803  0.7081060633099191  1.0000
