data_image0
_chemical_formula_structural       S2BeO6
_chemical_formula_sum              "S2 Be1 O6"
_cell_length_a       4.964595162290868
_cell_length_b       4.964595328846745
_cell_length_c       4.964595107541862
_cell_angle_alpha    60.000000244920024
_cell_angle_beta     60.00000065188088
_cell_angle_gamma    59.99999919712636

_space_group_name_H-M_alt    "P 1"
_space_group_IT_number       1

loop_
  _space_group_symop_operation_xyz
  'x, y, z'

loop_
  _atom_site_type_symbol
  _atom_site_label
  _atom_site_symmetry_multiplicity
  _atom_site_fract_x
  _atom_site_fract_y
  _atom_site_fract_z
  _atom_site_occupancy
  S   S1        1.0  0.25000000447537896  0.2500000723373941  0.2499999650959478  1.0000
  S   S2        1.0  0.7500000418808813  0.7499999851181197  0.7499999728363492  1.0000
  Be  Be1       1.0  5.4014411157277e-10  1.233479014963939e-08  1.9747951140310515e-08  1.0000
  O   O1        1.0  0.2371762054771141  0.2371762197935445  0.7628237861702662  1.0000
  O   O2        1.0  0.7628237815352156  0.7628237784549753  0.237176233194386  1.0000
  O   O3        1.0  0.7628237826918658  0.23717622167535074  0.23717620010413387  1.0000
  O   O4        1.0  0.23717620255894398  0.7628237469696724  0.7628237966720308  1.0000
  O   O5        1.0  0.23717620578246473  0.7628237746029642  0.2371762241980075  1.0000
  O   O6        1.0  0.7628237715273266  0.23717620390989128  0.7628237837003279  1.0000
