data_image0
_chemical_formula_structural       S2CN6
_chemical_formula_sum              "S2 C1 N6"
_cell_length_a       4.8263180691558105
_cell_length_b       4.826318007848152
_cell_length_c       4.826318282051633
_cell_angle_alpha    60.000000912331814
_cell_angle_beta     59.9999986859966
_cell_angle_gamma    59.99999391350569

_space_group_name_H-M_alt    "P 1"
_space_group_IT_number       1

loop_
  _space_group_symop_operation_xyz
  'x, y, z'

loop_
  _atom_site_type_symbol
  _atom_site_label
  _atom_site_symmetry_multiplicity
  _atom_site_fract_x
  _atom_site_fract_y
  _atom_site_fract_z
  _atom_site_occupancy
  S   S1        1.0  0.2500012091249889  0.25000053481554546  0.24999898418410427  1.0000
  S   S2        1.0  0.7499978708970408  0.7500005640153832  0.7500004691093213  1.0000
  C   C1        1.0  8.327749493078512e-08  6.597858452378226e-08  0.9999998445650242  1.0000
  N   N1        1.0  0.23675536090594482  0.23675397083930066  0.7632453451731424  1.0000
  N   N2        1.0  0.7632451091229736  0.7632452476016566  0.2367550018392597  1.0000
  N   N3        1.0  0.7632445492411971  0.23675500973588234  0.23675477964898112  1.0000
  N   N4        1.0  0.23675568232439087  0.7632447948995157  0.7632455053844068  1.0000
  N   N5        1.0  0.2367555382410133  0.7632448013648563  0.23675428797849407  1.0000
  N   N6        1.0  0.7632446792348849  0.2367550311845553  0.7632457477219197  1.0000
