data_image0
_chemical_formula_structural       S2CO6
_chemical_formula_sum              "S2 C1 O6"
_cell_length_a       3.148550491059558
_cell_length_b       2.366719616777404
_cell_length_c       2.734104256454746
_cell_angle_alpha    92.47585954995127
_cell_angle_beta     72.85424039389476
_cell_angle_gamma    78.83609501469712

_space_group_name_H-M_alt    "P 1"
_space_group_IT_number       1

loop_
  _space_group_symop_operation_xyz
  'x, y, z'

loop_
  _atom_site_type_symbol
  _atom_site_label
  _atom_site_symmetry_multiplicity
  _atom_site_fract_x
  _atom_site_fract_y
  _atom_site_fract_z
  _atom_site_occupancy
  S   S1        1.0  0.13961614547522436  0.247155029138001  0.19541659731545957  1.0000
  S   S2        1.0  0.6837765378594948  0.8727120257638692  0.6257235371490718  1.0000
  C   C1        1.0  0.11246793477714637  0.22577743558063124  0.13082763239087575  1.0000
  O   O1        1.0  0.14094193159857252  0.24800370414031747  0.2070601763526223  1.0000
  O   O2        1.0  0.4518416945316573  0.9981455144690369  0.06286816623263682  1.0000
  O   O3        1.0  0.28805066026748083  0.28994051778467056  0.8054894997132703  1.0000
  O   O4        1.0  0.7971204353435077  0.9106076222652446  0.7421847085010731  1.0000
  O   O5        1.0  0.21822772864417514  0.6287399408256837  0.5043565006979639  1.0000
  O   O6        1.0  0.13677306830815092  0.26188374806392667  0.17610128341618148  1.0000
