data_image0
_chemical_formula_structural       S2PN6
_chemical_formula_sum              "S2 P1 N6"
_cell_length_a       4.257175203805806
_cell_length_b       4.257176065186688
_cell_length_c       4.257173852428288
_cell_angle_alpha    60.00004247498771
_cell_angle_beta     60.00002538223575
_cell_angle_gamma    60.000062845995906

_space_group_name_H-M_alt    "P 1"
_space_group_IT_number       1

loop_
  _space_group_symop_operation_xyz
  'x, y, z'

loop_
  _atom_site_type_symbol
  _atom_site_label
  _atom_site_symmetry_multiplicity
  _atom_site_fract_x
  _atom_site_fract_y
  _atom_site_fract_z
  _atom_site_occupancy
  S   S1        1.0  0.25000451148752256  0.2500087963400282  0.24998619975827538  1.0000
  S   S2        1.0  0.7500037708712322  0.7500093146574915  0.7499847966778833  1.0000
  P   P1        1.0  0.9999987840674056  0.9999983342787251  3.2565850715864865e-06  1.0000
  N   N1        1.0  0.2746908552614451  0.27469097687206123  0.7253088214401305  1.0000
  N   N2        1.0  0.725304720804942  0.7253038830734942  0.2747002749923341  1.0000
  N   N3        1.0  0.7253027135134562  0.2746885556391768  0.2747012406326499  1.0000
  N   N4        1.0  0.27469395981875067  0.725308456223309  0.7253075959641384  1.0000
  N   N5        1.0  0.2746944863834558  0.7253020031172764  0.27469734809924357  1.0000
  N   N6        1.0  0.7253054796575139  0.27469103000277156  0.7253106758177086  1.0000
