data_image0
_chemical_formula_structural       Sc2AgSe6
_chemical_formula_sum              "Sc2 Ag1 Se6"
_cell_length_a       6.585372168310988
_cell_length_b       6.5853719843688
_cell_length_c       6.585372401796627
_cell_angle_alpha    59.99999861472172
_cell_angle_beta     59.99999942319213
_cell_angle_gamma    59.99999799036661

_space_group_name_H-M_alt    "P 1"
_space_group_IT_number       1

loop_
  _space_group_symop_operation_xyz
  'x, y, z'

loop_
  _atom_site_type_symbol
  _atom_site_label
  _atom_site_symmetry_multiplicity
  _atom_site_fract_x
  _atom_site_fract_y
  _atom_site_fract_z
  _atom_site_occupancy
  Sc  Sc1       1.0  0.24999999612530488  0.2500001274712137  0.24999996786916723  1.0000
  Sc  Sc2       1.0  0.7499998143549343  0.7499996998684821  0.7500002255943762  1.0000
  Ag  Ag1       1.0  6.06620908878271e-08  0.9999999758226502  0.9999999346836024  1.0000
  Se  Se1       1.0  0.2697578993757835  0.26975797138853586  0.7302420973811401  1.0000
  Se  Se2       1.0  0.73024211170067  0.7302420642483192  0.26975797211712016  1.0000
  Se  Se3       1.0  0.7302420348809956  0.2697580200225679  0.26975782251159003  1.0000
  Se  Se4       1.0  0.2697579513799258  0.7302421216226629  0.7302420742792687  1.0000
  Se  Se5       1.0  0.26975801195865823  0.7302420315349772  0.2697578377296457  1.0000
  Se  Se6       1.0  0.7302421118692921  0.269757976204935  0.7302420830451472  1.0000
