data_image0
_chemical_formula_structural       Sc2AgTe6
_chemical_formula_sum              "Sc2 Ag1 Te6"
_cell_length_a       7.123669238487959
_cell_length_b       7.123669037777422
_cell_length_c       7.123669074642754
_cell_angle_alpha    60.00000046976054
_cell_angle_beta     60.0000000249453
_cell_angle_gamma    59.999998987106814

_space_group_name_H-M_alt    "P 1"
_space_group_IT_number       1

loop_
  _space_group_symop_operation_xyz
  'x, y, z'

loop_
  _atom_site_type_symbol
  _atom_site_label
  _atom_site_symmetry_multiplicity
  _atom_site_fract_x
  _atom_site_fract_y
  _atom_site_fract_z
  _atom_site_occupancy
  Sc  Sc1       1.0  0.2500001296135871  0.24999994580082363  0.24999996810451267  1.0000
  Sc  Sc2       1.0  0.749999931357735  0.7499999990130403  0.750000043827144  1.0000
  Ag  Ag1       1.0  2.9831374321542704e-08  2.2350397096621246e-08  0.9999999767166562  1.0000
  Te  Te1       1.0  0.26718861424600515  0.26718857016096115  0.7328114027417518  1.0000
  Te  Te2       1.0  0.7328113876019146  0.7328113866877323  0.2671886088700849  1.0000
  Te  Te3       1.0  0.7328113867966776  0.2671885929010148  0.26718858712209687  1.0000
  Te  Te4       1.0  0.26718857247988315  0.7328114430337006  0.7328114329040576  1.0000
  Te  Te5       1.0  0.26718861908005775  0.7328114108475372  0.2671885373729836  1.0000
  Te  Te6       1.0  0.7328113277037835  0.26718862852570063  0.73281144506714  1.0000
