data_image0
_chemical_formula_structural       Sc2AgS6
_chemical_formula_sum              "Sc2 Ag1 S6"
_cell_length_a       6.279926955715742
_cell_length_b       6.279926824683103
_cell_length_c       6.279926871642521
_cell_angle_alpha    60.00000073148237
_cell_angle_beta     60.00000015934563
_cell_angle_gamma    60.000000917885686

_space_group_name_H-M_alt    "P 1"
_space_group_IT_number       1

loop_
  _space_group_symop_operation_xyz
  'x, y, z'

loop_
  _atom_site_type_symbol
  _atom_site_label
  _atom_site_symmetry_multiplicity
  _atom_site_fract_x
  _atom_site_fract_y
  _atom_site_fract_z
  _atom_site_occupancy
  Sc  Sc1       1.0  0.2500000177056914  0.25000025692517663  0.24999978822970698  1.0000
  Sc  Sc2       1.0  0.7500000440897125  0.7499997332407273  0.7500001602663597  1.0000
  Ag  Ag1       1.0  0.9999999844362466  0.9999999804974656  0.9999999952398906  1.0000
  S   S1        1.0  0.26468311107618164  0.2646832041433063  0.7353168705899816  1.0000
  S   S2        1.0  0.735316852859373  0.7353167431170226  0.2646831896905532  1.0000
  S   S3        1.0  0.7353168387631466  0.26468323322893905  0.26468308222409564  1.0000
  S   S4        1.0  0.26468316083137  0.7353167725389916  0.735316889571402  1.0000
  S   S5        1.0  0.26468323922992043  0.7353168116682783  0.2646831402551323  1.0000
  S   S6        1.0  0.7353167605493964  0.2646832487067482  0.7353168885403044  1.0000
