data_image0
_chemical_formula_structural       Sc2AgO6
_chemical_formula_sum              "Sc2 Ag1 O6"
_cell_length_a       5.229115133511799
_cell_length_b       5.229114825262932
_cell_length_c       5.229115246687045
_cell_angle_alpha    59.99999834164007
_cell_angle_beta     59.99999699050285
_cell_angle_gamma    59.999999183460616

_space_group_name_H-M_alt    "P 1"
_space_group_IT_number       1

loop_
  _space_group_symop_operation_xyz
  'x, y, z'

loop_
  _atom_site_type_symbol
  _atom_site_label
  _atom_site_symmetry_multiplicity
  _atom_site_fract_x
  _atom_site_fract_y
  _atom_site_fract_z
  _atom_site_occupancy
  Sc  Sc1       1.0  0.2500001185158707  0.2500000057987394  0.2500000609900358  1.0000
  Sc  Sc2       1.0  0.7500000526893859  0.7499999190252842  0.7500001158529758  1.0000
  Ag  Ag1       1.0  4.5797295996449435e-07  0.9999998383906371  3.923039373184431e-08  1.0000
  O   O1        1.0  0.2678619748827671  0.2678619250372921  0.7321380212971331  1.0000
  O   O2        1.0  0.7321378734334063  0.7321379482590922  0.2678619870535361  1.0000
  O   O3        1.0  0.7321378300728975  0.2678620827947402  0.26786218369591525  1.0000
  O   O4        1.0  0.26786191574680707  0.7321380317446253  0.7321379446060722  1.0000
  O   O5        1.0  0.2678621224161146  0.7321379076516651  0.2678619110191725  1.0000
  O   O6        1.0  0.7321376393049738  0.26786233804892395  0.7321377383291985  1.0000
