data_image0
_chemical_formula_structural       Sc2BeO6
_chemical_formula_sum              "Sc2 Be1 O6"
_cell_length_a       4.741290810592985
_cell_length_b       4.741291146939754
_cell_length_c       4.741290930780884
_cell_angle_alpha    60.000002068624134
_cell_angle_beta     60.00000233663698
_cell_angle_gamma    60.00000105451916

_space_group_name_H-M_alt    "P 1"
_space_group_IT_number       1

loop_
  _space_group_symop_operation_xyz
  'x, y, z'

loop_
  _atom_site_type_symbol
  _atom_site_label
  _atom_site_symmetry_multiplicity
  _atom_site_fract_x
  _atom_site_fract_y
  _atom_site_fract_z
  _atom_site_occupancy
  Sc  Sc1       1.0  0.2500001345935941  0.24999982607625287  0.24999999816756335  1.0000
  Sc  Sc2       1.0  0.7500001373075567  0.749999744292825  0.7500002583485424  1.0000
  Be  Be1       1.0  7.749437857253416e-09  0.9999999767516838  0.9999999697850952  1.0000
  O   O1        1.0  0.251838264803671  0.25183846280609884  0.7481615946304128  1.0000
  O   O2        1.0  0.7481615786753695  0.7481617352675257  0.25183829016666853  1.0000
  O   O3        1.0  0.7481616119460716  0.2518384916916652  0.2518382812893159  1.0000
  O   O4        1.0  0.2518382619144492  0.7481616882999351  0.7481616100128192  1.0000
  O   O5        1.0  0.251838443597402  0.7481617970103216  0.2518382810345529  1.0000
  O   O6        1.0  0.7481615954534111  0.2518383623161052  0.7481616413524076  1.0000
