data_image0
_chemical_formula_structural       Sc2BeS6
_chemical_formula_sum              "Sc2 Be1 S6"
_cell_length_a       5.746485851562392
_cell_length_b       5.746485956776807
_cell_length_c       5.746485925237251
_cell_angle_alpha    59.99999929231009
_cell_angle_beta     60.00000023791613
_cell_angle_gamma    59.99999921169823

_space_group_name_H-M_alt    "P 1"
_space_group_IT_number       1

loop_
  _space_group_symop_operation_xyz
  'x, y, z'

loop_
  _atom_site_type_symbol
  _atom_site_label
  _atom_site_symmetry_multiplicity
  _atom_site_fract_x
  _atom_site_fract_y
  _atom_site_fract_z
  _atom_site_occupancy
  Sc  Sc1       1.0  0.2500001489881859  0.25000002699438495  0.25000003641768104  1.0000
  Sc  Sc2       1.0  0.7499999950544419  0.7499999296613181  0.7499999288352959  1.0000
  Be  Be1       1.0  0.9999999891206635  8.525174618308473e-09  0.999999995956499  1.0000
  S   S1        1.0  0.2514454748130184  0.25144552156455396  0.7485544308602842  1.0000
  S   S2        1.0  0.7485544265585063  0.7485544457476202  0.2514455842726378  1.0000
  S   S3        1.0  0.7485543661227914  0.2514455096571383  0.2514455764628648  1.0000
  S   S4        1.0  0.25144555639795296  0.7485544725740905  0.7485544624005747  1.0000
  S   S5        1.0  0.2514455642302933  0.7485544873540697  0.2514455384188721  1.0000
  S   S6        1.0  0.7485544837649049  0.25144558865407624  0.7485544447648942  1.0000
