data_image0
_chemical_formula_structural       Sc2CS6
_chemical_formula_sum              "Sc2 C1 S6"
_cell_length_a       5.969129229782802
_cell_length_b       5.969129179326569
_cell_length_c       5.969129123702376
_cell_angle_alpha    60.0000008876925
_cell_angle_beta     60.00000094811598
_cell_angle_gamma    60.00000030654661

_space_group_name_H-M_alt    "P 1"
_space_group_IT_number       1

loop_
  _space_group_symop_operation_xyz
  'x, y, z'

loop_
  _atom_site_type_symbol
  _atom_site_label
  _atom_site_symmetry_multiplicity
  _atom_site_fract_x
  _atom_site_fract_y
  _atom_site_fract_z
  _atom_site_occupancy
  Sc  Sc1       1.0  0.2499999686446166  0.24999988925007208  0.25000002560990775  1.0000
  Sc  Sc2       1.0  0.7499999462387048  0.7500000227113093  0.750000086932247  1.0000
  C   C1        1.0  2.8137762476088515e-07  0.9999998522705276  0.9999999231242064  1.0000
  S   S1        1.0  0.23438155405102165  0.23438146841152707  0.7656185099163857  1.0000
  S   S2        1.0  0.7656183997359329  0.7656184661196345  0.234381535032765  1.0000
  S   S3        1.0  0.7656184359254312  0.23438161792491027  0.2343815583486396  1.0000
  S   S4        1.0  0.23438147905164608  0.7656185258896705  0.7656185169584928  1.0000
  S   S5        1.0  0.23438149621645926  0.7656185846772773  0.2343814468650819  1.0000
  S   S6        1.0  0.765618450161124  0.23438156939629332  0.7656183797733713  1.0000
