data_image0
_chemical_formula_structural       Sc2CO6
_chemical_formula_sum              "Sc2 C1 O6"
_cell_length_a       4.661465399270921
_cell_length_b       4.661465320900359
_cell_length_c       4.6614654253574415
_cell_angle_alpha    59.99999767507429
_cell_angle_beta     59.99999829964287
_cell_angle_gamma    59.99999846033458

_space_group_name_H-M_alt    "P 1"
_space_group_IT_number       1

loop_
  _space_group_symop_operation_xyz
  'x, y, z'

loop_
  _atom_site_type_symbol
  _atom_site_label
  _atom_site_symmetry_multiplicity
  _atom_site_fract_x
  _atom_site_fract_y
  _atom_site_fract_z
  _atom_site_occupancy
  Sc  Sc1       1.0  0.2499999881930147  0.2500000076035082  0.2500000214151005  1.0000
  Sc  Sc2       1.0  0.7499999928791937  0.7499999676355079  0.7500000347777728  1.0000
  C   C1        1.0  0.9999999676729675  0.9999999632166537  1.461080931014585e-07  1.0000
  O   O1        1.0  0.23660493560350654  0.2366050311504465  0.7633949369940286  1.0000
  O   O2        1.0  0.7633950968871568  0.7633949756171524  0.23660495973667756  1.0000
  O   O3        1.0  0.763395045237964  0.23660500919755934  0.23660497415605883  1.0000
  O   O4        1.0  0.23660504217432804  0.7633950185890931  0.7633949532522456  1.0000
  O   O5        1.0  0.23660491530645042  0.7633950591861137  0.23660503959813095  1.0000
  O   O6        1.0  0.7633950160215489  0.23660501326602848  0.7633949542458169  1.0000
