data_image0
_chemical_formula_structural       Sc2CuTe6
_chemical_formula_sum              "Sc2 Cu1 Te6"
_cell_length_a       6.969835633205389
_cell_length_b       6.9698355397445555
_cell_length_c       6.969835728189845
_cell_angle_alpha    59.999999594475725
_cell_angle_beta     59.999999648485655
_cell_angle_gamma    59.999999091932615

_space_group_name_H-M_alt    "P 1"
_space_group_IT_number       1

loop_
  _space_group_symop_operation_xyz
  'x, y, z'

loop_
  _atom_site_type_symbol
  _atom_site_label
  _atom_site_symmetry_multiplicity
  _atom_site_fract_x
  _atom_site_fract_y
  _atom_site_fract_z
  _atom_site_occupancy
  Sc  Sc1       1.0  0.25000008753113395  0.2500000028941251  0.24999996105011163  1.0000
  Sc  Sc2       1.0  0.7499999082754195  0.7499999682665998  0.7500000919952459  1.0000
  Cu  Cu1       1.0  0.999999994461373  0.9999999718846764  0.9999999881318943  1.0000
  Te  Te1       1.0  0.2601277272235036  0.2601276475115708  0.7398723126136844  1.0000
  Te  Te2       1.0  0.7398722735186983  0.739872383394216  0.2601276507011561  1.0000
  Te  Te3       1.0  0.7398722965684918  0.26012774060766997  0.260127648286516  1.0000
  Te  Te4       1.0  0.2601276734829242  0.7398722779976631  0.7398723523062386  1.0000
  Te  Te5       1.0  0.260127728299617  0.7398722860622398  0.2601276682798807  1.0000
  Te  Te6       1.0  0.7398723081207473  0.26012772727147  0.7398723247202763  1.0000
