data_image0
_chemical_formula_structural       Sc2CoO6
_chemical_formula_sum              "Sc2 Co1 O6"
_cell_length_a       4.936077887313711
_cell_length_b       4.936077843103894
_cell_length_c       4.936077823276724
_cell_angle_alpha    59.999999509344526
_cell_angle_beta     59.999999624680015
_cell_angle_gamma    59.999997549150486

_space_group_name_H-M_alt    "P 1"
_space_group_IT_number       1

loop_
  _space_group_symop_operation_xyz
  'x, y, z'

loop_
  _atom_site_type_symbol
  _atom_site_label
  _atom_site_symmetry_multiplicity
  _atom_site_fract_x
  _atom_site_fract_y
  _atom_site_fract_z
  _atom_site_occupancy
  Sc  Sc1       1.0  0.2500002509599072  0.24999989142863796  0.2499999055167823  1.0000
  Sc  Sc2       1.0  0.750000095834015  0.7500001084977911  0.7499999191327633  1.0000
  Co  Co1       1.0  0.9999999767001296  7.691753058669543e-08  0.9999999468544698  1.0000
  O   O1        1.0  0.2533466658762855  0.25334650903668593  0.7466534314304373  1.0000
  O   O2        1.0  0.7466533868500208  0.746653495852171  0.25334654182350386  1.0000
  O   O3        1.0  0.7466533813272489  0.25334657082988093  0.25334655629665637  1.0000
  O   O4        1.0  0.2533464669590015  0.746653359622662  0.746653436867372  1.0000
  O   O5        1.0  0.25334643794654776  0.7466533814596786  0.25334674895248993  1.0000
  O   O6        1.0  0.7466533452160962  0.2533466110231308  0.7466534787367072  1.0000
