data_image0
_chemical_formula_structural       Sc2CoTe6
_chemical_formula_sum              "Sc2 Co1 Te6"
_cell_length_a       6.927160396424626
_cell_length_b       6.9271604827841875
_cell_length_c       6.927160559177138
_cell_angle_alpha    59.99999930745055
_cell_angle_beta     59.999999386700395
_cell_angle_gamma    60.000000631898885

_space_group_name_H-M_alt    "P 1"
_space_group_IT_number       1

loop_
  _space_group_symop_operation_xyz
  'x, y, z'

loop_
  _atom_site_type_symbol
  _atom_site_label
  _atom_site_symmetry_multiplicity
  _atom_site_fract_x
  _atom_site_fract_y
  _atom_site_fract_z
  _atom_site_occupancy
  Sc  Sc1       1.0  0.2500001002599697  0.25000004463502545  0.2499999287459316  1.0000
  Sc  Sc2       1.0  0.7499999743703847  0.7499999429575027  0.7500000333676006  1.0000
  Co  Co1       1.0  1.4597796533153233e-08  2.1216396756880852e-08  5.19039018156692e-09  1.0000
  Te  Te1       1.0  0.25004922009914765  0.2500492821888409  0.7499507298984666  1.0000
  Te  Te2       1.0  0.7499507036997013  0.7499507478364792  0.25004928641442187  1.0000
  Te  Te3       1.0  0.74995073021487  0.25004927054602955  0.2500492380858668  1.0000
  Te  Te4       1.0  0.25004928141065946  0.7499506410210763  0.7499508007607538  1.0000
  Te  Te5       1.0  0.25004928097200335  0.7499507598782061  0.25004921762735466  1.0000
  Te  Te6       1.0  0.7499506969424351  0.2500492878274451  0.7499507656747594  1.0000
