data_image0
_chemical_formula_structural       Sc2CuS6
_chemical_formula_sum              "Sc2 Cu1 S6"
_cell_length_a       6.041742558334523
_cell_length_b       6.041742571307469
_cell_length_c       6.041742602162269
_cell_angle_alpha    59.99999962078053
_cell_angle_beta     59.99999894156554
_cell_angle_gamma    59.9999986878215

_space_group_name_H-M_alt    "P 1"
_space_group_IT_number       1

loop_
  _space_group_symop_operation_xyz
  'x, y, z'

loop_
  _atom_site_type_symbol
  _atom_site_label
  _atom_site_symmetry_multiplicity
  _atom_site_fract_x
  _atom_site_fract_y
  _atom_site_fract_z
  _atom_site_occupancy
  Sc  Sc1       1.0  0.25000015309878  0.24999997523770526  0.24999998170851145  1.0000
  Sc  Sc2       1.0  0.7499999542547278  0.7499999845001369  0.749999827291601  1.0000
  Cu  Cu1       1.0  0.9999999514282402  8.108554461768323e-09  7.816190934128949e-08  1.0000
  S   S1        1.0  0.2618433539865005  0.26184337790908135  0.7381566498652113  1.0000
  S   S2        1.0  0.7381565754692697  0.7381566568328864  0.26184352009505935  1.0000
  S   S3        1.0  0.7381565919288079  0.2618433623038735  0.26184339539880624  1.0000
  S   S4        1.0  0.26184340644625975  0.738156666356678  0.7381565693516042  1.0000
  S   S5        1.0  0.2618434113385065  0.738156554526374  0.26184336032413363  1.0000
  S   S6        1.0  0.7381566053967422  0.2618434133200232  0.7381566041362925  1.0000
