data_image0
_chemical_formula_structural       Sc2CuSe6
_chemical_formula_sum              "Sc2 Cu1 Se6"
_cell_length_a       6.426565992967653
_cell_length_b       6.426565622250297
_cell_length_c       6.426565669912801
_cell_angle_alpha    59.99999853890479
_cell_angle_beta     59.999998052005594
_cell_angle_gamma    59.99999745841337

_space_group_name_H-M_alt    "P 1"
_space_group_IT_number       1

loop_
  _space_group_symop_operation_xyz
  'x, y, z'

loop_
  _atom_site_type_symbol
  _atom_site_label
  _atom_site_symmetry_multiplicity
  _atom_site_fract_x
  _atom_site_fract_y
  _atom_site_fract_z
  _atom_site_occupancy
  Sc  Sc1       1.0  0.249999897091581  0.24999998245023822  0.250000041002303  1.0000
  Sc  Sc2       1.0  0.7499999465051445  0.74999997403126  0.7500001718884365  1.0000
  Cu  Cu1       1.0  0.9999999950269854  9.528766817276326e-09  0.9999999308123587  1.0000
  Se  Se1       1.0  0.2633223391648403  0.2633222711959299  0.7366778408320194  1.0000
  Se  Se2       1.0  0.7366776970652209  0.736677759609948  0.2633221856744607  1.0000
  Se  Se3       1.0  0.7366776812564194  0.26332239415202213  0.26332217935837865  1.0000
  Se  Se4       1.0  0.2633222317942452  0.7366777205070041  0.7366776785302608  1.0000
  Se  Se5       1.0  0.26332234204753474  0.7366776462477502  0.2633223248456372  1.0000
  Se  Se6       1.0  0.7366778674906678  0.2633222473438849  0.7366776447128637  1.0000
