data_image0
_chemical_formula_structural       Sc2CrS6
_chemical_formula_sum              "Sc2 Cr1 S6"
_cell_length_a       6.077733437466448
_cell_length_b       6.077733365458106
_cell_length_c       6.077733173449744
_cell_angle_alpha    60.00000130208668
_cell_angle_beta     60.00000124007874
_cell_angle_gamma    60.00000081386015

_space_group_name_H-M_alt    "P 1"
_space_group_IT_number       1

loop_
  _space_group_symop_operation_xyz
  'x, y, z'

loop_
  _atom_site_type_symbol
  _atom_site_label
  _atom_site_symmetry_multiplicity
  _atom_site_fract_x
  _atom_site_fract_y
  _atom_site_fract_z
  _atom_site_occupancy
  Sc  Sc1       1.0  0.2500002659255385  0.24999987864718462  0.24999979509273412  1.0000
  Sc  Sc2       1.0  0.750000012734703  0.7499999220906158  0.7500002862833413  1.0000
  Cr  Cr1       1.0  0.9999999419859438  2.0151342096879436e-08  0.999999982733651  1.0000
  S   S1        1.0  0.2576831058659044  0.2576832286256008  0.742316873437488  1.0000
  S   S2        1.0  0.7423167579043747  0.7423168421401852  0.257683036857735  1.0000
  S   S3        1.0  0.7423167479835231  0.25768324066568626  0.2576830965430763  1.0000
  S   S4        1.0  0.2576831010684252  0.7423167716612071  0.7423169128540691  1.0000
  S   S5        1.0  0.25768330851653665  0.7423168988571105  0.2576830957912097  1.0000
  S   S6        1.0  0.7423167547220774  0.2576832061659587  0.7423169131820911  1.0000
