data_image0
_chemical_formula_structural       Sc2CuO6
_chemical_formula_sum              "Sc2 Cu1 O6"
_cell_length_a       4.971414859937681
_cell_length_b       4.971415299894346
_cell_length_c       4.971415217141671
_cell_angle_alpha    59.999999413333214
_cell_angle_beta     59.999998584282324
_cell_angle_gamma    59.99999998191904

_space_group_name_H-M_alt    "P 1"
_space_group_IT_number       1

loop_
  _space_group_symop_operation_xyz
  'x, y, z'

loop_
  _atom_site_type_symbol
  _atom_site_label
  _atom_site_symmetry_multiplicity
  _atom_site_fract_x
  _atom_site_fract_y
  _atom_site_fract_z
  _atom_site_occupancy
  Sc  Sc1       1.0  0.2500001139617808  0.24999990002493283  0.24999992658174633  1.0000
  Sc  Sc2       1.0  0.749999968654233  0.750000109028058  0.7499998845856367  1.0000
  Cu  Cu1       1.0  0.9999999876821307  3.6953607438483696e-08  5.7856274420305234e-09  1.0000
  O   O1        1.0  0.26355158088966485  0.26355151859709985  0.736448456515139  1.0000
  O   O2        1.0  0.7364484591210939  0.7364484510387072  0.26355157267543305  1.0000
  O   O3        1.0  0.7364484547266688  0.26355150261647736  0.26355158552755875  1.0000
  O   O4        1.0  0.2635515747494967  0.7364484916550684  0.7364484164974437  1.0000
  O   O5        1.0  0.26355149652378324  0.736448489615178  0.26355155960708826  1.0000
  O   O6        1.0  0.7364483500000708  0.2635515169742381  0.736448582045624  1.0000
