data_image0
_chemical_formula_structural       Sc2FeO6
_chemical_formula_sum              "Sc2 Fe1 O6"
_cell_length_a       5.039712309566754
_cell_length_b       5.039712309750539
_cell_length_c       5.039712279593249
_cell_angle_alpha    60.00000028771268
_cell_angle_beta     59.99999947586616
_cell_angle_gamma    59.99999948430131

_space_group_name_H-M_alt    "P 1"
_space_group_IT_number       1

loop_
  _space_group_symop_operation_xyz
  'x, y, z'

loop_
  _atom_site_type_symbol
  _atom_site_label
  _atom_site_symmetry_multiplicity
  _atom_site_fract_x
  _atom_site_fract_y
  _atom_site_fract_z
  _atom_site_occupancy
  Sc  Sc1       1.0  0.24999983932855416  0.25000016325106594  0.2500000015266249  1.0000
  Sc  Sc2       1.0  0.7500001619848047  0.749999959972196  0.7499999177071968  1.0000
  Fe  Fe1       1.0  0.9999999965056259  0.9999999829886835  0.9999999864419622  1.0000
  O   O1        1.0  0.25256106910542575  0.2525611385984392  0.7474388890714395  1.0000
  O   O2        1.0  0.7474388559986846  0.747438855824856  0.2525611783045162  1.0000
  O   O3        1.0  0.7474389777879644  0.25256104211201685  0.25256108678143313  1.0000
  O   O4        1.0  0.25256104262148343  0.7474389207188328  0.7474389169902318  1.0000
  O   O5        1.0  0.2525610881228446  0.7474388362407969  0.2525610978966226  1.0000
  O   O6        1.0  0.7474389492740735  0.2525611168693006  0.7474389280368064  1.0000
