data_image0
_chemical_formula_structural       Sc2FeS6
_chemical_formula_sum              "Sc2 Fe1 S6"
_cell_length_a       6.014185980251804
_cell_length_b       6.014186042305535
_cell_length_c       6.014185749778026
_cell_angle_alpha    60.00000117616918
_cell_angle_beta     59.99999897636021
_cell_angle_gamma    60.00000085767319

_space_group_name_H-M_alt    "P 1"
_space_group_IT_number       1

loop_
  _space_group_symop_operation_xyz
  'x, y, z'

loop_
  _atom_site_type_symbol
  _atom_site_label
  _atom_site_symmetry_multiplicity
  _atom_site_fract_x
  _atom_site_fract_y
  _atom_site_fract_z
  _atom_site_occupancy
  Sc  Sc1       1.0  0.24999979097317387  0.2500000706693488  0.25000007319534717  1.0000
  Sc  Sc2       1.0  0.7500000280591437  0.7499998535969638  0.7499998550661496  1.0000
  Fe  Fe1       1.0  3.3531103427367324e-08  2.0364266110974417e-08  0.999999943123076  1.0000
  S   S1        1.0  0.2529834737475708  0.25298364118371724  0.747016422398328  1.0000
  S   S2        1.0  0.7470164983758347  0.7470163767582212  0.25298368842313645  1.0000
  S   S3        1.0  0.7470165311377325  0.2529835806737126  0.2529835341658387  1.0000
  S   S4        1.0  0.252983622024398  0.7470164413410794  0.7470164458569175  1.0000
  S   S5        1.0  0.2529835371989755  0.7470163498848033  0.252983670096007  1.0000
  S   S6        1.0  0.747016502705409  0.25298363751073605  0.7470163788770442  1.0000
