data_image0
_chemical_formula_structural       Sc2FeTe6
_chemical_formula_sum              "Sc2 Fe1 Te6"
_cell_length_a       6.91478901069674
_cell_length_b       6.91478897166107
_cell_length_c       6.914788988488545
_cell_angle_alpha    60.000000664372465
_cell_angle_beta     60.00000079338211
_cell_angle_gamma    60.00000109681495

_space_group_name_H-M_alt    "P 1"
_space_group_IT_number       1

loop_
  _space_group_symop_operation_xyz
  'x, y, z'

loop_
  _atom_site_type_symbol
  _atom_site_label
  _atom_site_symmetry_multiplicity
  _atom_site_fract_x
  _atom_site_fract_y
  _atom_site_fract_z
  _atom_site_occupancy
  Sc  Sc1       1.0  0.2500000320444959  0.2500001129537595  0.24999991802328092  1.0000
  Sc  Sc2       1.0  0.7499999469974803  0.7499998694942589  0.7500000199360808  1.0000
  Fe  Fe1       1.0  0.9999999747489093  1.062717774972676e-08  3.9127822389524936e-08  1.0000
  Te  Te1       1.0  0.2451618995807335  0.2451619107240615  0.754838094827084  1.0000
  Te  Te2       1.0  0.754838128377442  0.7548380752663506  0.24516195139732436  1.0000
  Te  Te3       1.0  0.7548380591121889  0.24516195770715601  0.24516187942616555  1.0000
  Te  Te4       1.0  0.24516198662448616  0.7548380300544522  0.7548380991763661  1.0000
  Te  Te5       1.0  0.24516193535791533  0.7548380430148641  0.2451619147797615  1.0000
  Te  Te6       1.0  0.7548380343215984  0.24516199256904336  0.7548380880634312  1.0000
