data_image0
_chemical_formula_structural       Sc2GeS6
_chemical_formula_sum              "Sc2 Ge1 S6"
_cell_length_a       6.273502511415591
_cell_length_b       6.273502888409415
_cell_length_c       6.27350250737761
_cell_angle_alpha    59.99999995068153
_cell_angle_beta     59.99999983981768
_cell_angle_gamma    60.00000058673174

_space_group_name_H-M_alt    "P 1"
_space_group_IT_number       1

loop_
  _space_group_symop_operation_xyz
  'x, y, z'

loop_
  _atom_site_type_symbol
  _atom_site_label
  _atom_site_symmetry_multiplicity
  _atom_site_fract_x
  _atom_site_fract_y
  _atom_site_fract_z
  _atom_site_occupancy
  Sc  Sc1       1.0  0.25000023295238655  0.24999994234594347  0.24999991071875263  1.0000
  Sc  Sc2       1.0  0.7499998952743071  0.7500000125016263  0.7499999168833243  1.0000
  Ge  Ge1       1.0  0.9999999879515445  5.27107609295099e-08  0.9999999987969173  1.0000
  S   S1        1.0  0.25628705753556535  0.25628701681278104  0.7437129541232936  1.0000
  S   S2        1.0  0.7437128817409782  0.743712969270792  0.2562871324585233  1.0000
  S   S3        1.0  0.7437129910225241  0.2562869422765286  0.2562870632845214  1.0000
  S   S4        1.0  0.25628712054627967  0.7437129852395324  0.7437129154267332  1.0000
  S   S5        1.0  0.256287012639297  0.7437129748047812  0.2562869926355367  1.0000
  S   S6        1.0  0.7437128240453081  0.2562871147480645  0.7437130982896292  1.0000
