data_image0
_chemical_formula_structural       Sc2MgS6
_chemical_formula_sum              "Sc2 Mg1 S6"
_cell_length_a       6.012610309041421
_cell_length_b       6.012609799829568
_cell_length_c       6.012610303273922
_cell_angle_alpha    60.000000078152596
_cell_angle_beta     60.00000070591963
_cell_angle_gamma    60.000000683422584

_space_group_name_H-M_alt    "P 1"
_space_group_IT_number       1

loop_
  _space_group_symop_operation_xyz
  'x, y, z'

loop_
  _atom_site_type_symbol
  _atom_site_label
  _atom_site_symmetry_multiplicity
  _atom_site_fract_x
  _atom_site_fract_y
  _atom_site_fract_z
  _atom_site_occupancy
  Sc  Sc1       1.0  0.24999999314486215  0.2499997327236285  0.2500002033223209  1.0000
  Sc  Sc2       1.0  0.7500000306909255  0.7500000353616468  0.7499997848772375  1.0000
  Mg  Mg1       1.0  8.690344613346875e-09  1.4258723696029682e-08  0.9999999851991239  1.0000
  S   S1        1.0  0.26464972408510196  0.26464974515206174  0.7353502336285943  1.0000
  S   S2        1.0  0.7353502191042961  0.7353503916230738  0.264649906593701  1.0000
  S   S3        1.0  0.7353501880867137  0.2646496873293906  0.2646497676409208  1.0000
  S   S4        1.0  0.26464970069066535  0.7353503822260411  0.735350242132552  1.0000
  S   S5        1.0  0.2646497132755374  0.735350288787049  0.26464971038732665  1.0000
  S   S6        1.0  0.7353504331170649  0.2646496992899666  0.7353501763911477  1.0000
