data_image0
_chemical_formula_structural       Sc2MgSe6
_chemical_formula_sum              "Sc2 Mg1 Se6"
_cell_length_a       6.388530841830606
_cell_length_b       6.388530949302564
_cell_length_c       6.38853121206236
_cell_angle_alpha    59.99999925792602
_cell_angle_beta     59.9999968674721
_cell_angle_gamma    59.999998646490525

_space_group_name_H-M_alt    "P 1"
_space_group_IT_number       1

loop_
  _space_group_symop_operation_xyz
  'x, y, z'

loop_
  _atom_site_type_symbol
  _atom_site_label
  _atom_site_symmetry_multiplicity
  _atom_site_fract_x
  _atom_site_fract_y
  _atom_site_fract_z
  _atom_site_occupancy
  Sc  Sc1       1.0  0.2500000777643488  0.2499996926418773  0.2500002989961994  1.0000
  Sc  Sc2       1.0  0.7499998007460901  0.7500000556463148  0.749999860532892  1.0000
  Mg  Mg1       1.0  0.9999999328859349  4.409328640926826e-08  3.683865056502449e-09  1.0000
  Se  Se1       1.0  0.26853319807466297  0.2685330495815633  0.7314668746375285  1.0000
  Se  Se2       1.0  0.7314668904798883  0.7314669632663444  0.26853319472832016  1.0000
  Se  Se3       1.0  0.7314669802723712  0.2685330085114772  0.26853317264068605  1.0000
  Se  Se4       1.0  0.26853329549040583  0.7314670445955134  0.7314665388039233  1.0000
  Se  Se5       1.0  0.2685330590569918  0.7314668436793318  0.2685331860787847  1.0000
  Se  Se6       1.0  0.7314667768166584  0.2685332765261428  0.7314668604651277  1.0000
