data_image0
_chemical_formula_structural       Sc2MgO6
_chemical_formula_sum              "Sc2 Mg1 O6"
_cell_length_a       4.9939689414074016
_cell_length_b       4.993969324951476
_cell_length_c       4.993969088828793
_cell_angle_alpha    60.00000099690194
_cell_angle_beta     60.000002158106774
_cell_angle_gamma    60.000001066630226

_space_group_name_H-M_alt    "P 1"
_space_group_IT_number       1

loop_
  _space_group_symop_operation_xyz
  'x, y, z'

loop_
  _atom_site_type_symbol
  _atom_site_label
  _atom_site_symmetry_multiplicity
  _atom_site_fract_x
  _atom_site_fract_y
  _atom_site_fract_z
  _atom_site_occupancy
  Sc  Sc1       1.0  0.2500002033295146  0.24999993041344148  0.2499999310882231  1.0000
  Sc  Sc2       1.0  0.7500000429127651  0.7500001051536366  0.7499998777951672  1.0000
  Mg  Mg1       1.0  0.9999999872007947  2.4524476699048987e-08  1.4161516634837869e-08  1.0000
  O   O1        1.0  0.26503276466796716  0.26503270687452374  0.7349672595937793  1.0000
  O   O2        1.0  0.7349671528225606  0.734967350764585  0.2650328307840415  1.0000
  O   O3        1.0  0.7349672130398638  0.26503272267906997  0.2650327472657561  1.0000
  O   O4        1.0  0.2650327963091637  0.7349672466719228  0.7349672331964503  1.0000
  O   O5        1.0  0.26503260138185014  0.7349672528072427  0.2650328229416756  1.0000
  O   O6        1.0  0.7349672073676772  0.26503268711437955  0.7349672945615296  1.0000
