data_image0
_chemical_formula_structural       Sc2NbTe6
_chemical_formula_sum              "Sc2 Nb1 Te6"
_cell_length_a       7.253824197931217
_cell_length_b       7.253824157950054
_cell_length_c       7.253824241162092
_cell_angle_alpha    59.99999993961325
_cell_angle_beta     59.999999693276706
_cell_angle_gamma    60.00000034159713

_space_group_name_H-M_alt    "P 1"
_space_group_IT_number       1

loop_
  _space_group_symop_operation_xyz
  'x, y, z'

loop_
  _atom_site_type_symbol
  _atom_site_label
  _atom_site_symmetry_multiplicity
  _atom_site_fract_x
  _atom_site_fract_y
  _atom_site_fract_z
  _atom_site_occupancy
  Sc  Sc1       1.0  0.250000038653865  0.24999997691064904  0.24999999666923245  1.0000
  Sc  Sc2       1.0  0.7500000435723839  0.7499999425508355  0.7500000065070273  1.0000
  Nb  Nb1       1.0  0.9999999837918069  1.519571401135802e-08  0.9999999922347406  1.0000
  Te  Te1       1.0  0.2632866016877207  0.26328665726400086  0.7367133721593981  1.0000
  Te  Te2       1.0  0.7367133526579578  0.7367133736327199  0.2632866351037797  1.0000
  Te  Te3       1.0  0.7367133533972607  0.2632866506266492  0.26328663081843307  1.0000
  Te  Te4       1.0  0.26328662595178726  0.7367133768932463  0.7367133587385566  1.0000
  Te  Te5       1.0  0.2632866283328764  0.7367133665426551  0.26328665484792707  1.0000
  Te  Te6       1.0  0.7367133731255253  0.2632866424047012  0.7367133522408197  1.0000
