data_image0
_chemical_formula_structural       Sc2NiO6
_chemical_formula_sum              "Sc2 Ni1 O6"
_cell_length_a       4.906639306074813
_cell_length_b       4.906639220033279
_cell_length_c       4.906639180757022
_cell_angle_alpha    59.99999951764357
_cell_angle_beta     59.99999915754327
_cell_angle_gamma    59.99999908718861

_space_group_name_H-M_alt    "P 1"
_space_group_IT_number       1

loop_
  _space_group_symop_operation_xyz
  'x, y, z'

loop_
  _atom_site_type_symbol
  _atom_site_label
  _atom_site_symmetry_multiplicity
  _atom_site_fract_x
  _atom_site_fract_y
  _atom_site_fract_z
  _atom_site_occupancy
  Sc  Sc1       1.0  0.2499999523318893  0.2500000309113057  0.2500001443274073  1.0000
  Sc  Sc2       1.0  0.7500001296776737  0.7499999030305244  0.749999792304774  1.0000
  Ni  Ni1       1.0  2.3676182889741018e-08  0.9999999925117079  1.0399907358481864e-07  1.0000
  O   O1        1.0  0.2543341239517606  0.2543341333550023  0.7456659052359939  1.0000
  O   O2        1.0  0.7456658111022655  0.7456659378721782  0.2543341585145755  1.0000
  O   O3        1.0  0.7456658592827108  0.25433414500652063  0.25433418872339936  1.0000
  O   O4        1.0  0.25433420986708916  0.7456657639743367  0.7456657668191502  1.0000
  O   O5        1.0  0.2543340507662406  0.7456658074367872  0.25433420003985124  1.0000
  O   O6        1.0  0.7456658637969787  0.25433426878258825  0.7456657226820168  1.0000
