data_image0
_chemical_formula_structural       Sc2NiSe6
_chemical_formula_sum              "Sc2 Ni1 Se6"
_cell_length_a       6.400835559640507
_cell_length_b       6.400835653373105
_cell_length_c       6.400835619589592
_cell_angle_alpha    60.000000119807545
_cell_angle_beta     60.00000000733167
_cell_angle_gamma    60.00000201371163

_space_group_name_H-M_alt    "P 1"
_space_group_IT_number       1

loop_
  _space_group_symop_operation_xyz
  'x, y, z'

loop_
  _atom_site_type_symbol
  _atom_site_label
  _atom_site_symmetry_multiplicity
  _atom_site_fract_x
  _atom_site_fract_y
  _atom_site_fract_z
  _atom_site_occupancy
  Sc  Sc1       1.0  0.24999999479422683  0.25000004046207175  0.25000005164063854  1.0000
  Sc  Sc2       1.0  0.7500001898024445  0.749999975966755  0.7499998890150656  1.0000
  Ni  Ni1       1.0  8.053826193490234e-09  1.9134140203652495e-08  0.999999998904385  1.0000
  Se  Se1       1.0  0.25657683269476084  0.2565769774644851  0.743423122052272  1.0000
  Se  Se2       1.0  0.7434230810854425  0.7434230504448204  0.25657701545015504  1.0000
  Se  Se3       1.0  0.743423025197405  0.25657689358970653  0.25657693752042326  1.0000
  Se  Se4       1.0  0.25657688869222733  0.7434231285793572  0.743423021571072  1.0000
  Se  Se5       1.0  0.2565768823421177  0.7434230184871661  0.2565769435685577  1.0000
  Se  Se6       1.0  0.7434230908257966  0.25657689079047263  0.7434230313934372  1.0000
