data_image0
_chemical_formula_structural       Sc2NbO6
_chemical_formula_sum              "Sc2 Nb1 O6"
_cell_length_a       5.2212714409196215
_cell_length_b       5.221271302150413
_cell_length_c       5.221271438133439
_cell_angle_alpha    59.999999911489624
_cell_angle_beta     59.99999989014389
_cell_angle_gamma    60.000000957980866

_space_group_name_H-M_alt    "P 1"
_space_group_IT_number       1

loop_
  _space_group_symop_operation_xyz
  'x, y, z'

loop_
  _atom_site_type_symbol
  _atom_site_label
  _atom_site_symmetry_multiplicity
  _atom_site_fract_x
  _atom_site_fract_y
  _atom_site_fract_z
  _atom_site_occupancy
  Sc  Sc1       1.0  0.2500001595961636  0.24999968669986863  0.25000008208082597  1.0000
  Sc  Sc2       1.0  0.7500000482369379  0.7500001062743334  0.7499999211937162  1.0000
  Nb  Nb1       1.0  2.472930010422066e-08  0.9999999788888508  0.9999999771232589  1.0000
  O   O1        1.0  0.2618346942139494  0.26183491147640714  0.7381651815524825  1.0000
  O   O2        1.0  0.7381651636336318  0.7381651817452464  0.2618348255234307  1.0000
  O   O3        1.0  0.7381651414833678  0.26183479049212655  0.26183484022848985  1.0000
  O   O4        1.0  0.2618348386231623  0.738165347297511  0.73816510258638  1.0000
  O   O5        1.0  0.26183480520742797  0.7381653100542892  0.2618347843862779  1.0000
  O   O6        1.0  0.7381651199481721  0.2618346940314021  0.7381652968066026  1.0000
