data_image0
_chemical_formula_structural       Sc2NbS6
_chemical_formula_sum              "Sc2 Nb1 S6"
_cell_length_a       6.31458188160921
_cell_length_b       6.314581988362831
_cell_length_c       6.314581831028689
_cell_angle_alpha    59.99999980853345
_cell_angle_beta     60.000000756631344
_cell_angle_gamma    59.99999994866948

_space_group_name_H-M_alt    "P 1"
_space_group_IT_number       1

loop_
  _space_group_symop_operation_xyz
  'x, y, z'

loop_
  _atom_site_type_symbol
  _atom_site_label
  _atom_site_symmetry_multiplicity
  _atom_site_fract_x
  _atom_site_fract_y
  _atom_site_fract_z
  _atom_site_occupancy
  Sc  Sc1       1.0  0.24999994269234083  0.24999989767697564  0.2500000462792742  1.0000
  Sc  Sc2       1.0  0.7500002128996462  0.7499997783711306  0.750000155554556  1.0000
  Nb  Nb1       1.0  5.367665527406995e-08  0.99999999806045  0.9999999392914525  1.0000
  S   S1        1.0  0.26308339272686493  0.26308359810576104  0.736916530300705  1.0000
  S   S2        1.0  0.7369165113385766  0.7369165143411425  0.2630834524061038  1.0000
  S   S3        1.0  0.7369165117870522  0.26308356054192933  0.2630833672148203  1.0000
  S   S4        1.0  0.26308340724016677  0.7369165344490232  0.7369165597281746  1.0000
  S   S5        1.0  0.2630834081904041  0.73691667267447  0.2630834256454537  1.0000
  S   S6        1.0  0.7369165781631839  0.2630834397724331  0.736916520668191  1.0000
