data_image0
_chemical_formula_structural       Sc2NbSe6
_chemical_formula_sum              "Sc2 Nb1 Se6"
_cell_length_a       6.695174873053731
_cell_length_b       6.69517484479002
_cell_length_c       6.695174923845292
_cell_angle_alpha    59.99999943329303
_cell_angle_beta     59.99999925498421
_cell_angle_gamma    60.00000005995264

_space_group_name_H-M_alt    "P 1"
_space_group_IT_number       1

loop_
  _space_group_symop_operation_xyz
  'x, y, z'

loop_
  _atom_site_type_symbol
  _atom_site_label
  _atom_site_symmetry_multiplicity
  _atom_site_fract_x
  _atom_site_fract_y
  _atom_site_fract_z
  _atom_site_occupancy
  Sc  Sc1       1.0  0.25000006828352  0.24999979530976982  0.2500000128799148  1.0000
  Sc  Sc2       1.0  0.7499998844162693  0.750000000572372  0.7500000035563303  1.0000
  Nb  Nb1       1.0  1.3420983486686607e-09  0.9999999597555136  7.172764747128516e-08  1.0000
  Se  Se1       1.0  0.2602277801216797  0.26022775224712974  0.7397722214679598  1.0000
  Se  Se2       1.0  0.7397721698728839  0.7397723363221855  0.2602277395940881  1.0000
  Se  Se3       1.0  0.7397722594760265  0.2602277588576416  0.2602277798129175  1.0000
  Se  Se4       1.0  0.26022780450560085  0.7397722309297532  0.7397722602761099  1.0000
  Se  Se5       1.0  0.26022776439801487  0.739772348066706  0.2602277697464205  1.0000
  Se  Se6       1.0  0.739772261237142  0.26022781367440334  0.7397721557433703  1.0000
