data_image0
_chemical_formula_structural       Sc2PdS6
_chemical_formula_sum              "Sc2 Pd1 S6"
_cell_length_a       6.217409488972438
_cell_length_b       6.217409520858627
_cell_length_c       6.2174095671766745
_cell_angle_alpha    59.99999951811283
_cell_angle_beta     59.99999985876586
_cell_angle_gamma    59.99999884575627

_space_group_name_H-M_alt    "P 1"
_space_group_IT_number       1

loop_
  _space_group_symop_operation_xyz
  'x, y, z'

loop_
  _atom_site_type_symbol
  _atom_site_label
  _atom_site_symmetry_multiplicity
  _atom_site_fract_x
  _atom_site_fract_y
  _atom_site_fract_z
  _atom_site_occupancy
  Sc  Sc1       1.0  0.24999999359715608  0.2500000892609541  0.24999991946695657  1.0000
  Sc  Sc2       1.0  0.7500000342804233  0.7499999624539998  0.75000010306144  1.0000
  Pd  Pd1       1.0  0.9999999704907035  2.1668500277619088e-08  0.9999999637107259  1.0000
  S   S1        1.0  0.2619481467382299  0.2619481729210015  0.7380518165766791  1.0000
  S   S2        1.0  0.7380518353851687  0.7380518433364083  0.2619481162782424  1.0000
  S   S3        1.0  0.7380519098863457  0.26194816854356934  0.2619481572885147  1.0000
  S   S4        1.0  0.2619481034908964  0.7380518319549308  0.7380518401963496  1.0000
  S   S5        1.0  0.26194823995697686  0.7380517194681065  0.26194816348640115  1.0000
  S   S6        1.0  0.7380517504225114  0.2619481884468037  0.7380519271736468  1.0000
