data_image0
_chemical_formula_structural       Sc2PdO6
_chemical_formula_sum              "Sc2 Pd1 O6"
_cell_length_a       5.104176879559861
_cell_length_b       5.104176874568147
_cell_length_c       5.1041768624095445
_cell_angle_alpha    60.00000044297054
_cell_angle_beta     60.00000038446076
_cell_angle_gamma    60.00000045333258

_space_group_name_H-M_alt    "P 1"
_space_group_IT_number       1

loop_
  _space_group_symop_operation_xyz
  'x, y, z'

loop_
  _atom_site_type_symbol
  _atom_site_label
  _atom_site_symmetry_multiplicity
  _atom_site_fract_x
  _atom_site_fract_y
  _atom_site_fract_z
  _atom_site_occupancy
  Sc  Sc1       1.0  0.24999988379960764  0.25000005318841145  0.2500000912497898  1.0000
  Sc  Sc2       1.0  0.750000172566902  0.7500000755828976  0.7499998220141078  1.0000
  Pd  Pd1       1.0  0.9999999712531457  4.79899078803185e-09  6.291260548506591e-08  1.0000
  O   O1        1.0  0.26451022135865415  0.2645102614221624  0.7354897515751498  1.0000
  O   O2        1.0  0.7354898104915684  0.7354896897864914  0.2645103430545884  1.0000
  O   O3        1.0  0.7354897073453878  0.2645102376803476  0.26451029362001177  1.0000
  O   O4        1.0  0.2645102276155442  0.7354897327242683  0.7354896948770884  1.0000
  O   O5        1.0  0.2645102770095028  0.7354896688794409  0.2645102680424823  1.0000
  O   O6        1.0  0.7354897211811899  0.26451026793224025  0.735489688003587  1.0000
