data_image0
_chemical_formula_structural       Sc2PdSe6
_chemical_formula_sum              "Sc2 Pd1 Se6"
_cell_length_a       6.623271030712323
_cell_length_b       6.623270877005386
_cell_length_c       6.623270715723529
_cell_angle_alpha    60.0000000596786
_cell_angle_beta     60.000001129461616
_cell_angle_gamma    60.00000058551717

_space_group_name_H-M_alt    "P 1"
_space_group_IT_number       1

loop_
  _space_group_symop_operation_xyz
  'x, y, z'

loop_
  _atom_site_type_symbol
  _atom_site_label
  _atom_site_symmetry_multiplicity
  _atom_site_fract_x
  _atom_site_fract_y
  _atom_site_fract_z
  _atom_site_occupancy
  Sc  Sc1       1.0  0.25000015068077547  0.25000018082335373  0.24999984591166116  1.0000
  Sc  Sc2       1.0  0.749999733275611  0.7500001412036078  0.7500001264383059  1.0000
  Pd  Pd1       1.0  0.9999999862461718  2.034069564506999e-08  0.9999999544313805  1.0000
  Se  Se1       1.0  0.26102172121433287  0.2610216502324938  0.7389783125756104  1.0000
  Se  Se2       1.0  0.7389784233970867  0.7389781984110126  0.26102164082283985  1.0000
  Se  Se3       1.0  0.7389781880044561  0.26102163188393107  0.2610217136888823  1.0000
  Se  Se4       1.0  0.2610218177151249  0.7389782777816601  0.738978340547396  1.0000
  Se  Se5       1.0  0.26102174914216064  0.7389782754738964  0.26102163439106946  1.0000
  Se  Se6       1.0  0.7389782260241301  0.2610216212476157  0.7389784310250973  1.0000
