data_image0
_chemical_formula_structural       Sc2SO6
_chemical_formula_sum              "Sc2 S1 O6"
_cell_length_a       5.010361704543269
_cell_length_b       5.010361792373372
_cell_length_c       5.010361566050231
_cell_angle_alpha    60.000000447440655
_cell_angle_beta     60.00000086819951
_cell_angle_gamma    60.000000213021586

_space_group_name_H-M_alt    "P 1"
_space_group_IT_number       1

loop_
  _space_group_symop_operation_xyz
  'x, y, z'

loop_
  _atom_site_type_symbol
  _atom_site_label
  _atom_site_symmetry_multiplicity
  _atom_site_fract_x
  _atom_site_fract_y
  _atom_site_fract_z
  _atom_site_occupancy
  Sc  Sc1       1.0  0.25000006054062085  0.24999999955028787  0.2499999393436441  1.0000
  Sc  Sc2       1.0  0.7500000252547961  0.7500001013166723  0.7499998987698869  1.0000
  S   S1        1.0  0.9999999730195078  4.888848434209198e-09  0.9999999870954545  1.0000
  O   O1        1.0  0.23684871298280688  0.23684870171571604  0.7631513393833904  1.0000
  O   O2        1.0  0.7631512651503699  0.7631512035973225  0.23684877208592386  1.0000
  O   O3        1.0  0.7631512722105022  0.23684873146865187  0.23684878853385263  1.0000
  O   O4        1.0  0.2368487361144273  0.7631512422882587  0.7631512736176487  1.0000
  O   O5        1.0  0.23684869401101385  0.7631513071081631  0.23684869003231018  1.0000
  O   O6        1.0  0.7631512631687808  0.2368487302037728  0.7631512900714154  1.0000
