data_image0
_chemical_formula_structural       Sc2TiS6
_chemical_formula_sum              "Sc2 Ti1 S6"
_cell_length_a       6.201768739052938
_cell_length_b       6.201768342596167
_cell_length_c       6.2017687990951655
_cell_angle_alpha    59.999999526990344
_cell_angle_beta     59.999998419210186
_cell_angle_gamma    59.99999971627678

_space_group_name_H-M_alt    "P 1"
_space_group_IT_number       1

loop_
  _space_group_symop_operation_xyz
  'x, y, z'

loop_
  _atom_site_type_symbol
  _atom_site_label
  _atom_site_symmetry_multiplicity
  _atom_site_fract_x
  _atom_site_fract_y
  _atom_site_fract_z
  _atom_site_occupancy
  Sc  Sc1       1.0  0.2500000281607941  0.24999990779106557  0.2500001495181179  1.0000
  Sc  Sc2       1.0  0.74999974074268  0.750000011698599  0.7499996345661549  1.0000
  Ti  Ti1       1.0  0.9999999976315332  0.9999999289060573  0.9999999980325667  1.0000
  S   S1        1.0  0.2605368730515293  0.2605368671004844  0.739463173374458  1.0000
  S   S2        1.0  0.7394631695850565  0.7394631807532627  0.2605370481887287  1.0000
  S   S3        1.0  0.7394631321612632  0.2605367431341756  0.26053694998306337  1.0000
  S   S4        1.0  0.2605369748896021  0.7394632790467559  0.739463097414842  1.0000
  S   S5        1.0  0.2605368590723768  0.7394631476239107  0.26053682016141094  1.0000
  S   S6        1.0  0.7394632288884511  0.2605369318271383  0.7394631355865108  1.0000
