data_image0
_chemical_formula_structural       Sc2TiSe6
_chemical_formula_sum              "Sc2 Ti1 Se6"
_cell_length_a       6.586193336435772
_cell_length_b       6.586193243880928
_cell_length_c       6.586193401484539
_cell_angle_alpha    59.99999984135992
_cell_angle_beta     59.99999908076611
_cell_angle_gamma    59.99999992661323

_space_group_name_H-M_alt    "P 1"
_space_group_IT_number       1

loop_
  _space_group_symop_operation_xyz
  'x, y, z'

loop_
  _atom_site_type_symbol
  _atom_site_label
  _atom_site_symmetry_multiplicity
  _atom_site_fract_x
  _atom_site_fract_y
  _atom_site_fract_z
  _atom_site_occupancy
  Sc  Sc1       1.0  0.24999992678311858  0.2500000662515116  0.2500000444411965  1.0000
  Sc  Sc2       1.0  0.7499999547897073  0.7499999384155571  0.7500001990478163  1.0000
  Ti  Ti1       1.0  0.9999999962991187  0.9999999795447944  0.9999999953764385  1.0000
  Se  Se1       1.0  0.2590661519891978  0.2590661267445757  0.7409338422669116  1.0000
  Se  Se2       1.0  0.7409338778806039  0.7409338853607477  0.2590660394272019  1.0000
  Se  Se3       1.0  0.7409338669641999  0.25906616566622803  0.25906612425434355  1.0000
  Se  Se4       1.0  0.2590661930292877  0.740933829703019  0.7409338221073679  1.0000
  Se  Se5       1.0  0.25906615224205753  0.7409338344644762  0.25906615319738807  1.0000
  Se  Se6       1.0  0.7409338783539489  0.2590661702025911  0.7409337849942215  1.0000
