data_image0
_chemical_formula_structural       Sc2TiTe6
_chemical_formula_sum              "Sc2 Ti1 Te6"
_cell_length_a       7.1754365574437635
_cell_length_b       7.175436612431802
_cell_length_c       7.175436494650806
_cell_angle_alpha    59.999999927399614
_cell_angle_beta     60.00000083093465
_cell_angle_gamma    60.00000015063659

_space_group_name_H-M_alt    "P 1"
_space_group_IT_number       1

loop_
  _space_group_symop_operation_xyz
  'x, y, z'

loop_
  _atom_site_type_symbol
  _atom_site_label
  _atom_site_symmetry_multiplicity
  _atom_site_fract_x
  _atom_site_fract_y
  _atom_site_fract_z
  _atom_site_occupancy
  Sc  Sc1       1.0  0.24999999599065822  0.25000008173359756  0.24999996415783177  1.0000
  Sc  Sc2       1.0  0.7499999818977285  0.7499999447938507  0.749999967670058  1.0000
  Ti  Ti1       1.0  0.9999999788511387  6.827430554828927e-08  0.9999999388089046  1.0000
  Te  Te1       1.0  0.2611311319774146  0.26113115807584264  0.7388688653280553  1.0000
  Te  Te2       1.0  0.7388688560712504  0.7388688138321605  0.2611311876781024  1.0000
  Te  Te3       1.0  0.7388688561192124  0.26113114103199736  0.2611311419548628  1.0000
  Te  Te4       1.0  0.2611311857985852  0.7388688189280025  0.7388688747606528  1.0000
  Te  Te5       1.0  0.26113112778818526  0.7388688403078989  0.2611311495176535  1.0000
  Te  Te6       1.0  0.7388688854393801  0.26113113330696186  0.7388689039820597  1.0000
