data_image0
_chemical_formula_structural       Sc2TiO6
_chemical_formula_sum              "Sc2 Ti1 O6"
_cell_length_a       5.092567506300161
_cell_length_b       5.092567869579998
_cell_length_c       5.092567818756034
_cell_angle_alpha    60.000000048061125
_cell_angle_beta     59.99999981534905
_cell_angle_gamma    60.00000000671429

_space_group_name_H-M_alt    "P 1"
_space_group_IT_number       1

loop_
  _space_group_symop_operation_xyz
  'x, y, z'

loop_
  _atom_site_type_symbol
  _atom_site_label
  _atom_site_symmetry_multiplicity
  _atom_site_fract_x
  _atom_site_fract_y
  _atom_site_fract_z
  _atom_site_occupancy
  Sc  Sc1       1.0  0.2499999904229109  0.2499999678223008  0.25000003573428886  1.0000
  Sc  Sc2       1.0  0.749999991078176  0.7500000140953028  0.7500000164565479  1.0000
  Ti  Ti1       1.0  0.9999999763865702  9.619861664807414e-09  0.9999999637965735  1.0000
  O   O1        1.0  0.2600868579748733  0.26008682928540483  0.7399131380860519  1.0000
  O   O2        1.0  0.7399131090964203  0.7399131959215738  0.26008683683832434  1.0000
  O   O3        1.0  0.7399131574773764  0.26008683981031083  0.2600867920434501  1.0000
  O   O4        1.0  0.2600868048075845  0.7399131589420502  0.7399132024286931  1.0000
  O   O5        1.0  0.26008679677949187  0.7399131902761843  0.26008682871911587  1.0000
  O   O6        1.0  0.7399132914280255  0.2600867844265221  0.739913187471477  1.0000
