data_image0
_chemical_formula_structural       Sc2VS6
_chemical_formula_sum              "Sc2 V1 S6"
_cell_length_a       6.149991637195374
_cell_length_b       6.149991910644797
_cell_length_c       6.149991541082394
_cell_angle_alpha    60.00000125652605
_cell_angle_beta     60.000001632455216
_cell_angle_gamma    60.00000219011789

_space_group_name_H-M_alt    "P 1"
_space_group_IT_number       1

loop_
  _space_group_symop_operation_xyz
  'x, y, z'

loop_
  _atom_site_type_symbol
  _atom_site_label
  _atom_site_symmetry_multiplicity
  _atom_site_fract_x
  _atom_site_fract_y
  _atom_site_fract_z
  _atom_site_occupancy
  Sc  Sc1       1.0  0.2499997914420952  0.2500000536978904  0.25000011871835526  1.0000
  Sc  Sc2       1.0  0.7500002088402778  0.7499999838539465  0.7499999185747009  1.0000
  V   V1        1.0  0.9999999986723623  3.982914712721867e-09  4.582689785573752e-08  1.0000
  S   S1        1.0  0.2580201888461526  0.2580202708001392  0.7419797268475293  1.0000
  S   S2        1.0  0.7419797470295637  0.7419797966235637  0.25802019925746006  1.0000
  S   S3        1.0  0.741979799714735  0.2580202629273094  0.25802025513912086  1.0000
  S   S4        1.0  0.25802023430852344  0.7419796790345609  0.7419797626719034  1.0000
  S   S5        1.0  0.25802016077536283  0.7419797368644464  0.25802030974740914  1.0000
  S   S6        1.0  0.741979873247895  0.25802020509742435  0.7419796609090786  1.0000
