data_image0
_chemical_formula_structural       Sc2VSe6
_chemical_formula_sum              "Sc2 V1 Se6"
_cell_length_a       6.486958013263598
_cell_length_b       6.486958051350657
_cell_length_c       6.48695798045079
_cell_angle_alpha    60.00000052401886
_cell_angle_beta     60.0000001981858
_cell_angle_gamma    60.00000132256244

_space_group_name_H-M_alt    "P 1"
_space_group_IT_number       1

loop_
  _space_group_symop_operation_xyz
  'x, y, z'

loop_
  _atom_site_type_symbol
  _atom_site_label
  _atom_site_symmetry_multiplicity
  _atom_site_fract_x
  _atom_site_fract_y
  _atom_site_fract_z
  _atom_site_occupancy
  Sc  Sc1       1.0  0.25000014031909773  0.24999976739421928  0.2500000788465151  1.0000
  Sc  Sc2       1.0  0.7499999429607551  0.7500000366189576  0.749999934123994  1.0000
  V   V1        1.0  0.9999999961160009  1.6992099516899917e-08  0.9999999672395213  1.0000
  Se  Se1       1.0  0.2572651315870614  0.2572652597217824  0.7427348092766384  1.0000
  Se  Se2       1.0  0.7427347872601067  0.7427347972848758  0.2572652303249849  1.0000
  Se  Se3       1.0  0.7427347670353984  0.2572651492547682  0.25726522192495366  1.0000
  Se  Se4       1.0  0.25726520436749606  0.7427349209679682  0.7427347447103472  1.0000
  Se  Se5       1.0  0.25726521258764024  0.7427348691541396  0.2572651843871038  1.0000
  Se  Se6       1.0  0.7427348078294383  0.25726518218848665  0.7427348504251094  1.0000
