data_image0
_chemical_formula_structural       Sc2VO6
_chemical_formula_sum              "Sc2 V1 O6"
_cell_length_a       5.060055138764204
_cell_length_b       5.060054743611298
_cell_length_c       5.060054949003634
_cell_angle_alpha    59.999999915807415
_cell_angle_beta     60.00000002804557
_cell_angle_gamma    59.999999967695

_space_group_name_H-M_alt    "P 1"
_space_group_IT_number       1

loop_
  _space_group_symop_operation_xyz
  'x, y, z'

loop_
  _atom_site_type_symbol
  _atom_site_label
  _atom_site_symmetry_multiplicity
  _atom_site_fract_x
  _atom_site_fract_y
  _atom_site_fract_z
  _atom_site_occupancy
  Sc  Sc1       1.0  0.2500000049626774  0.24999992273980529  0.2500000491799175  1.0000
  Sc  Sc2       1.0  0.7500001190053555  0.7499998529340564  0.7500000847439806  1.0000
  V   V1        1.0  0.9999999912635601  1.9363345364019093e-08  0.9999999729476532  1.0000
  O   O1        1.0  0.2579289529158725  0.25792909172518425  0.7420709582035044  1.0000
  O   O2        1.0  0.7420709752792252  0.7420710179663889  0.2579289741883812  1.0000
  O   O3        1.0  0.7420710006639013  0.25792908701822576  0.257928974056424  1.0000
  O   O4        1.0  0.25792896339843835  0.7420709766854021  0.7420709989685486  1.0000
  O   O5        1.0  0.2579290471312946  0.7420709554577642  0.2579289782139504  1.0000
  O   O6        1.0  0.7420709342654995  0.25792907678042676  0.7420710078053024  1.0000
