data_image0
_chemical_formula_structural       Sc2ZnTe6
_chemical_formula_sum              "Sc2 Zn1 Te6"
_cell_length_a       7.096717597632686
_cell_length_b       7.096717724028377
_cell_length_c       7.096717605867527
_cell_angle_alpha    60.00000067024564
_cell_angle_beta     60.000000551900456
_cell_angle_gamma    60.000000157127566

_space_group_name_H-M_alt    "P 1"
_space_group_IT_number       1

loop_
  _space_group_symop_operation_xyz
  'x, y, z'

loop_
  _atom_site_type_symbol
  _atom_site_label
  _atom_site_symmetry_multiplicity
  _atom_site_fract_x
  _atom_site_fract_y
  _atom_site_fract_z
  _atom_site_occupancy
  Sc  Sc1       1.0  0.24999995630174957  0.2500000239343518  0.2500000051731294  1.0000
  Sc  Sc2       1.0  0.7500000196663824  0.750000044190405  0.7499999609906579  1.0000
  Zn  Zn1       1.0  0.9999999707123621  1.6892006678636507e-16  3.578035090672234e-08  1.0000
  Te  Te1       1.0  0.261913776477959  0.2619137667539218  0.7380862261439516  1.0000
  Te  Te2       1.0  0.7380862459708861  0.7380861960976091  0.2619137820980113  1.0000
  Te  Te3       1.0  0.7380862818216343  0.2619137432055529  0.26191377430169743  1.0000
  Te  Te4       1.0  0.2619137520168479  0.7380862196459779  0.7380862409273663  1.0000
  Te  Te5       1.0  0.26191376377102715  0.7380862442242913  0.26191376421408075  1.0000
  Te  Te6       1.0  0.7380862290771467  0.261913763497795  0.7380862152564078  1.0000
