data_image0
_chemical_formula_structural       Sc2ZnS6
_chemical_formula_sum              "Sc2 Zn1 S6"
_cell_length_a       6.151903021580524
_cell_length_b       6.151903013762458
_cell_length_c       6.151903314829437
_cell_angle_alpha    59.99999877918214
_cell_angle_beta     59.999998572931396
_cell_angle_gamma    59.99999816193692

_space_group_name_H-M_alt    "P 1"
_space_group_IT_number       1

loop_
  _space_group_symop_operation_xyz
  'x, y, z'

loop_
  _atom_site_type_symbol
  _atom_site_label
  _atom_site_symmetry_multiplicity
  _atom_site_fract_x
  _atom_site_fract_y
  _atom_site_fract_z
  _atom_site_occupancy
  Sc  Sc1       1.0  0.24999993889782082  0.2499999545700483  0.25000008885716085  1.0000
  Sc  Sc2       1.0  0.7500000180020521  0.7500000030688777  0.7499999987070306  1.0000
  Zn  Zn1       1.0  3.2230717275788175e-08  1.5926712339446632e-08  0.99999999867847  1.0000
  S   S1        1.0  0.2625313997367474  0.2625314084348179  0.7374686124712795  1.0000
  S   S2        1.0  0.7374685655037732  0.7374686368010273  0.2625314173710496  1.0000
  S   S3        1.0  0.737468560662256  0.2625313863549399  0.2625314399299414  1.0000
  S   S4        1.0  0.26253139324159047  0.7374685971648939  0.7374685597926893  1.0000
  S   S5        1.0  0.2625314214181661  0.737468589317984  0.2625313813279339  1.0000
  S   S6        1.0  0.7374686629830272  0.26253140813772174  0.7374685152933371  1.0000
