data_image0
_chemical_formula_structural       Sc2ZnO6
_chemical_formula_sum              "Sc2 Zn1 O6"
_cell_length_a       5.006720238638256
_cell_length_b       5.006720355144914
_cell_length_c       5.0067204419294455
_cell_angle_alpha    60.00000144845474
_cell_angle_beta     60.00000047434842
_cell_angle_gamma    60.000002063774375

_space_group_name_H-M_alt    "P 1"
_space_group_IT_number       1

loop_
  _space_group_symop_operation_xyz
  'x, y, z'

loop_
  _atom_site_type_symbol
  _atom_site_label
  _atom_site_symmetry_multiplicity
  _atom_site_fract_x
  _atom_site_fract_y
  _atom_site_fract_z
  _atom_site_occupancy
  Sc  Sc1       1.0  0.24999990442205347  0.2500000263017914  0.2500000936295669  1.0000
  Sc  Sc2       1.0  0.749999885727156  0.7500000250889324  0.7499999958697816  1.0000
  Zn  Zn1       1.0  3.3359416889640704e-08  2.4462018144385233e-08  0.9999999471214981  1.0000
  O   O1        1.0  0.26433826085816453  0.26433817980099117  0.7356617330275455  1.0000
  O   O2        1.0  0.7356617296834573  0.735661844681514  0.26433823976997733  1.0000
  O   O3        1.0  0.7356618497497733  0.26433824185153276  0.26433818622182603  1.0000
  O   O4        1.0  0.2643382777030281  0.7356617385993427  0.735661847990956  1.0000
  O   O5        1.0  0.26433822614242597  0.7356617359259433  0.264338209772528  1.0000
  O   O6        1.0  0.7356618166767289  0.26433820783190215  0.7356617632673494  1.0000
