data_image0
_chemical_formula_structural       Se2AuO6
_chemical_formula_sum              "Se2 Au1 O6"
_cell_length_a       5.551559957077647
_cell_length_b       5.551559537971402
_cell_length_c       5.55155961047718
_cell_angle_alpha    59.99999998540459
_cell_angle_beta     60.00000075095472
_cell_angle_gamma    59.9999999678746

_space_group_name_H-M_alt    "P 1"
_space_group_IT_number       1

loop_
  _space_group_symop_operation_xyz
  'x, y, z'

loop_
  _atom_site_type_symbol
  _atom_site_label
  _atom_site_symmetry_multiplicity
  _atom_site_fract_x
  _atom_site_fract_y
  _atom_site_fract_z
  _atom_site_occupancy
  Se  Se1       1.0  0.24999801880520833  0.250000553285946  0.25000075995127513  1.0000
  Se  Se2       1.0  0.7500021777937212  0.7499999589335586  0.7500000153070304  1.0000
  Au  Au1       1.0  0.9999999623300845  0.999999975732595  0.9999999535129489  1.0000
  O   O1        1.0  0.24872665099252486  0.24872793796295506  0.7512727397763271  1.0000
  O   O2        1.0  0.7512734354843934  0.751271949922419  0.24872687160877302  1.0000
  O   O3        1.0  0.7512731494967037  0.24872724906095775  0.24872725833220224  1.0000
  O   O4        1.0  0.24872654500018337  0.7512727976656003  0.7512725452767418  1.0000
  O   O5        1.0  0.24872686657530751  0.7512728700060614  0.24872768055842193  1.0000
  O   O6        1.0  0.7512731894846465  0.24872672225821296  0.7512721658975341  1.0000
