data_image0
_chemical_formula_structural       Se2AuS6
_chemical_formula_sum              "Se2 Au1 S6"
_cell_length_a       6.350098254151453
_cell_length_b       6.350098215209748
_cell_length_c       6.350098461614934
_cell_angle_alpha    60.00000077441587
_cell_angle_beta     60.000001250757855
_cell_angle_gamma    60.0000006917685

_space_group_name_H-M_alt    "P 1"
_space_group_IT_number       1

loop_
  _space_group_symop_operation_xyz
  'x, y, z'

loop_
  _atom_site_type_symbol
  _atom_site_label
  _atom_site_symmetry_multiplicity
  _atom_site_fract_x
  _atom_site_fract_y
  _atom_site_fract_z
  _atom_site_occupancy
  Se  Se1       1.0  0.24999992993660933  0.2499999461727996  0.25000010475672185  1.0000
  Se  Se2       1.0  0.750000064441435  0.7499999310961052  0.7500000251553401  1.0000
  Au  Au1       1.0  1.4105965923885022e-08  2.314442702259547e-08  0.9999999923982552  1.0000
  S   S1        1.0  0.2659197281925073  0.2659196950966706  0.7340802685766498  1.0000
  S   S2        1.0  0.7340803080622154  0.7340802747499403  0.26591971379450685  1.0000
  S   S3        1.0  0.7340803687709769  0.26591975060720957  0.26591961821836174  1.0000
  S   S4        1.0  0.26591970089241074  0.7340803426763438  0.7340802384866317  1.0000
  S   S5        1.0  0.2659195785017572  0.7340802568018301  0.2659198002322907  1.0000
  S   S6        1.0  0.7340803153474837  0.2659197747632523  0.7340802350805993  1.0000
