data_image0
_chemical_formula_structural       Se2BeS6
_chemical_formula_sum              "Se2 Be1 S6"
_cell_length_a       6.1478420116451495
_cell_length_b       6.14784153996176
_cell_length_c       6.147841730200245
_cell_angle_alpha    60.0000021541778
_cell_angle_beta     60.00000240823398
_cell_angle_gamma    60.00000456319402

_space_group_name_H-M_alt    "P 1"
_space_group_IT_number       1

loop_
  _space_group_symop_operation_xyz
  'x, y, z'

loop_
  _atom_site_type_symbol
  _atom_site_label
  _atom_site_symmetry_multiplicity
  _atom_site_fract_x
  _atom_site_fract_y
  _atom_site_fract_z
  _atom_site_occupancy
  Se  Se1       1.0  0.25000042665147304  0.250000077506634  0.24999990931002758  1.0000
  Se  Se2       1.0  0.7499999253472651  0.7499997942458947  0.7500001445274518  1.0000
  Be  Be1       1.0  1.548149884966955e-08  0.999999976094152  5.626296103013413e-08  1.0000
  S   S1        1.0  0.26162264075449054  0.2616226846004137  0.7383776430059438  1.0000
  S   S2        1.0  0.7383770705754727  0.7383775258183107  0.26162295058714385  1.0000
  S   S3        1.0  0.7383769057413346  0.26162296928917367  0.2616224130231885  1.0000
  S   S4        1.0  0.26162269640440866  0.7383772869490698  0.7383775307122586  1.0000
  S   S5        1.0  0.26162290153294426  0.7383771658004737  0.2616223999239076  1.0000
  S   S6        1.0  0.7383774107986418  0.2616225206816855  0.7383769547153689  1.0000
