data_image0
_chemical_formula_structural       Se2BeO6
_chemical_formula_sum              "Se2 Be1 O6"
_cell_length_a       5.098121726521374
_cell_length_b       5.098121589981837
_cell_length_c       5.098121705368754
_cell_angle_alpha    59.999999857931385
_cell_angle_beta     60.00000005953531
_cell_angle_gamma    59.99999981535671

_space_group_name_H-M_alt    "P 1"
_space_group_IT_number       1

loop_
  _space_group_symop_operation_xyz
  'x, y, z'

loop_
  _atom_site_type_symbol
  _atom_site_label
  _atom_site_symmetry_multiplicity
  _atom_site_fract_x
  _atom_site_fract_y
  _atom_site_fract_z
  _atom_site_occupancy
  Se  Se1       1.0  0.250000095269973  0.24999989449641905  0.24999997420547498  1.0000
  Se  Se2       1.0  0.7499999654386262  0.750000053450443  0.7500000527805114  1.0000
  Be  Be1       1.0  0.9999999889264476  2.6425798894640768e-08  0.99999998447785  1.0000
  O   O1        1.0  0.23470215298763608  0.23470211830300813  0.7652978701242847  1.0000
  O   O2        1.0  0.7652978391992347  0.7652978993118689  0.23470211509691744  1.0000
  O   O3        1.0  0.7652978595706929  0.234702147150254  0.23470211237162217  1.0000
  O   O4        1.0  0.23470212728549056  0.765297872866968  0.7652978527371773  1.0000
  O   O5        1.0  0.23470213388774908  0.7652978882810404  0.2347021407375346  1.0000
  O   O6        1.0  0.7652978315318645  0.2347021077127284  0.7652978981004509  1.0000
