data_image0
_chemical_formula_structural       Se2CoS6
_chemical_formula_sum              "Se2 Co1 S6"
_cell_length_a       6.158592776582645
_cell_length_b       6.158593048423137
_cell_length_c       6.158592966315892
_cell_angle_alpha    60.00000119794392
_cell_angle_beta     59.999999720179936
_cell_angle_gamma    60.00000002325475

_space_group_name_H-M_alt    "P 1"
_space_group_IT_number       1

loop_
  _space_group_symop_operation_xyz
  'x, y, z'

loop_
  _atom_site_type_symbol
  _atom_site_label
  _atom_site_symmetry_multiplicity
  _atom_site_fract_x
  _atom_site_fract_y
  _atom_site_fract_z
  _atom_site_occupancy
  Se  Se1       1.0  0.2500001101253187  0.2499998998294401  0.24999998759428035  1.0000
  Se  Se2       1.0  0.749999929853065  0.749999989835077  0.749999920446057  1.0000
  Co  Co1       1.0  0.9999999505886107  1.9886770390548132e-09  1.559261832280607e-08  1.0000
  S   S1        1.0  0.24846381141713028  0.24846375166324988  0.7515361958876005  1.0000
  S   S2        1.0  0.7515362719480738  0.7515362553331739  0.2484637941681255  1.0000
  S   S3        1.0  0.7515362336691986  0.248463719162613  0.24846373921275228  1.0000
  S   S4        1.0  0.2484638070272717  0.7515362639696946  0.7515362435157104  1.0000
  S   S5        1.0  0.248463691259495  0.7515363525375245  0.24846383181569281  1.0000
  S   S6        1.0  0.7515361803866558  0.24846377775683848  0.7515362787667226  1.0000
