data_image0
_chemical_formula_structural       Se2CN6
_chemical_formula_sum              "Se2 C1 N6"
_cell_length_a       4.851232517155118
_cell_length_b       4.851232922612523
_cell_length_c       4.851232702605903
_cell_angle_alpha    60.00000072019319
_cell_angle_beta     59.99999903162037
_cell_angle_gamma    59.999999702641006

_space_group_name_H-M_alt    "P 1"
_space_group_IT_number       1

loop_
  _space_group_symop_operation_xyz
  'x, y, z'

loop_
  _atom_site_type_symbol
  _atom_site_label
  _atom_site_symmetry_multiplicity
  _atom_site_fract_x
  _atom_site_fract_y
  _atom_site_fract_z
  _atom_site_occupancy
  Se  Se1       1.0  0.2500002294856258  0.24999989722992277  0.24999983033161408  1.0000
  Se  Se2       1.0  0.7499996327810866  0.7500003809070467  0.749999948381215  1.0000
  C   C1        1.0  0.9999991410289797  0.9999999848523916  0.9999998928677303  1.0000
  N   N1        1.0  0.2378389968810989  0.2378386262074569  0.7621612056009011  1.0000
  N   N2        1.0  0.7621617089202295  0.7621617276676528  0.23783830724073568  1.0000
  N   N3        1.0  0.7621613564545923  0.23783853181725656  0.23783854989301442  1.0000
  N   N4        1.0  0.2378385800116001  0.7621615165806238  0.7621614323308575  1.0000
  N   N5        1.0  0.23783880946845457  0.7621611734080633  0.23783885287533524  1.0000
  N   N6        1.0  0.7621616408494508  0.23783814032964412  0.7621619364829038  1.0000
