data_image0
_chemical_formula_structural       Se2CuS6
_chemical_formula_sum              "Se2 Cu1 S6"
_cell_length_a       6.199266847737605
_cell_length_b       6.1992669285410305
_cell_length_c       6.199266641639519
_cell_angle_alpha    60.000002457324086
_cell_angle_beta     60.00000162414791
_cell_angle_gamma    59.99999947392466

_space_group_name_H-M_alt    "P 1"
_space_group_IT_number       1

loop_
  _space_group_symop_operation_xyz
  'x, y, z'

loop_
  _atom_site_type_symbol
  _atom_site_label
  _atom_site_symmetry_multiplicity
  _atom_site_fract_x
  _atom_site_fract_y
  _atom_site_fract_z
  _atom_site_occupancy
  Se  Se1       1.0  0.2500002851931915  0.24999991160152085  0.25000003971139545  1.0000
  Se  Se2       1.0  0.7499999848707407  0.7500002682242787  0.7499998716004863  1.0000
  Cu  Cu1       1.0  0.999999973529239  0.999999922950487  0.9999998356055366  1.0000
  S   S1        1.0  0.26042789043220843  0.26042800792516746  0.7395719469480598  1.0000
  S   S2        1.0  0.739571900991282  0.7395720711435879  0.2604279717711072  1.0000
  S   S3        1.0  0.739571895756006  0.2604280766878309  0.2604280937399037  1.0000
  S   S4        1.0  0.2604280425546625  0.7395718858188413  0.7395721195307692  1.0000
  S   S5        1.0  0.2604280344592255  0.739571919273327  0.2604280626108066  1.0000
  S   S6        1.0  0.739571985865782  0.2604279424762884  0.7395720648586769  1.0000
