data_image0
_chemical_formula_structural       Se2CdO6
_chemical_formula_sum              "Se2 Cd1 O6"
_cell_length_a       5.320414023423273
_cell_length_b       5.3204135422219805
_cell_length_c       5.320413760582624
_cell_angle_alpha    59.99999836925549
_cell_angle_beta     60.000003863556685
_cell_angle_gamma    60.0000011425141

_space_group_name_H-M_alt    "P 1"
_space_group_IT_number       1

loop_
  _space_group_symop_operation_xyz
  'x, y, z'

loop_
  _atom_site_type_symbol
  _atom_site_label
  _atom_site_symmetry_multiplicity
  _atom_site_fract_x
  _atom_site_fract_y
  _atom_site_fract_z
  _atom_site_occupancy
  Se  Se1       1.0  0.2499999612789005  0.25000006424678434  0.2499999871194  1.0000
  Se  Se2       1.0  0.7499999829944851  0.7500000385081569  0.7499999700998775  1.0000
  Cd  Cd1       1.0  0.999999836138495  7.780669133791793e-07  0.9999996007991911  1.0000
  O   O1        1.0  0.2528040406231383  0.25280395622795265  0.7471960935415006  1.0000
  O   O2        1.0  0.7471955712265722  0.7471956723205125  0.25280434217497033  1.0000
  O   O3        1.0  0.7471959466224647  0.25280397252185366  0.2528041350785312  1.0000
  O   O4        1.0  0.25280430224831246  0.7471957112739906  0.747195625581941  1.0000
  O   O5        1.0  0.252804339446972  0.7471956640239383  0.25280432602760544  1.0000
  O   O6        1.0  0.7471959801228404  0.25280406811333667  0.7471960104015714  1.0000
