data_image0
_chemical_formula_structural       Se2CoO6
_chemical_formula_sum              "Se2 Co1 O6"
_cell_length_a       5.500001878720633
_cell_length_b       5.500001780060404
_cell_length_c       5.500001793731325
_cell_angle_alpha    60.00000026509404
_cell_angle_beta     60.000000584519576
_cell_angle_gamma    60.0000001966134

_space_group_name_H-M_alt    "P 1"
_space_group_IT_number       1

loop_
  _space_group_symop_operation_xyz
  'x, y, z'

loop_
  _atom_site_type_symbol
  _atom_site_label
  _atom_site_symmetry_multiplicity
  _atom_site_fract_x
  _atom_site_fract_y
  _atom_site_fract_z
  _atom_site_occupancy
  Se  Se1       1.0  0.2500001707596244  0.250000075331537  0.24999957286465507  1.0000
  Se  Se2       1.0  0.7499999171180898  0.7500000589840036  0.7500002669520067  1.0000
  Co  Co1       1.0  0.9999999964597076  0.9999999287421397  4.8308163506374044e-08  1.0000
  O   O1        1.0  0.23216104943510937  0.23216095236225687  0.7678390700700501  1.0000
  O   O2        1.0  0.7678389565457675  0.7678389993550159  0.23216074926694083  1.0000
  O   O3        1.0  0.767838981486105  0.23216112667214137  0.2321611645376463  1.0000
  O   O4        1.0  0.23216101881132342  0.7678388294987489  0.767839008141418  1.0000
  O   O5        1.0  0.23216110200643994  0.7678389188372488  0.23216110384953417  1.0000
  O   O6        1.0  0.7678387896069019  0.23216104846768165  0.7678390357863979  1.0000
