data_image0
_chemical_formula_structural       Se2CrO6
_chemical_formula_sum              "Se2 Cr1 O6"
_cell_length_a       5.352462774198037
_cell_length_b       5.352462324349336
_cell_length_c       5.352462160661694
_cell_angle_alpha    59.999989930103574
_cell_angle_beta     59.9999952332836
_cell_angle_gamma    59.99999286128533

_space_group_name_H-M_alt    "P 1"
_space_group_IT_number       1

loop_
  _space_group_symop_operation_xyz
  'x, y, z'

loop_
  _atom_site_type_symbol
  _atom_site_label
  _atom_site_symmetry_multiplicity
  _atom_site_fract_x
  _atom_site_fract_y
  _atom_site_fract_z
  _atom_site_occupancy
  Se  Se1       1.0  0.25000233506433484  0.24999837530001656  0.2500017468509613  1.0000
  Se  Se2       1.0  0.7500052338430575  0.7499868746884186  0.7499984105550641  1.0000
  Cr  Cr1       1.0  0.9999990677689358  1.560545490346932e-06  0.9999998147553514  1.0000
  O   O1        1.0  0.2527304774117378  0.2527359602302703  0.7472665455024766  1.0000
  O   O2        1.0  0.7472663695343064  0.7472689453088589  0.2527337467284974  1.0000
  O   O3        1.0  0.7472658300190406  0.25273534992025853  0.25273164560104083  1.0000
  O   O4        1.0  0.2527324701538693  0.747268541950861  0.7472672572952871  1.0000
  O   O5        1.0  0.2527313456387603  0.7472681990899432  0.252733494419528  1.0000
  O   O6        1.0  0.7472668651599008  0.25273619389456603  0.7472672969704345  1.0000
