data_image0
_chemical_formula_structural       Se2CoN6
_chemical_formula_sum              "Se2 Co1 N6"
_cell_length_a       5.169340248170766
_cell_length_b       5.169340199877376
_cell_length_c       5.169340112879991
_cell_angle_alpha    59.99999951555212
_cell_angle_beta     60.00000150494924
_cell_angle_gamma    59.99999796330957

_space_group_name_H-M_alt    "P 1"
_space_group_IT_number       1

loop_
  _space_group_symop_operation_xyz
  'x, y, z'

loop_
  _atom_site_type_symbol
  _atom_site_label
  _atom_site_symmetry_multiplicity
  _atom_site_fract_x
  _atom_site_fract_y
  _atom_site_fract_z
  _atom_site_occupancy
  Se  Se1       1.0  0.24999927855406343  0.2500019556319055  0.24999932286723395  1.0000
  Se  Se2       1.0  0.7499998386566222  0.7499993017094703  0.7500008029597767  1.0000
  Co  Co1       1.0  0.9999999953970041  7.107743314781887e-09  5.291314712934042e-08  1.0000
  N   N1        1.0  0.24818919936487813  0.2481896112614722  0.7518106494757273  1.0000
  N   N2        1.0  0.7518112395095541  0.7518099260058371  0.2481892151495358  1.0000
  N   N3        1.0  0.7518105741003068  0.2481898409718313  0.2481889508909419  1.0000
  N   N4        1.0  0.24818955832085446  0.7518097578959285  0.751811303119368  1.0000
  N   N5        1.0  0.24818959065990784  0.7518099996120945  0.24818921567813335  1.0000
  N   N6        1.0  0.7518107126991231  0.24818961584040422  0.7518104899673939  1.0000
