data_image0
_chemical_formula_structural       Se2CS6
_chemical_formula_sum              "Se2 C1 S6"
_cell_length_a       5.757398210917538
_cell_length_b       5.757398292823482
_cell_length_c       5.757398858116796
_cell_angle_alpha    59.99998992567847
_cell_angle_beta     59.99998592950672
_cell_angle_gamma    59.99999048336086

_space_group_name_H-M_alt    "P 1"
_space_group_IT_number       1

loop_
  _space_group_symop_operation_xyz
  'x, y, z'

loop_
  _atom_site_type_symbol
  _atom_site_label
  _atom_site_symmetry_multiplicity
  _atom_site_fract_x
  _atom_site_fract_y
  _atom_site_fract_z
  _atom_site_occupancy
  Se  Se1       1.0  0.24999750042360722  0.24999860133512858  0.24999935664426454  1.0000
  Se  Se2       1.0  0.7499984037967892  0.7499981503664545  0.7499994271307984  1.0000
  C   C1        1.0  0.999981484115687  0.9999924376123174  0.9999953644895261  1.0000
  S   S1        1.0  0.2560625746969125  0.25606257554623274  0.7439393424958043  1.0000
  S   S2        1.0  0.7439487136643644  0.7439475778563692  0.25605389610194196  1.0000
  S   S3        1.0  0.7439426973582717  0.25606041473940666  0.2560597133060706  1.0000
  S   S4        1.0  0.256057432470406  0.7439456394444094  0.7439449979181294  1.0000
  S   S5        1.0  0.256063157966613  0.7439402761613412  0.2560611719185288  1.0000
  S   S6        1.0  0.7439482299447234  0.256054380193784  0.743946758169883  1.0000
