data_image0
_chemical_formula_structural       Se2FeS6
_chemical_formula_sum              "Se2 Fe1 S6"
_cell_length_a       6.235203048193959
_cell_length_b       6.235203615473594
_cell_length_c       6.235203534181672
_cell_angle_alpha    60.00000007937813
_cell_angle_beta     59.99999816356187
_cell_angle_gamma    60.000001480663336

_space_group_name_H-M_alt    "P 1"
_space_group_IT_number       1

loop_
  _space_group_symop_operation_xyz
  'x, y, z'

loop_
  _atom_site_type_symbol
  _atom_site_label
  _atom_site_symmetry_multiplicity
  _atom_site_fract_x
  _atom_site_fract_y
  _atom_site_fract_z
  _atom_site_occupancy
  Se  Se1       1.0  0.25000000086097374  0.25000003498709056  0.24999989186293328  1.0000
  Se  Se2       1.0  0.7499999572996181  0.7499998574667844  0.7499999775459931  1.0000
  Fe  Fe1       1.0  3.434532575851667e-08  0.9999999469654669  7.189268245959722e-08  1.0000
  S   S1        1.0  0.24906010470124454  0.24906015949209093  0.7509398519287551  1.0000
  S   S2        1.0  0.7509398653152944  0.7509399529568814  0.24906010684064986  1.0000
  S   S3        1.0  0.7509399019799872  0.24906006436278533  0.2490602754902869  1.0000
  S   S4        1.0  0.24906017571357827  0.7509397750565544  0.7509399969021738  1.0000
  S   S5        1.0  0.24906029391121942  0.7509397981080533  0.24906018605021468  1.0000
  S   S6        1.0  0.7509396595119627  0.24906037523242017  0.750939654342305  1.0000
