data_image0
_chemical_formula_structural       Se2GeS6
_chemical_formula_sum              "Se2 Ge1 S6"
_cell_length_a       6.34427614624869
_cell_length_b       6.344276258002572
_cell_length_c       6.34427590064838
_cell_angle_alpha    60.0000001049556
_cell_angle_beta     60.00000372514928
_cell_angle_gamma    60.000001401032755

_space_group_name_H-M_alt    "P 1"
_space_group_IT_number       1

loop_
  _space_group_symop_operation_xyz
  'x, y, z'

loop_
  _atom_site_type_symbol
  _atom_site_label
  _atom_site_symmetry_multiplicity
  _atom_site_fract_x
  _atom_site_fract_y
  _atom_site_fract_z
  _atom_site_occupancy
  Se  Se1       1.0  0.24999999715971047  0.24999999461837155  0.24999966173958085  1.0000
  Se  Se2       1.0  0.7499999554123045  0.7499997753640892  0.7500001950922377  1.0000
  Ge  Ge1       1.0  0.9999999422909608  3.860938982617175e-09  2.0030869006395097e-07  1.0000
  S   S1        1.0  0.26142109250132617  0.26142097000273873  0.738578962120438  1.0000
  S   S2        1.0  0.7385791434301068  0.7385788617548298  0.2614208261749066  1.0000
  S   S3        1.0  0.7385789570446444  0.2614211376211418  0.2614210462918399  1.0000
  S   S4        1.0  0.2614213443144771  0.7385788582265563  0.7385787785620996  1.0000
  S   S5        1.0  0.26142100422032416  0.7385791443419232  0.26142111609938584  1.0000
  S   S6        1.0  0.7385785432745865  0.2614212839315274  0.738579157922757  1.0000
