data_image0
_chemical_formula_structural       Se2HfN6
_chemical_formula_sum              "Se2 Hf1 N6"
_cell_length_a       5.197796655770207
_cell_length_b       5.197796689088518
_cell_length_c       5.197796701160542
_cell_angle_alpha    60.00000089653633
_cell_angle_beta     60.00000025749791
_cell_angle_gamma    59.999999431118354

_space_group_name_H-M_alt    "P 1"
_space_group_IT_number       1

loop_
  _space_group_symop_operation_xyz
  'x, y, z'

loop_
  _atom_site_type_symbol
  _atom_site_label
  _atom_site_symmetry_multiplicity
  _atom_site_fract_x
  _atom_site_fract_y
  _atom_site_fract_z
  _atom_site_occupancy
  Se  Se1       1.0  0.25000000746431955  0.24999998165510035  0.25000003128670617  1.0000
  Se  Se2       1.0  0.7499999962275163  0.7499999968033945  0.7500000444698435  1.0000
  Hf  Hf1       1.0  0.999999979736811  1.4137662058338993e-08  0.9999999992149793  1.0000
  N   N1        1.0  0.2866717659696546  0.2866717161448512  0.7133282620120096  1.0000
  N   N2        1.0  0.713328233390779  0.7133282953015203  0.28667168013499283  1.0000
  N   N3        1.0  0.7133283603103074  0.286671668534651  0.2866716931027846  1.0000
  N   N4        1.0  0.28667173868358314  0.7133282439480866  0.7133282717960112  1.0000
  N   N5        1.0  0.2866716686737883  0.7133283602912288  0.2866717213540702  1.0000
  N   N6        1.0  0.7133282633441576  0.28667172655600726  0.7133282879477517  1.0000
