data_image0
_chemical_formula_structural       Se2InO6
_chemical_formula_sum              "Se2 In1 O6"
_cell_length_a       5.508474953816739
_cell_length_b       5.508475299786077
_cell_length_c       5.508474991342438
_cell_angle_alpha    60.00000002938899
_cell_angle_beta     59.999999187488754
_cell_angle_gamma    59.99999951274141

_space_group_name_H-M_alt    "P 1"
_space_group_IT_number       1

loop_
  _space_group_symop_operation_xyz
  'x, y, z'

loop_
  _atom_site_type_symbol
  _atom_site_label
  _atom_site_symmetry_multiplicity
  _atom_site_fract_x
  _atom_site_fract_y
  _atom_site_fract_z
  _atom_site_occupancy
  Se  Se1       1.0  0.24999985636324099  0.25000000536343825  0.2500001615843914  1.0000
  Se  Se2       1.0  0.7500002147053536  0.7500000538878151  0.7499998798158561  1.0000
  In  In1       1.0  0.9999999951717624  3.3350741999316765e-08  0.9999999058618303  1.0000
  O   O1        1.0  0.27054428999658503  0.27054429427843013  0.7294556663834191  1.0000
  O   O2        1.0  0.7294556554692709  0.7294556827076683  0.27054432827386543  1.0000
  O   O3        1.0  0.729455666025806  0.27054430009340263  0.2705444232070247  1.0000
  O   O4        1.0  0.2705441623456298  0.7294558080722757  0.7294556170538284  1.0000
  O   O5        1.0  0.27054427766243966  0.7294555897523144  0.2705444392273162  1.0000
  O   O6        1.0  0.7294558735750932  0.2705442227034602  0.7294555838246738  1.0000
