data_image0
_chemical_formula_structural       Se2IrN6
_chemical_formula_sum              "Se2 Ir1 N6"
_cell_length_a       5.043174011019686
_cell_length_b       5.04317371938996
_cell_length_c       5.043173934670112
_cell_angle_alpha    59.99999888191969
_cell_angle_beta     60.00000074461357
_cell_angle_gamma    60.000000235260444

_space_group_name_H-M_alt    "P 1"
_space_group_IT_number       1

loop_
  _space_group_symop_operation_xyz
  'x, y, z'

loop_
  _atom_site_type_symbol
  _atom_site_label
  _atom_site_symmetry_multiplicity
  _atom_site_fract_x
  _atom_site_fract_y
  _atom_site_fract_z
  _atom_site_occupancy
  Se  Se1       1.0  0.24999987076880362  0.25000022690836843  0.24999994279159535  1.0000
  Se  Se2       1.0  0.7500000806294889  0.7499999351694342  0.7500000363918213  1.0000
  Ir  Ir1       1.0  2.0491615405184135e-08  0.9999999660007185  0.9999999710620242  1.0000
  N   N1        1.0  0.29162830824173136  0.29162952023514427  0.7083712367196352  1.0000
  N   N2        1.0  0.7083717009331434  0.7083704135617672  0.29162879995563984  1.0000
  N   N3        1.0  0.708371463119385  0.291629362278012  0.2916283733728496  1.0000
  N   N4        1.0  0.29162861807366164  0.7083706370889441  0.7083715171760651  1.0000
  N   N5        1.0  0.29162871375558247  0.7083707453673163  0.29162910624014454  1.0000
  N   N6        1.0  0.7083712280716106  0.2916291981436746  0.7083710187382796  1.0000
