data_image0
_chemical_formula_structural       Se2InS6
_chemical_formula_sum              "Se2 In1 S6"
_cell_length_a       6.486110227687333
_cell_length_b       6.486110211324317
_cell_length_c       6.48611074970292
_cell_angle_alpha    59.9999942014301
_cell_angle_beta     59.9999955050755
_cell_angle_gamma    59.999992567291024

_space_group_name_H-M_alt    "P 1"
_space_group_IT_number       1

loop_
  _space_group_symop_operation_xyz
  'x, y, z'

loop_
  _atom_site_type_symbol
  _atom_site_label
  _atom_site_symmetry_multiplicity
  _atom_site_fract_x
  _atom_site_fract_y
  _atom_site_fract_z
  _atom_site_occupancy
  Se  Se1       1.0  0.24999997708842595  0.2499999710031969  0.25000001905939373  1.0000
  Se  Se2       1.0  0.7500000682346348  0.7500001056119044  0.7499998399726362  1.0000
  In  In1       1.0  2.2282722915153844e-08  0.9999998583806483  3.345846580272826e-08  1.0000
  S   S1        1.0  0.2788633813389718  0.27886340918823005  0.7211367825804246  1.0000
  S   S2        1.0  0.7211366739097438  0.7211367070802761  0.2788635265229146  1.0000
  S   S3        1.0  0.7211366994812346  0.27886343431089866  0.2788632070189169  1.0000
  S   S4        1.0  0.2788632710271882  0.721137080380065  0.721136524343951  1.0000
  S   S5        1.0  0.27886308319664466  0.721136482715865  0.2788634082507151  1.0000
  S   S6        1.0  0.7211368354686611  0.27886295377977827  0.7211366368251731  1.0000
