data_image0
_chemical_formula_structural       Se2MgS6
_chemical_formula_sum              "Se2 Mg1 S6"
_cell_length_a       6.441330086319046
_cell_length_b       6.441329906179263
_cell_length_c       6.441329745978311
_cell_angle_alpha    60.00000122455769
_cell_angle_beta     60.00000153652324
_cell_angle_gamma    60.00000006021147

_space_group_name_H-M_alt    "P 1"
_space_group_IT_number       1

loop_
  _space_group_symop_operation_xyz
  'x, y, z'

loop_
  _atom_site_type_symbol
  _atom_site_label
  _atom_site_symmetry_multiplicity
  _atom_site_fract_x
  _atom_site_fract_y
  _atom_site_fract_z
  _atom_site_occupancy
  Se  Se1       1.0  0.24999998300852097  0.25000008903761467  0.2500000151045078  1.0000
  Se  Se2       1.0  0.7499998478390453  0.7500003716890242  0.7500000249889989  1.0000
  Mg  Mg1       1.0  5.635178508516091e-08  0.9999999277473666  3.589496434968395e-08  1.0000
  S   S1        1.0  0.27474346411146155  0.2747433044154479  0.7252565189506146  1.0000
  S   S2        1.0  0.7252565239018216  0.7252565288541091  0.2747433371204644  1.0000
  S   S3        1.0  0.7252566271862593  0.27474320637520044  0.27474351737270597  1.0000
  S   S4        1.0  0.2747434627747355  0.725256482389091  0.725256600610693  1.0000
  S   S5        1.0  0.2747434901941781  0.7252566073699167  0.2747433269125078  1.0000
  S   S6        1.0  0.7252565408020166  0.2747434787838582  0.7252566234110251  1.0000
