data_image0
_chemical_formula_structural       Se2MgO6
_chemical_formula_sum              "Se2 Mg1 O6"
_cell_length_a       5.394795177435405
_cell_length_b       5.394795141696782
_cell_length_c       5.394795025527668
_cell_angle_alpha    59.99999845183513
_cell_angle_beta     59.99999676925699
_cell_angle_gamma    59.99999753761714

_space_group_name_H-M_alt    "P 1"
_space_group_IT_number       1

loop_
  _space_group_symop_operation_xyz
  'x, y, z'

loop_
  _atom_site_type_symbol
  _atom_site_label
  _atom_site_symmetry_multiplicity
  _atom_site_fract_x
  _atom_site_fract_y
  _atom_site_fract_z
  _atom_site_occupancy
  Se  Se1       1.0  0.24999976977182967  0.2500003673922516  0.2500000670618481  1.0000
  Se  Se2       1.0  0.7500003531433141  0.7500007639118234  0.7500007974670053  1.0000
  Mg  Mg1       1.0  0.9999999899249203  4.5404686141634655e-09  1.2035498512728819e-08  1.0000
  O   O1        1.0  0.2648633587058962  0.2648632797063937  0.735136705839295  1.0000
  O   O2        1.0  0.7351367973323774  0.735136525780875  0.2648626492547908  1.0000
  O   O3        1.0  0.7351367446257715  0.2648633854590775  0.26486320247988554  1.0000
  O   O4        1.0  0.2648628215455489  0.7351366357004516  0.7351367734629809  1.0000
  O   O5        1.0  0.2648633760080203  0.7351365404646758  0.2648632530211389  1.0000
  O   O6        1.0  0.7351367968422217  0.2648624954131665  0.7351365377881219  1.0000
