data_image0
_chemical_formula_structural       Se2MoN6
_chemical_formula_sum              "Se2 Mo1 N6"
_cell_length_a       5.207362664549625
_cell_length_b       5.207362534156031
_cell_length_c       5.20736278901419
_cell_angle_alpha    59.99999953831941
_cell_angle_beta     59.999998089587336
_cell_angle_gamma    59.99999967822657

_space_group_name_H-M_alt    "P 1"
_space_group_IT_number       1

loop_
  _space_group_symop_operation_xyz
  'x, y, z'

loop_
  _atom_site_type_symbol
  _atom_site_label
  _atom_site_symmetry_multiplicity
  _atom_site_fract_x
  _atom_site_fract_y
  _atom_site_fract_z
  _atom_site_occupancy
  Se  Se1       1.0  0.24999995053294036  0.2499996712388275  0.2500001556734559  1.0000
  Se  Se2       1.0  0.7499998021228312  0.7500002132102435  0.7499999726665227  1.0000
  Mo  Mo1       1.0  0.9999999951846708  0.9999999811844118  2.3337605675708477e-08  1.0000
  N   N1        1.0  0.26904448602479447  0.2690441953580787  0.7309556787778042  1.0000
  N   N2        1.0  0.7309556015294396  0.7309558019845268  0.2690443274451402  1.0000
  N   N3        1.0  0.7309557025367488  0.2690442817327201  0.2690443557050058  1.0000
  N   N4        1.0  0.2690442138903231  0.7309559296372012  0.73095558874035  1.0000
  N   N5        1.0  0.2690444235184316  0.7309557687460405  0.2690442135678786  1.0000
  N   N6        1.0  0.7309558400435705  0.26904414627836615  0.7309556920402591  1.0000
