data_image0
_chemical_formula_structural       Se2MnS6
_chemical_formula_sum              "Se2 Mn1 S6"
_cell_length_a       6.319968595764689
_cell_length_b       6.319968349598
_cell_length_c       6.319968548026691
_cell_angle_alpha    59.99999980829776
_cell_angle_beta     59.99999846150818
_cell_angle_gamma    60.00000029071024

_space_group_name_H-M_alt    "P 1"
_space_group_IT_number       1

loop_
  _space_group_symop_operation_xyz
  'x, y, z'

loop_
  _atom_site_type_symbol
  _atom_site_label
  _atom_site_symmetry_multiplicity
  _atom_site_fract_x
  _atom_site_fract_y
  _atom_site_fract_z
  _atom_site_occupancy
  Se  Se1       1.0  0.2499999219415416  0.250000136444775  0.25000003168451146  1.0000
  Se  Se2       1.0  0.7499999947529157  0.7499998376546615  0.7499999926936745  1.0000
  Mn  Mn1       1.0  0.9999999662831999  0.9999999476767764  5.4096016485879104e-08  1.0000
  S   S1        1.0  0.24803412297986946  0.2480341207958148  0.751965920963637  1.0000
  S   S2        1.0  0.751965931425337  0.7519659773290445  0.24803413393967025  1.0000
  S   S3        1.0  0.7519658614472157  0.2480340930211438  0.24803415456195055  1.0000
  S   S4        1.0  0.2480342167321415  0.7519657803076423  0.7519658157248122  1.0000
  S   S5        1.0  0.24803411954511798  0.7519658360146849  0.248034235255426  1.0000
  S   S6        1.0  0.7519658347957181  0.24803427179965545  0.7519656670495326  1.0000
