data_image0
_chemical_formula_structural       Se2MnN6
_chemical_formula_sum              "Se2 Mn1 N6"
_cell_length_a       5.200124130206003
_cell_length_b       5.2001241915803655
_cell_length_c       5.200124200704021
_cell_angle_alpha    60.000000172792355
_cell_angle_beta     59.999999237287525
_cell_angle_gamma    60.00000010452025

_space_group_name_H-M_alt    "P 1"
_space_group_IT_number       1

loop_
  _space_group_symop_operation_xyz
  'x, y, z'

loop_
  _atom_site_type_symbol
  _atom_site_label
  _atom_site_symmetry_multiplicity
  _atom_site_fract_x
  _atom_site_fract_y
  _atom_site_fract_z
  _atom_site_occupancy
  Se  Se1       1.0  0.24999993652111824  0.24999993106360832  0.250000133288417  1.0000
  Se  Se2       1.0  0.7500000756182976  0.7500000475548357  0.7499997069738009  1.0000
  Mn  Mn1       1.0  0.9999999218313139  1.0127456041589454e-07  0.9999999326791644  1.0000
  N   N1        1.0  0.24567461343661542  0.24567463308853732  0.7543253476016886  1.0000
  N   N2        1.0  0.7543254047139976  0.754325340819463  0.2456747477732746  1.0000
  N   N3        1.0  0.7543253990726189  0.2456745470448913  0.24567469032481395  1.0000
  N   N4        1.0  0.2456746666287899  0.7543254174422196  0.754325364831855  1.0000
  N   N5        1.0  0.24567452901452924  0.7543253754684142  0.24567472285261654  1.0000
  N   N6        1.0  0.7543254556935117  0.2456746055052532  0.7543253722495822  1.0000
