data_image0
_chemical_formula_structural       Se2NiO6
_chemical_formula_sum              "Se2 Ni1 O6"
_cell_length_a       5.2726363562109695
_cell_length_b       5.2726360276515125
_cell_length_c       5.272636170955763
_cell_angle_alpha    60.00000025786941
_cell_angle_beta     60.00000115267436
_cell_angle_gamma    59.999998812878495

_space_group_name_H-M_alt    "P 1"
_space_group_IT_number       1

loop_
  _space_group_symop_operation_xyz
  'x, y, z'

loop_
  _atom_site_type_symbol
  _atom_site_label
  _atom_site_symmetry_multiplicity
  _atom_site_fract_x
  _atom_site_fract_y
  _atom_site_fract_z
  _atom_site_occupancy
  Se  Se1       1.0  0.24999985531250246  0.25000097070268734  0.24999962225978153  1.0000
  Se  Se2       1.0  0.7500001508107891  0.74999819443583  0.7500006600706116  1.0000
  Ni  Ni1       1.0  1.787284374464909e-08  5.807080657963294e-08  6.444373797587927e-08  1.0000
  O   O1        1.0  0.2402365425606958  0.24023754909111025  0.7597629257305991  1.0000
  O   O2        1.0  0.7597632398341734  0.7597626682904028  0.24023708837952248  1.0000
  O   O3        1.0  0.7597629733628264  0.2402375730593934  0.2402364118620315  1.0000
  O   O4        1.0  0.24023727481226215  0.759762718652747  0.7597632677087945  1.0000
  O   O5        1.0  0.2402370686282264  0.7597626212296978  0.24023692627746238  1.0000
  O   O6        1.0  0.7597628677944246  0.24023767280527833  0.7597630464588325  1.0000
