data_image0
_chemical_formula_structural       Se2NiN6
_chemical_formula_sum              "Se2 Ni1 N6"
_cell_length_a       5.183001976469175
_cell_length_b       5.183001761326838
_cell_length_c       5.183001815034765
_cell_angle_alpha    59.9999993535139
_cell_angle_beta     60.00000021543305
_cell_angle_gamma    59.99999870331098

_space_group_name_H-M_alt    "P 1"
_space_group_IT_number       1

loop_
  _space_group_symop_operation_xyz
  'x, y, z'

loop_
  _atom_site_type_symbol
  _atom_site_label
  _atom_site_symmetry_multiplicity
  _atom_site_fract_x
  _atom_site_fract_y
  _atom_site_fract_z
  _atom_site_occupancy
  Se  Se1       1.0  0.25000037287342075  0.2499997178369985  0.250000043691365  1.0000
  Se  Se2       1.0  0.7500000045005298  0.7499997088167125  0.7500001422967533  1.0000
  Ni  Ni1       1.0  0.9999999875324596  3.071903948180872e-08  0.9999999947330181  1.0000
  N   N1        1.0  0.24850259715624862  0.24850274578686363  0.7514972887979529  1.0000
  N   N2        1.0  0.7514972104796146  0.7514974677468597  0.24850264391541577  1.0000
  N   N3        1.0  0.7514971529565952  0.24850274403770034  0.24850265318098042  1.0000
  N   N4        1.0  0.24850271118663605  0.7514974269619681  0.7514972455343576  1.0000
  N   N5        1.0  0.24850270636774147  0.7514973869737848  0.24850262062027587  1.0000
  N   N6        1.0  0.751497250446007  0.2485027533068439  0.7514973956818795  1.0000
