data_image0
_chemical_formula_structural       Se2NbN6
_chemical_formula_sum              "Se2 Nb1 N6"
_cell_length_a       5.184305143105702
_cell_length_b       5.184304971417403
_cell_length_c       5.184305219638699
_cell_angle_alpha    60.000000909491526
_cell_angle_beta     60.000000678283264
_cell_angle_gamma    60.00000129463922

_space_group_name_H-M_alt    "P 1"
_space_group_IT_number       1

loop_
  _space_group_symop_operation_xyz
  'x, y, z'

loop_
  _atom_site_type_symbol
  _atom_site_label
  _atom_site_symmetry_multiplicity
  _atom_site_fract_x
  _atom_site_fract_y
  _atom_site_fract_z
  _atom_site_occupancy
  Se  Se1       1.0  0.2500001150325957  0.2500000127919324  0.24999997389997813  1.0000
  Se  Se2       1.0  0.7500000042088881  0.7500000053020621  0.749999925435864  1.0000
  Nb  Nb1       1.0  1.991059573589555e-08  7.087227026425935e-09  0.9999999787854938  1.0000
  N   N1        1.0  0.27906917074476867  0.27906925495181867  0.7209307544335949  1.0000
  N   N2        1.0  0.7209308064899189  0.7209307347932656  0.2790692127200096  1.0000
  N   N3        1.0  0.720930731874708  0.27906922771676634  0.2790691913084267  1.0000
  N   N4        1.0  0.27906919946288655  0.7209308329005888  0.7209308598025286  1.0000
  N   N5        1.0  0.279069215758985  0.7209307751110833  0.27906916273940574  1.0000
  N   N6        1.0  0.7209307600822337  0.2790691319496891  0.720930939040229  1.0000
