data_image0
_chemical_formula_structural       Se2NiS6
_chemical_formula_sum              "Se2 Ni1 S6"
_cell_length_a       6.286735223790337
_cell_length_b       6.2867354631921755
_cell_length_c       6.286735652746304
_cell_angle_alpha    60.000000627208635
_cell_angle_beta     60.00000045782611
_cell_angle_gamma    59.999998216416515

_space_group_name_H-M_alt    "P 1"
_space_group_IT_number       1

loop_
  _space_group_symop_operation_xyz
  'x, y, z'

loop_
  _atom_site_type_symbol
  _atom_site_label
  _atom_site_symmetry_multiplicity
  _atom_site_fract_x
  _atom_site_fract_y
  _atom_site_fract_z
  _atom_site_occupancy
  Se  Se1       1.0  0.25000000281287305  0.250000063613435  0.25000007418308523  1.0000
  Se  Se2       1.0  0.7499999972751725  0.7499998771895598  0.7499999045798587  1.0000
  Ni  Ni1       1.0  0.9999999482947937  0.999999918178069  7.153551847019144e-08  1.0000
  S   S1        1.0  0.24621412448940685  0.24621437738852622  0.7537855244640376  1.0000
  S   S2        1.0  0.753785780827319  0.7537857816062912  0.24621428283376245  1.0000
  S   S3        1.0  0.753785660474433  0.24621421502540694  0.24621430050698676  1.0000
  S   S4        1.0  0.24621445851686227  0.7537858153920834  0.7537857744190667  1.0000
  S   S5        1.0  0.24621433367505194  0.7537857625477915  0.24621413347162246  1.0000
  S   S6        1.0  0.7537857097336061  0.246214186047768  0.7537859326709281  1.0000
