data_image0
_chemical_formula_structural       Se2OsN6
_chemical_formula_sum              "Se2 Os1 N6"
_cell_length_a       5.28264459932846
_cell_length_b       5.282644420750353
_cell_length_c       5.282644232526445
_cell_angle_alpha    59.999999673655864
_cell_angle_beta     59.9999978352916
_cell_angle_gamma    59.9999972528225

_space_group_name_H-M_alt    "P 1"
_space_group_IT_number       1

loop_
  _space_group_symop_operation_xyz
  'x, y, z'

loop_
  _atom_site_type_symbol
  _atom_site_label
  _atom_site_symmetry_multiplicity
  _atom_site_fract_x
  _atom_site_fract_y
  _atom_site_fract_z
  _atom_site_occupancy
  Se  Se1       1.0  0.24999989746210016  0.24999990138769557  0.25000003321958403  1.0000
  Se  Se2       1.0  0.750000102820141  0.7499994630462103  0.7500000812549574  1.0000
  Os  Os1       1.0  0.999999969773298  1.854745200838211e-08  0.9999999850167206  1.0000
  N   N1        1.0  0.2606802706720098  0.26068079412146583  0.7393195500198207  1.0000
  N   N2        1.0  0.7393194093371389  0.7393194327689377  0.260680467518226  1.0000
  N   N3        1.0  0.7393195305953253  0.2606806761741224  0.26068043760358056  1.0000
  N   N4        1.0  0.26068090891878765  0.7393193443758698  0.7393193961087441  1.0000
  N   N5        1.0  0.260680419888955  0.7393194464834039  0.2606807491135361  1.0000
  N   N6        1.0  0.7393195852341813  0.26068088705483944  0.7393192986324644  1.0000
