data_image0
_chemical_formula_structural       Se2PN6
_chemical_formula_sum              "Se2 P1 N6"
_cell_length_a       5.101270717854961
_cell_length_b       5.101270653102323
_cell_length_c       5.101270591528948
_cell_angle_alpha    59.999999811420814
_cell_angle_beta     59.999999580576535
_cell_angle_gamma    60.00000115741778

_space_group_name_H-M_alt    "P 1"
_space_group_IT_number       1

loop_
  _space_group_symop_operation_xyz
  'x, y, z'

loop_
  _atom_site_type_symbol
  _atom_site_label
  _atom_site_symmetry_multiplicity
  _atom_site_fract_x
  _atom_site_fract_y
  _atom_site_fract_z
  _atom_site_occupancy
  Se  Se1       1.0  0.2499995157130883  0.24999890270703917  0.25000094107245757  1.0000
  Se  Se2       1.0  0.7500004870271864  0.7500008231992306  0.7499997212430735  1.0000
  P   P1        1.0  5.052782579319171e-09  1.2004312003256678e-08  0.9999999248213909  1.0000
  N   N1        1.0  0.24514473242142287  0.24514460283366096  0.7548552620388377  1.0000
  N   N2        1.0  0.7548552817227872  0.7548554351847169  0.24514451712976637  1.0000
  N   N3        1.0  0.7548556009467473  0.24514441291732159  0.24514489377384932  1.0000
  N   N4        1.0  0.24514432759026691  0.7548558411786668  0.7548548632860578  1.0000
  N   N5        1.0  0.2451444300572506  0.7548557701639382  0.24514485014913165  1.0000
  N   N6        1.0  0.7548556443124558  0.24514419582856958  0.7548550486168232  1.0000
