data_image0
_chemical_formula_structural       Se2PtS6
_chemical_formula_sum              "Se2 Pt1 S6"
_cell_length_a       6.293974455371497
_cell_length_b       6.293974665632106
_cell_length_c       6.293974436757445
_cell_angle_alpha    60.00000071292415
_cell_angle_beta     60.00000068434942
_cell_angle_gamma    60.00000066606926

_space_group_name_H-M_alt    "P 1"
_space_group_IT_number       1

loop_
  _space_group_symop_operation_xyz
  'x, y, z'

loop_
  _atom_site_type_symbol
  _atom_site_label
  _atom_site_symmetry_multiplicity
  _atom_site_fract_x
  _atom_site_fract_y
  _atom_site_fract_z
  _atom_site_occupancy
  Se  Se1       1.0  0.24999996461462898  0.2500001037538602  0.2500000409303207  1.0000
  Se  Se2       1.0  0.7499999856350742  0.7500000193765038  0.7499999781594437  1.0000
  Pt  Pt1       1.0  0.9999999927919315  0.9999999610819891  9.455999373824961e-08  1.0000
  S   S1        1.0  0.2589868130829936  0.2589867568662533  0.741013204607746  1.0000
  S   S2        1.0  0.7410132682795999  0.7410131930789636  0.2589868688833937  1.0000
  S   S3        1.0  0.7410131254541373  0.2589868171113334  0.25898677113850016  1.0000
  S   S4        1.0  0.2589868320991021  0.7410131795354981  0.7410131327709314  1.0000
  S   S5        1.0  0.25898681460292644  0.7410132124698117  0.25898676945023436  1.0000
  S   S6        1.0  0.7410131915214518  0.2589867705557159  0.7410131424054192  1.0000
