data_image0
_chemical_formula_structural       Se2RuN6
_chemical_formula_sum              "Se2 Ru1 N6"
_cell_length_a       5.218273371989411
_cell_length_b       5.218273384768276
_cell_length_c       5.21827313675613
_cell_angle_alpha    60.000002802677635
_cell_angle_beta     60.00000365152723
_cell_angle_gamma    60.00000170228983

_space_group_name_H-M_alt    "P 1"
_space_group_IT_number       1

loop_
  _space_group_symop_operation_xyz
  'x, y, z'

loop_
  _atom_site_type_symbol
  _atom_site_label
  _atom_site_symmetry_multiplicity
  _atom_site_fract_x
  _atom_site_fract_y
  _atom_site_fract_z
  _atom_site_occupancy
  Se  Se1       1.0  0.25000024504794677  0.2500004144858796  0.2499998015127036  1.0000
  Se  Se2       1.0  0.7499998512127577  0.749999633394505  0.7500000363891602  1.0000
  Ru  Ru1       1.0  0.9999999951296019  0.999999868566275  8.923183072122986e-08  1.0000
  N   N1        1.0  0.2599149528861489  0.25991512744058287  0.7400849307083515  1.0000
  N   N2        1.0  0.7400850325311472  0.7400850471794671  0.2599150908796605  1.0000
  N   N3        1.0  0.7400847732506629  0.2599151311975913  0.2599149663213256  1.0000
  N   N4        1.0  0.2599152640276622  0.740084721879238  0.7400852188529216  1.0000
  N   N5        1.0  0.2599150423173332  0.7400847449184916  0.25991491998702876  1.0000
  N   N6        1.0  0.740084848152798  0.2599153029618935  0.740084955654464  1.0000
