data_image0
_chemical_formula_structural       Se2ReN6
_chemical_formula_sum              "Se2 Re1 N6"
_cell_length_a       5.27991736979187
_cell_length_b       5.279917228400773
_cell_length_c       5.2799173239214445
_cell_angle_alpha    60.00000015393503
_cell_angle_beta     59.99999993019726
_cell_angle_gamma    59.99999863377283

_space_group_name_H-M_alt    "P 1"
_space_group_IT_number       1

loop_
  _space_group_symop_operation_xyz
  'x, y, z'

loop_
  _atom_site_type_symbol
  _atom_site_label
  _atom_site_symmetry_multiplicity
  _atom_site_fract_x
  _atom_site_fract_y
  _atom_site_fract_z
  _atom_site_occupancy
  Se  Se1       1.0  0.25000012134951144  0.25000009133105094  0.24999983910994358  1.0000
  Se  Se2       1.0  0.7499999585199586  0.7499996732092649  0.7500001928372438  1.0000
  Re  Re1       1.0  1.031704889933747e-08  0.9999999559270512  1.1915227842824688e-07  1.0000
  N   N1        1.0  0.263188284834503  0.26318849488982954  0.7368115116948063  1.0000
  N   N2        1.0  0.736811760812795  0.7368114969741205  0.26318825135046775  1.0000
  N   N3        1.0  0.736811577947252  0.2631885962648098  0.26318830774691654  1.0000
  N   N4        1.0  0.26318841991646813  0.7368114930235589  0.7368117145732954  1.0000
  N   N5        1.0  0.26318845401815794  0.7368115532942313  0.263188353501072  1.0000
  N   N6        1.0  0.7368114166678622  0.2631886682129885  0.7368117022839774  1.0000
