data_image0
_chemical_formula_structural       Se2RhN6
_chemical_formula_sum              "Se2 Rh1 N6"
_cell_length_a       4.844874955555186
_cell_length_b       4.844874794365397
_cell_length_c       4.844874923172421
_cell_angle_alpha    60.00000303185213
_cell_angle_beta     60.00000245591816
_cell_angle_gamma    60.000004906985886

_space_group_name_H-M_alt    "P 1"
_space_group_IT_number       1

loop_
  _space_group_symop_operation_xyz
  'x, y, z'

loop_
  _atom_site_type_symbol
  _atom_site_label
  _atom_site_symmetry_multiplicity
  _atom_site_fract_x
  _atom_site_fract_y
  _atom_site_fract_z
  _atom_site_occupancy
  Se  Se1       1.0  0.2500000791340246  0.25000024885376443  0.24999999177363716  1.0000
  Se  Se2       1.0  0.7499999948218302  0.7499998440943869  0.7499999306974606  1.0000
  Rh  Rh1       1.0  0.9999999075988182  2.6290351598788706e-07  3.6527008711867336e-08  1.0000
  N   N1        1.0  0.2835727951056412  0.2835721041377879  0.7164280520719656  1.0000
  N   N2        1.0  0.7164272822994299  0.7164275995109252  0.28357200140312866  1.0000
  N   N3        1.0  0.7164280498915314  0.2835721187564631  0.28357271155520863  1.0000
  N   N4        1.0  0.2835718886268654  0.7164277441511033  0.7164272945811363  1.0000
  N   N5        1.0  0.28357247699438254  0.7164283808168358  0.2835723580097089  1.0000
  N   N6        1.0  0.7164275177824238  0.2835716565171084  0.7164276669466388  1.0000
