data_image0
_chemical_formula_structural       Se2SnN6
_chemical_formula_sum              "Se2 Sn1 N6"
_cell_length_a       5.676524389299675
_cell_length_b       5.676518082073842
_cell_length_c       5.67652801529591
_cell_angle_alpha    59.9999035641663
_cell_angle_beta     59.999933584846026
_cell_angle_gamma    59.999888437187366

_space_group_name_H-M_alt    "P 1"
_space_group_IT_number       1

loop_
  _space_group_symop_operation_xyz
  'x, y, z'

loop_
  _atom_site_type_symbol
  _atom_site_label
  _atom_site_symmetry_multiplicity
  _atom_site_fract_x
  _atom_site_fract_y
  _atom_site_fract_z
  _atom_site_occupancy
  Se  Se1       1.0  0.25000027071079256  0.2500008557544388  0.24999997815692693  1.0000
  Se  Se2       1.0  0.7500000264012222  0.7499995725619694  0.7500001986942607  1.0000
  Sn  Sn1       1.0  2.2890662663984576e-08  0.9999999374305631  3.569415939690163e-08  1.0000
  N   N1        1.0  0.3243334937596126  0.32434245167711995  0.6756550297310799  1.0000
  N   N2        1.0  0.6756688258328495  0.6756568827544825  0.3243367607258928  1.0000
  N   N3        1.0  0.6756570320978845  0.32434336233209804  0.3243315894627182  1.0000
  N   N4        1.0  0.3243439356215512  0.6756530464372714  0.6756728479470469  1.0000
  N   N5        1.0  0.3243378931145439  0.6756542078546145  0.3243356924190108  1.0000
  N   N6        1.0  0.6756585202112846  0.32434966393832576  0.675667866731505  1.0000
