data_image0
_chemical_formula_structural       Se2ScS6
_chemical_formula_sum              "Se2 Sc1 S6"
_cell_length_a       6.484628808399483
_cell_length_b       6.484628772336052
_cell_length_c       6.484628935931773
_cell_angle_alpha    59.99999914347106
_cell_angle_beta     59.99999815633926
_cell_angle_gamma    59.99999574870134

_space_group_name_H-M_alt    "P 1"
_space_group_IT_number       1

loop_
  _space_group_symop_operation_xyz
  'x, y, z'

loop_
  _atom_site_type_symbol
  _atom_site_label
  _atom_site_symmetry_multiplicity
  _atom_site_fract_x
  _atom_site_fract_y
  _atom_site_fract_z
  _atom_site_occupancy
  Se  Se1       1.0  0.25000011958944934  0.25000005711861323  0.24999987265332535  1.0000
  Se  Se2       1.0  0.7499999327400004  0.7500000391476062  0.7500001422734875  1.0000
  Sc  Sc1       1.0  1.3273241808067225e-08  5.099461043089301e-08  0.9999999370239081  1.0000
  S   S1        1.0  0.2727366909615086  0.2727366799766632  0.7272632941484647  1.0000
  S   S2        1.0  0.7272631956419572  0.7272632670831076  0.2727367672127696  1.0000
  S   S3        1.0  0.7272632994789286  0.2727367048071525  0.27273668128028783  1.0000
  S   S4        1.0  0.2727366582434549  0.7272632479186836  0.727263357109537  1.0000
  S   S5        1.0  0.27273674604816206  0.7272632573149247  0.27273670735412897  1.0000
  S   S6        1.0  0.7272633488940864  0.27273668974483806  0.727263248295608  1.0000
