data_image0
_chemical_formula_structural       Se2SN6
_chemical_formula_sum              "Se2 S1 N6"
_cell_length_a       4.92638181732036
_cell_length_b       4.926381787913415
_cell_length_c       4.926381605599102
_cell_angle_alpha    59.99999597036201
_cell_angle_beta     59.999998089842364
_cell_angle_gamma    59.999997972706666

_space_group_name_H-M_alt    "P 1"
_space_group_IT_number       1

loop_
  _space_group_symop_operation_xyz
  'x, y, z'

loop_
  _atom_site_type_symbol
  _atom_site_label
  _atom_site_symmetry_multiplicity
  _atom_site_fract_x
  _atom_site_fract_y
  _atom_site_fract_z
  _atom_site_occupancy
  Se  Se1       1.0  0.24999865746803185  0.2500008182569664  0.2500008319851406  1.0000
  Se  Se2       1.0  0.7499996047011541  0.750000199883571  0.7499996170020387  1.0000
  S   S1        1.0  2.653617902184996e-07  0.9999998508343494  0.9999999256628301  1.0000
  N   N1        1.0  0.2415225438562005  0.2415222389320766  0.7584773725700031  1.0000
  N   N2        1.0  0.7584780909702027  0.7584772303717853  0.24152254271366252  1.0000
  N   N3        1.0  0.7584778782351046  0.2415222584158061  0.24152239808629114  1.0000
  N   N4        1.0  0.24152262096917956  0.7584776036909353  0.7584774941611273  1.0000
  N   N5        1.0  0.24152230071516675  0.7584773719039694  0.24152252109871322  1.0000
  N   N6        1.0  0.7584780264370587  0.24152245788355878  0.7584772114788709  1.0000
