data_image0
_chemical_formula_structural       Se2ScO6
_chemical_formula_sum              "Se2 Sc1 O6"
_cell_length_a       5.4649640903883006
_cell_length_b       5.46496413846714
_cell_length_c       5.464964127173782
_cell_angle_alpha    60.00000000608805
_cell_angle_beta     60.00000029468167
_cell_angle_gamma    60.00000099178893

_space_group_name_H-M_alt    "P 1"
_space_group_IT_number       1

loop_
  _space_group_symop_operation_xyz
  'x, y, z'

loop_
  _atom_site_type_symbol
  _atom_site_label
  _atom_site_symmetry_multiplicity
  _atom_site_fract_x
  _atom_site_fract_y
  _atom_site_fract_z
  _atom_site_occupancy
  Se  Se1       1.0  0.25000015985164276  0.25000037793229374  0.24999974595020152  1.0000
  Se  Se2       1.0  0.7500000361437023  0.7499997510474878  0.7500000008841825  1.0000
  Sc  Sc1       1.0  0.9999999874506789  0.9999999932767452  0.9999999913379062  1.0000
  O   O1        1.0  0.2685910073659464  0.26859110167028305  0.7314089377735921  1.0000
  O   O2        1.0  0.7314090592106781  0.7314088704335533  0.2685910821266349  1.0000
  O   O3        1.0  0.7314088061775076  0.2685911198989761  0.268590967696657  1.0000
  O   O4        1.0  0.2685910661610844  0.7314088073831603  0.7314091516052155  1.0000
  O   O5        1.0  0.26859100914909484  0.7314088063735622  0.26859103741476087  1.0000
  O   O6        1.0  0.7314088697406024  0.2685911836589516  0.7314090929823249  1.0000
