data_image0
_chemical_formula_structural       Se2SO6
_chemical_formula_sum              "Se2 S1 O6"
_cell_length_a       5.500620556972622
_cell_length_b       5.500620585699756
_cell_length_c       5.500620212012144
_cell_angle_alpha    59.999998607587926
_cell_angle_beta     60.00000032970212
_cell_angle_gamma    59.999998621022144

_space_group_name_H-M_alt    "P 1"
_space_group_IT_number       1

loop_
  _space_group_symop_operation_xyz
  'x, y, z'

loop_
  _atom_site_type_symbol
  _atom_site_label
  _atom_site_symmetry_multiplicity
  _atom_site_fract_x
  _atom_site_fract_y
  _atom_site_fract_z
  _atom_site_occupancy
  Se  Se1       1.0  0.24999998669274048  0.24999979010525794  0.25000054755802126  1.0000
  Se  Se2       1.0  0.7500002079895087  0.7499998735178406  0.7500002290526098  1.0000
  S   S1        1.0  0.9999999423023838  5.343738689690487e-08  0.9999999348649719  1.0000
  O   O1        1.0  0.21351225659766834  0.21351241558149184  0.7864876930335507  1.0000
  O   O2        1.0  0.7864877040669462  0.7864877044859603  0.21351212155056318  1.0000
  O   O3        1.0  0.7864875437446956  0.21351239566825  0.21351218335517136  1.0000
  O   O4        1.0  0.21351240457928553  0.7864877110398593  0.7864875549980673  1.0000
  O   O5        1.0  0.21351214367982724  0.7864876863722083  0.2135123861763384  1.0000
  O   O6        1.0  0.7864877652902038  0.21351235576572833  0.7864874223187319  1.0000
