data_image0
_chemical_formula_structural       Se2SiN6
_chemical_formula_sum              "Se2 Si1 N6"
_cell_length_a       5.132579968434341
_cell_length_b       5.132579984036755
_cell_length_c       5.132580071301689
_cell_angle_alpha    60.0000002740167
_cell_angle_beta     59.999999993573454
_cell_angle_gamma    60.00000089574428

_space_group_name_H-M_alt    "P 1"
_space_group_IT_number       1

loop_
  _space_group_symop_operation_xyz
  'x, y, z'

loop_
  _atom_site_type_symbol
  _atom_site_label
  _atom_site_symmetry_multiplicity
  _atom_site_fract_x
  _atom_site_fract_y
  _atom_site_fract_z
  _atom_site_occupancy
  Se  Se1       1.0  0.24999979021401847  0.25000016334868685  0.2500004185027568  1.0000
  Se  Se2       1.0  0.7500000590766152  0.7499997813396648  0.7500000109146147  1.0000
  Si  Si1       1.0  0.9999999823880215  1.9089734504682673e-08  2.2641176215624238e-08  1.0000
  N   N1        1.0  0.2558281434928883  0.25582823181287884  0.7441716493713882  1.0000
  N   N2        1.0  0.7441718880038197  0.7441717534411569  0.25582819326567086  1.0000
  N   N3        1.0  0.7441717379786932  0.25582823880376127  0.2558281493797982  1.0000
  N   N4        1.0  0.25582824159054063  0.7441718347402965  0.744171741319474  1.0000
  N   N5        1.0  0.255828177781503  0.7441716857620982  0.2558282008181035  1.0000
  N   N6        1.0  0.7441719855418051  0.2558282684711201  0.7441716225894702  1.0000
