data_image0
_chemical_formula_structural       Se2TaN6
_chemical_formula_sum              "Se2 Ta1 N6"
_cell_length_a       5.162273148458296
_cell_length_b       5.162273181527694
_cell_length_c       5.16227315219456
_cell_angle_alpha    60.00000005000346
_cell_angle_beta     60.000000587359565
_cell_angle_gamma    60.000001534838155

_space_group_name_H-M_alt    "P 1"
_space_group_IT_number       1

loop_
  _space_group_symop_operation_xyz
  'x, y, z'

loop_
  _atom_site_type_symbol
  _atom_site_label
  _atom_site_symmetry_multiplicity
  _atom_site_fract_x
  _atom_site_fract_y
  _atom_site_fract_z
  _atom_site_occupancy
  Se  Se1       1.0  0.250000087944591  0.25000008088810827  0.24999989011413734  1.0000
  Se  Se2       1.0  0.7499999095424069  0.7499999366129309  0.7500000431306756  1.0000
  Ta  Ta1       1.0  0.9999999984416182  0.9999999644126293  1.1386961214506598e-09  1.0000
  N   N1        1.0  0.2751756876457588  0.2751756980995066  0.7248243677376914  1.0000
  N   N2        1.0  0.7248242545995072  0.7248242838141603  0.27517579107486795  1.0000
  N   N3        1.0  0.7248243143226757  0.2751756866475849  0.27517568042672075  1.0000
  N   N4        1.0  0.2751758156127887  0.724824188503973  0.7248243023226163  1.0000
  N   N5        1.0  0.27517572850418437  0.7248243207329064  0.27517563825009367  1.0000
  N   N6        1.0  0.7248242117949325  0.27517584149010615  0.7248242783475084  1.0000
