data_image0
_chemical_formula_structural       Se2TiN6
_chemical_formula_sum              "Se2 Ti1 N6"
_cell_length_a       5.110664773072407
_cell_length_b       5.1106649042541745
_cell_length_c       5.110664848349285
_cell_angle_alpha    59.999996498784895
_cell_angle_beta     59.99999410790145
_cell_angle_gamma    60.00000140242342

_space_group_name_H-M_alt    "P 1"
_space_group_IT_number       1

loop_
  _space_group_symop_operation_xyz
  'x, y, z'

loop_
  _atom_site_type_symbol
  _atom_site_label
  _atom_site_symmetry_multiplicity
  _atom_site_fract_x
  _atom_site_fract_y
  _atom_site_fract_z
  _atom_site_occupancy
  Se  Se1       1.0  0.24999955453999584  0.24999897567719348  0.2500002019538763  1.0000
  Se  Se2       1.0  0.7499983611213146  0.7500017726518373  0.750000179461813  1.0000
  Ti  Ti1       1.0  8.548881003344773e-08  1.7733724212484048e-07  1.3382216350578388e-08  1.0000
  N   N1        1.0  0.2695126390686881  0.2695099388786092  0.7304892070822849  1.0000
  N   N2        1.0  0.7304877885933185  0.7304888180012103  0.2695117319551169  1.0000
  N   N3        1.0  0.7304892979590848  0.26951068258981536  0.2695115867884228  1.0000
  N   N4        1.0  0.26951207249248144  0.7304890688164909  0.7304874072012897  1.0000
  N   N5        1.0  0.26951187114199154  0.7304895109499552  0.26951096182911677  1.0000
  N   N6        1.0  0.7304884767748572  0.26951086113664524  0.7304886459499659  1.0000
