data_image0
_chemical_formula_structural       Se2TiO6
_chemical_formula_sum              "Se2 Ti1 O6"
_cell_length_a       5.258277349117297
_cell_length_b       5.258277383892931
_cell_length_c       5.258277399677308
_cell_angle_alpha    60.00000030744835
_cell_angle_beta     60.0000002930306
_cell_angle_gamma    60.00000062925881

_space_group_name_H-M_alt    "P 1"
_space_group_IT_number       1

loop_
  _space_group_symop_operation_xyz
  'x, y, z'

loop_
  _atom_site_type_symbol
  _atom_site_label
  _atom_site_symmetry_multiplicity
  _atom_site_fract_x
  _atom_site_fract_y
  _atom_site_fract_z
  _atom_site_occupancy
  Se  Se1       1.0  0.24999981209234343  0.24999986651579575  0.25000010559680946  1.0000
  Se  Se2       1.0  0.7499998975594601  0.7499998231481969  0.7500000047770274  1.0000
  Ti  Ti1       1.0  0.9999999948316737  2.329175088557902e-09  1.2830156557227925e-08  1.0000
  O   O1        1.0  0.2511276997604227  0.25112784523726606  0.7488722161819558  1.0000
  O   O2        1.0  0.7488723374176558  0.7488721728404147  0.25112781535291984  1.0000
  O   O3        1.0  0.7488722804796576  0.25112778356712523  0.25112774272806243  1.0000
  O   O4        1.0  0.25112784409178235  0.7488723346650843  0.7488721760152338  1.0000
  O   O5        1.0  0.25112783985585035  0.7488723381777338  0.25112769257299333  1.0000
  O   O6        1.0  0.7488722897278538  0.25112782430880237  0.7488722300634603  1.0000
