data_image0
_chemical_formula_structural       Se2VN6
_chemical_formula_sum              "Se2 V1 N6"
_cell_length_a       5.18464103889894
_cell_length_b       5.184641177212348
_cell_length_c       5.184640917544012
_cell_angle_alpha    60.00000032941835
_cell_angle_beta     59.999999830690264
_cell_angle_gamma    59.99999808084774

_space_group_name_H-M_alt    "P 1"
_space_group_IT_number       1

loop_
  _space_group_symop_operation_xyz
  'x, y, z'

loop_
  _atom_site_type_symbol
  _atom_site_label
  _atom_site_symmetry_multiplicity
  _atom_site_fract_x
  _atom_site_fract_y
  _atom_site_fract_z
  _atom_site_occupancy
  Se  Se1       1.0  0.24999928947201783  0.25000008253430867  0.25000040445294563  1.0000
  Se  Se2       1.0  0.750000183647259  0.7500001838219537  0.7500000895624785  1.0000
  V   V1        1.0  1.2368631022062813e-07  0.9999999763774391  0.9999998901761343  1.0000
  N   N1        1.0  0.26146349527646245  0.261463751935696  0.7385363781665323  1.0000
  N   N2        1.0  0.7385366783010078  0.7385361435463896  0.26146349779501943  1.0000
  N   N3        1.0  0.7385366454455544  0.2614635663638351  0.2614636582947744  1.0000
  N   N4        1.0  0.26146337665813213  0.7385366031399286  0.738536160250376  1.0000
  N   N5        1.0  0.26146352937928846  0.7385363723918902  0.261463773354777  1.0000
  N   N6        1.0  0.7385366806009008  0.2614633270229627  0.7385361457923295  1.0000
