data_image0
_chemical_formula_structural       Se2VO6
_chemical_formula_sum              "Se2 V1 O6"
_cell_length_a       5.361115048660835
_cell_length_b       5.361115094369136
_cell_length_c       5.361115323583175
_cell_angle_alpha    59.9999978295375
_cell_angle_beta     59.999999556904314
_cell_angle_gamma    59.99999951845626

_space_group_name_H-M_alt    "P 1"
_space_group_IT_number       1

loop_
  _space_group_symop_operation_xyz
  'x, y, z'

loop_
  _atom_site_type_symbol
  _atom_site_label
  _atom_site_symmetry_multiplicity
  _atom_site_fract_x
  _atom_site_fract_y
  _atom_site_fract_z
  _atom_site_occupancy
  Se  Se1       1.0  0.2500000170063574  0.2500003071122419  0.2499998068359392  1.0000
  Se  Se2       1.0  0.750000276191527  0.7499997676659689  0.7499996982286267  1.0000
  V   V1        1.0  0.9999999592076171  0.9999999931465098  4.247577127483501e-08  1.0000
  O   O1        1.0  0.24113235742733377  0.2411326021052323  0.7588675279324125  1.0000
  O   O2        1.0  0.7588675378320308  0.7588674452590114  0.241132641207002  1.0000
  O   O3        1.0  0.7588674865353973  0.24113248533623657  0.2411325119360314  1.0000
  O   O4        1.0  0.2411325508366818  0.7588674135357328  0.75886756712899  1.0000
  O   O5        1.0  0.24113239388673324  0.7588674318480018  0.24113258833383502  1.0000
  O   O6        1.0  0.7588673748184456  0.24113258810228302  0.7588676074269961  1.0000
