data_image0
_chemical_formula_structural       Se2VS6
_chemical_formula_sum              "Se2 V1 S6"
_cell_length_a       6.288276346627235
_cell_length_b       6.288276585972461
_cell_length_c       6.288276670538043
_cell_angle_alpha    59.99999993014078
_cell_angle_beta     59.99999907152246
_cell_angle_gamma    59.999999736381504

_space_group_name_H-M_alt    "P 1"
_space_group_IT_number       1

loop_
  _space_group_symop_operation_xyz
  'x, y, z'

loop_
  _atom_site_type_symbol
  _atom_site_label
  _atom_site_symmetry_multiplicity
  _atom_site_fract_x
  _atom_site_fract_y
  _atom_site_fract_z
  _atom_site_occupancy
  Se  Se1       1.0  0.2500000628380077  0.2500000967757513  0.24999996923670165  1.0000
  Se  Se2       1.0  0.749999977218436  0.7499999436430986  0.7500000944648464  1.0000
  V   V1        1.0  0.9999999545004548  4.2848604063970914e-08  4.426251253548635e-08  1.0000
  S   S1        1.0  0.25266377850421606  0.2526638120230884  0.7473361814034405  1.0000
  S   S2        1.0  0.7473362061489175  0.7473362128144512  0.25266376989616146  1.0000
  S   S3        1.0  0.7473361296134122  0.2526637687981727  0.2526637693324531  1.0000
  S   S4        1.0  0.25266385984526923  0.7473361644991683  0.7473361887584751  1.0000
  S   S5        1.0  0.2526638517644605  0.7473361716364554  0.2526637291945605  1.0000
  S   S6        1.0  0.7473361765710544  0.25266377724219574  0.7473362748192939  1.0000
