data_image0
_chemical_formula_structural       Se2WN6
_chemical_formula_sum              "Se2 W1 N6"
_cell_length_a       5.2729940287697605
_cell_length_b       5.272994313360118
_cell_length_c       5.272994132761518
_cell_angle_alpha    60.00000177677005
_cell_angle_beta     60.00000143828792
_cell_angle_gamma    60.00000160730546

_space_group_name_H-M_alt    "P 1"
_space_group_IT_number       1

loop_
  _space_group_symop_operation_xyz
  'x, y, z'

loop_
  _atom_site_type_symbol
  _atom_site_label
  _atom_site_symmetry_multiplicity
  _atom_site_fract_x
  _atom_site_fract_y
  _atom_site_fract_z
  _atom_site_occupancy
  Se  Se1       1.0  0.2499998777938838  0.25000032083619583  0.2499998913661252  1.0000
  Se  Se2       1.0  0.7500001364454314  0.7499997686539901  0.7499998165730218  1.0000
  W   W1        1.0  3.802426684388947e-08  0.9999999581918623  0.9999998843116799  1.0000
  N   N1        1.0  0.2621691475240096  0.26216927572069876  0.7378308615442665  1.0000
  N   N2        1.0  0.7378308601685912  0.7378307742840235  0.262169364385918  1.0000
  N   N3        1.0  0.7378307049629579  0.2621692039540808  0.2621692357608331  1.0000
  N   N4        1.0  0.2621692233452263  0.7378306834634404  0.7378309271989514  1.0000
  N   N5        1.0  0.2621691482853121  0.7378307209125146  0.2621692674873012  1.0000
  N   N6        1.0  0.737830838681632  0.26216930586546483  0.7378307737054068  1.0000
