data_image0
_chemical_formula_structural       Se2ZnS6
_chemical_formula_sum              "Se2 Zn1 S6"
_cell_length_a       6.265476544995438
_cell_length_b       6.265476338787792
_cell_length_c       6.265476471297372
_cell_angle_alpha    60.000000245182164
_cell_angle_beta     60.00000089801222
_cell_angle_gamma    59.9999983196203

_space_group_name_H-M_alt    "P 1"
_space_group_IT_number       1

loop_
  _space_group_symop_operation_xyz
  'x, y, z'

loop_
  _atom_site_type_symbol
  _atom_site_label
  _atom_site_symmetry_multiplicity
  _atom_site_fract_x
  _atom_site_fract_y
  _atom_site_fract_z
  _atom_site_occupancy
  Se  Se1       1.0  0.24999987310923574  0.25000005080252025  0.2500001292678272  1.0000
  Se  Se2       1.0  0.7499997888063417  0.75000009181026  0.7499998800852371  1.0000
  Zn  Zn1       1.0  8.742073189298874e-08  0.9999999257194441  0.99999995831686  1.0000
  S   S1        1.0  0.26605609012765136  0.2660558749195809  0.7339439802911033  1.0000
  S   S2        1.0  0.7339439539541364  0.7339440389872769  0.26605602096187275  1.0000
  S   S3        1.0  0.7339440390909905  0.2660559514032313  0.2660560870918223  1.0000
  S   S4        1.0  0.26605603967160224  0.7339439800963901  0.7339440348607683  1.0000
  S   S5        1.0  0.26605600100101173  0.7339440170346818  0.26605600144419156  1.0000
  S   S6        1.0  0.7339441227718176  0.2660560669355491  0.7339439132367261  1.0000
