data_image0
_chemical_formula_structural       Se2ZnO6
_chemical_formula_sum              "Se2 Zn1 O6"
_cell_length_a       5.370708602776404
_cell_length_b       5.370708728637427
_cell_length_c       5.370708601043472
_cell_angle_alpha    59.999998551413235
_cell_angle_beta     59.99999838953808
_cell_angle_gamma    59.999998815138774

_space_group_name_H-M_alt    "P 1"
_space_group_IT_number       1

loop_
  _space_group_symop_operation_xyz
  'x, y, z'

loop_
  _atom_site_type_symbol
  _atom_site_label
  _atom_site_symmetry_multiplicity
  _atom_site_fract_x
  _atom_site_fract_y
  _atom_site_fract_z
  _atom_site_occupancy
  Se  Se1       1.0  0.24999969303390754  0.2500007929309905  0.24999959136981176  1.0000
  Se  Se2       1.0  0.7499999425597146  0.7499994530195103  0.7500009671250681  1.0000
  Zn  Zn1       1.0  1.1770959885201982e-08  0.9999999840370889  3.7473058021236737e-08  1.0000
  O   O1        1.0  0.25760787362969445  0.25760818871630914  0.7423920970488028  1.0000
  O   O2        1.0  0.7423923533287397  0.7423916376377019  0.257607541407555  1.0000
  O   O3        1.0  0.7423920515493156  0.25760825859767655  0.25760768404774226  1.0000
  O   O4        1.0  0.2576079147116281  0.7423918596495506  0.7423921585210513  1.0000
  O   O5        1.0  0.257608228650107  0.7423918187905328  0.2576077405376844  1.0000
  O   O6        1.0  0.7423919375867412  0.25760803492846357  0.7423921436170329  1.0000
