data_image0
_chemical_formula_structural       Si2NiN6
_chemical_formula_sum              "Si2 Ni1 N6"
_cell_length_a       4.796092801132227
_cell_length_b       4.79609336721769
_cell_length_c       4.796092899636974
_cell_angle_alpha    60.00000580497369
_cell_angle_beta     60.00000197794581
_cell_angle_gamma    60.00000706039865

_space_group_name_H-M_alt    "P 1"
_space_group_IT_number       1

loop_
  _space_group_symop_operation_xyz
  'x, y, z'

loop_
  _atom_site_type_symbol
  _atom_site_label
  _atom_site_symmetry_multiplicity
  _atom_site_fract_x
  _atom_site_fract_y
  _atom_site_fract_z
  _atom_site_occupancy
  Si  Si1       1.0  0.24999982409936153  0.25000026966835326  0.25000005896065197  1.0000
  Si  Si2       1.0  0.7500001370258094  0.7499999126809546  0.7499999569902306  1.0000
  Ni  Ni1       1.0  3.232092133630824e-08  0.9999999463737697  0.9999999043160983  1.0000
  N   N1        1.0  0.2881597133695123  0.2881589987956426  0.7118410598946782  1.0000
  N   N2        1.0  0.7118402735883408  0.7118408388136391  0.28815997454243836  1.0000
  N   N3        1.0  0.7118408387187182  0.2881595987334345  0.2881591194296883  1.0000
  N   N4        1.0  0.2881590874231141  0.7118413241685471  0.7118399453327855  1.0000
  N   N5        1.0  0.28815937240776823  0.7118405218525798  0.2881593928628079  1.0000
  N   N6        1.0  0.711840733944932  0.2881585675431026  0.7118406048839052  1.0000
