data_image0
_chemical_formula_structural       Si2PN6
_chemical_formula_sum              "Si2 P1 N6"
_cell_length_a       4.770791143940213
_cell_length_b       4.770791089191634
_cell_length_c       4.770791522778178
_cell_angle_alpha    59.9999956158736
_cell_angle_beta     59.999996088207524
_cell_angle_gamma    59.99999891161323

_space_group_name_H-M_alt    "P 1"
_space_group_IT_number       1

loop_
  _space_group_symop_operation_xyz
  'x, y, z'

loop_
  _atom_site_type_symbol
  _atom_site_label
  _atom_site_symmetry_multiplicity
  _atom_site_fract_x
  _atom_site_fract_y
  _atom_site_fract_z
  _atom_site_occupancy
  Si  Si1       1.0  0.2499995588963497  0.24999995255673457  0.24999992663426351  1.0000
  Si  Si2       1.0  0.7499997437630984  0.7500003813736454  0.7499996405896481  1.0000
  P   P1        1.0  0.9999998034856414  6.674651220965532e-08  0.999999920253836  1.0000
  N   N1        1.0  0.2826644345531219  0.2826641597278603  0.7173357028772354  1.0000
  N   N2        1.0  0.7173357849384697  0.717335776290616  0.28266433222917026  1.0000
  N   N3        1.0  0.7173361013013245  0.2826641819219221  0.2826639959630856  1.0000
  N   N4        1.0  0.28266408053839076  0.7173358670521954  0.7173358610535248  1.0000
  N   N5        1.0  0.28266448225873475  0.7173356227145063  0.28266428181580333  1.0000
  N   N6        1.0  0.7173360204690237  0.2826639718698742  0.7173363336607741  1.0000
