data_image0
_chemical_formula_structural       Si2SeN6
_chemical_formula_sum              "Si2 Se1 N6"
_cell_length_a       4.748597809127417
_cell_length_b       4.748597499482041
_cell_length_c       4.748597807405899
_cell_angle_alpha    59.99999753987012
_cell_angle_beta     59.999998197399854
_cell_angle_gamma    59.999998885518764

_space_group_name_H-M_alt    "P 1"
_space_group_IT_number       1

loop_
  _space_group_symop_operation_xyz
  'x, y, z'

loop_
  _atom_site_type_symbol
  _atom_site_label
  _atom_site_symmetry_multiplicity
  _atom_site_fract_x
  _atom_site_fract_y
  _atom_site_fract_z
  _atom_site_occupancy
  Si  Si1       1.0  0.24999992570670695  0.25000015073125426  0.24999995487161225  1.0000
  Si  Si2       1.0  0.750000105454386  0.7499998538258961  0.7499999448786294  1.0000
  Se  Se1       1.0  4.3123501362432586e-07  2.9660477189262533e-07  0.9999997476919956  1.0000
  N   N1        1.0  0.2914987860069278  0.29149899481985864  0.7085012718061513  1.0000
  N   N2        1.0  0.7085000883642966  0.7084998258973886  0.29150024049480544  1.0000
  N   N3        1.0  0.7085008777204922  0.2914996098845173  0.29149888351963177  1.0000
  N   N4        1.0  0.291499476207242  0.7085007686525588  0.7085007247162111  1.0000
  N   N5        1.0  0.2914994373242883  0.7085008498161183  0.29149881368922936  1.0000
  N   N6        1.0  0.7085008744769803  0.2914996551003774  0.7085004407491846  1.0000
