data_image0
_chemical_formula_structural       Si2SN6
_chemical_formula_sum              "Si2 S1 N6"
_cell_length_a       4.6179651611745225
_cell_length_b       4.617965204863871
_cell_length_c       4.617965182745487
_cell_angle_alpha    59.999999518962
_cell_angle_beta     59.99999864297155
_cell_angle_gamma    59.99999875117885

_space_group_name_H-M_alt    "P 1"
_space_group_IT_number       1

loop_
  _space_group_symop_operation_xyz
  'x, y, z'

loop_
  _atom_site_type_symbol
  _atom_site_label
  _atom_site_symmetry_multiplicity
  _atom_site_fract_x
  _atom_site_fract_y
  _atom_site_fract_z
  _atom_site_occupancy
  Si  Si1       1.0  0.25000003953192645  0.25000002399484955  0.2500000099337194  1.0000
  Si  Si2       1.0  0.749999979302769  0.7500000772888122  0.7500000275009437  1.0000
  S   S1        1.0  4.220434797866669e-08  1.5912785731578385e-08  0.9999999579486972  1.0000
  N   N1        1.0  0.24529182526341758  0.24529180322232064  0.7547081016260763  1.0000
  N   N2        1.0  0.7547081143672183  0.7547081681069228  0.2452916765912342  1.0000
  N   N3        1.0  0.7547082479843643  0.2452918356208643  0.24529186202371003  1.0000
  N   N4        1.0  0.24529184740672902  0.7547081410126385  0.7547082276087603  1.0000
  N   N5        1.0  0.24529176679163778  0.7547081238258442  0.24529190654881036  1.0000
  N   N6        1.0  0.7547081709452532  0.245291815677826  0.7547082220083694  1.0000
