data_image0
_chemical_formula_structural       Sn2AgS6
_chemical_formula_sum              "Sn2 Ag1 S6"
_cell_length_a       6.450162630935592
_cell_length_b       6.450162897063216
_cell_length_c       6.450162643149087
_cell_angle_alpha    60.00000335037034
_cell_angle_beta     60.000003538018035
_cell_angle_gamma    59.99999922079588

_space_group_name_H-M_alt    "P 1"
_space_group_IT_number       1

loop_
  _space_group_symop_operation_xyz
  'x, y, z'

loop_
  _atom_site_type_symbol
  _atom_site_label
  _atom_site_symmetry_multiplicity
  _atom_site_fract_x
  _atom_site_fract_y
  _atom_site_fract_z
  _atom_site_occupancy
  Sn  Sn1       1.0  0.25000004603021386  0.2499998118940263  0.2500000442581467  1.0000
  Sn  Sn2       1.0  0.7499998595127323  0.7500002445629074  0.7499999994026083  1.0000
  Ag  Ag1       1.0  0.9999999517516737  2.1456228307962108e-07  0.9999998145200224  1.0000
  S   S1        1.0  0.2669446855059284  0.26694448485605043  0.7330554303779616  1.0000
  S   S2        1.0  0.7330552150481277  0.7330554576740071  0.2669445874715069  1.0000
  S   S3        1.0  0.7330555080117872  0.26694443444355687  0.266944688776143  1.0000
  S   S4        1.0  0.266944575991586  0.7330554947950259  0.7330554114320474  1.0000
  S   S5        1.0  0.26694462523734946  0.7330554789218084  0.2669445590456423  1.0000
  S   S6        1.0  0.7330555231414686  0.26694439145455184  0.7330554515864217  1.0000
