data_image0
_chemical_formula_structural       Sn2AuSe6
_chemical_formula_sum              "Sn2 Au1 Se6"
_cell_length_a       6.675732799043923
_cell_length_b       6.675732948527648
_cell_length_c       6.675732933927421
_cell_angle_alpha    59.999999917197584
_cell_angle_beta     60.00000048656398
_cell_angle_gamma    59.99999930471471

_space_group_name_H-M_alt    "P 1"
_space_group_IT_number       1

loop_
  _space_group_symop_operation_xyz
  'x, y, z'

loop_
  _atom_site_type_symbol
  _atom_site_label
  _atom_site_symmetry_multiplicity
  _atom_site_fract_x
  _atom_site_fract_y
  _atom_site_fract_z
  _atom_site_occupancy
  Sn  Sn1       1.0  0.25000000121498445  0.2500000969257545  0.250000019183801  1.0000
  Sn  Sn2       1.0  0.7499998874974724  0.7500000320955175  0.7500000232675127  1.0000
  Au  Au1       1.0  0.9999999927484313  4.7700181007027255e-08  0.9999999333388451  1.0000
  Se  Se1       1.0  0.28476954360617107  0.2847694614206928  0.7152304885642109  1.0000
  Se  Se2       1.0  0.715230549423652  0.7152304749652318  0.2847694956173953  1.0000
  Se  Se3       1.0  0.7152303381758127  0.28476959310675953  0.28476961715934124  1.0000
  Se  Se4       1.0  0.28476960840516996  0.7152304038217039  0.7152304474244859  1.0000
  Se  Se5       1.0  0.28476963480564316  0.7152303459148976  0.2847695462353988  1.0000
  Se  Se6       1.0  0.7152304322967035  0.284769559282448  0.7152304245612746  1.0000
