data_image0
_chemical_formula_structural       Sn2AgTe6
_chemical_formula_sum              "Sn2 Ag1 Te6"
_cell_length_a       7.218069940902075
_cell_length_b       7.218069873932699
_cell_length_c       7.2180699828081085
_cell_angle_alpha    59.99999918959104
_cell_angle_beta     59.999999489785836
_cell_angle_gamma    59.99999847870091

_space_group_name_H-M_alt    "P 1"
_space_group_IT_number       1

loop_
  _space_group_symop_operation_xyz
  'x, y, z'

loop_
  _atom_site_type_symbol
  _atom_site_label
  _atom_site_symmetry_multiplicity
  _atom_site_fract_x
  _atom_site_fract_y
  _atom_site_fract_z
  _atom_site_occupancy
  Sn  Sn1       1.0  0.250000097228986  0.24999965800182364  0.2500002124376999  1.0000
  Sn  Sn2       1.0  0.7500001638821558  0.7500001396906941  0.7499996708848452  1.0000
  Ag  Ag1       1.0  0.9999999208033195  9.841301802688985e-08  0.9999999737668885  1.0000
  Te  Te1       1.0  0.2727250175985978  0.27272508025300846  0.7272749396895821  1.0000
  Te  Te2       1.0  0.7272748169262873  0.727275080549611  0.2727252025785913  1.0000
  Te  Te3       1.0  0.7272749729016968  0.272724803079035  0.27272518339694773  1.0000
  Te  Te4       1.0  0.2727250463553469  0.7272751778653103  0.7272747333829686  1.0000
  Te  Te5       1.0  0.2727249308898713  0.7272751398978055  0.272725159318216  1.0000
  Te  Te6       1.0  0.7272750273997779  0.27272482238200246  0.7272749372042676  1.0000
