data_image0
_chemical_formula_structural       Sn2AgSe6
_chemical_formula_sum              "Sn2 Ag1 Se6"
_cell_length_a       6.6227959022266365
_cell_length_b       6.62279569897286
_cell_length_c       6.622795771282638
_cell_angle_alpha    59.99999888828021
_cell_angle_beta     59.999999699113175
_cell_angle_gamma    59.99999852602917

_space_group_name_H-M_alt    "P 1"
_space_group_IT_number       1

loop_
  _space_group_symop_operation_xyz
  'x, y, z'

loop_
  _atom_site_type_symbol
  _atom_site_label
  _atom_site_symmetry_multiplicity
  _atom_site_fract_x
  _atom_site_fract_y
  _atom_site_fract_z
  _atom_site_occupancy
  Sn  Sn1       1.0  0.249999891986054  0.25000011718611237  0.2500000698565232  1.0000
  Sn  Sn2       1.0  0.7500000161662738  0.749999791224425  0.749999996506094  1.0000
  Ag  Ag1       1.0  1.123466039534694e-08  8.136862107285573e-08  0.9999999174598866  1.0000
  Se  Se1       1.0  0.2845556812756047  0.28455591991711576  0.7154441728932507  1.0000
  Se  Se2       1.0  0.7154443393052597  0.7154441271899334  0.28455589625142935  1.0000
  Se  Se3       1.0  0.7154441624044943  0.28455588037754537  0.28455578171035445  1.0000
  Se  Se4       1.0  0.284555847627609  0.7154441408394884  0.7154442482761333  1.0000
  Se  Se5       1.0  0.2845558156557339  0.7154440190485896  0.2845558335670088  1.0000
  Se  Se6       1.0  0.7154442207770529  0.28455592819697123  0.7154440812907309  1.0000
