data_image0
_chemical_formula_structural       Sn2AgO6
_chemical_formula_sum              "Sn2 Ag1 O6"
_cell_length_a       5.450826619014168
_cell_length_b       5.450826856382759
_cell_length_c       5.450826607450228
_cell_angle_alpha    60.00000046516409
_cell_angle_beta     59.99999945173999
_cell_angle_gamma    59.999999504177296

_space_group_name_H-M_alt    "P 1"
_space_group_IT_number       1

loop_
  _space_group_symop_operation_xyz
  'x, y, z'

loop_
  _atom_site_type_symbol
  _atom_site_label
  _atom_site_symmetry_multiplicity
  _atom_site_fract_x
  _atom_site_fract_y
  _atom_site_fract_z
  _atom_site_occupancy
  Sn  Sn1       1.0  0.24999978991208668  0.2500001599460986  0.24999982861227862  1.0000
  Sn  Sn2       1.0  0.7499998754198355  0.7500000304588047  0.7500000080600344  1.0000
  Ag  Ag1       1.0  4.934355568643866e-08  4.49379426519828e-09  0.9999999473971469  1.0000
  O   O1        1.0  0.2570114082175807  0.2570113534741084  0.7429887778332731  1.0000
  O   O2        1.0  0.7429886835360419  0.7429886189817384  0.2570112793241092  1.0000
  O   O3        1.0  0.7429887040423074  0.257011343814961  0.2570114418849641  1.0000
  O   O4        1.0  0.2570114459580529  0.7429885365180914  0.7429886964208913  1.0000
  O   O5        1.0  0.2570114100629529  0.7429885388955833  0.25701138886353436  1.0000
  O   O6        1.0  0.7429886412062019  0.25701140884439366  0.7429886220068993  1.0000
