data_image0
_chemical_formula_structural       Sn2BeO6
_chemical_formula_sum              "Sn2 Be1 O6"
_cell_length_a       5.16399003032427
_cell_length_b       5.163990097472777
_cell_length_c       5.163990150126717
_cell_angle_alpha    59.999999163914254
_cell_angle_beta     59.999999500993304
_cell_angle_gamma    60.000001740025716

_space_group_name_H-M_alt    "P 1"
_space_group_IT_number       1

loop_
  _space_group_symop_operation_xyz
  'x, y, z'

loop_
  _atom_site_type_symbol
  _atom_site_label
  _atom_site_symmetry_multiplicity
  _atom_site_fract_x
  _atom_site_fract_y
  _atom_site_fract_z
  _atom_site_occupancy
  Sn  Sn1       1.0  0.2500001850177188  0.2500000415200232  0.24999992598160314  1.0000
  Sn  Sn2       1.0  0.7500000618327832  0.7500000747543047  0.7499999003483754  1.0000
  Be  Be1       1.0  0.9999999961595315  4.50623488972917e-08  2.3928261527803317e-08  1.0000
  O   O1        1.0  0.2328831414293137  0.23288328229520483  0.7671168554848067  1.0000
  O   O2        1.0  0.7671167381450664  0.7671166679599333  0.23288322781039258  1.0000
  O   O3        1.0  0.7671166632646349  0.23288320622271153  0.23288326671054516  1.0000
  O   O4        1.0  0.23288334801270533  0.7671166776247571  0.7671167432707813  1.0000
  O   O5        1.0  0.23288321776563065  0.7671167286214835  0.23288329100358507  1.0000
  O   O6        1.0  0.767116667048171  0.23288325958089634  0.7671167493969249  1.0000
