data_image0
_chemical_formula_structural       Sn2BeS6
_chemical_formula_sum              "Sn2 Be1 S6"
_cell_length_a       5.757761559991413
_cell_length_b       5.757761439773576
_cell_length_c       5.757761258148366
_cell_angle_alpha    59.99999300930687
_cell_angle_beta     59.9999974407791
_cell_angle_gamma    60.00001395423407

_space_group_name_H-M_alt    "P 1"
_space_group_IT_number       1

loop_
  _space_group_symop_operation_xyz
  'x, y, z'

loop_
  _atom_site_type_symbol
  _atom_site_label
  _atom_site_symmetry_multiplicity
  _atom_site_fract_x
  _atom_site_fract_y
  _atom_site_fract_z
  _atom_site_occupancy
  Sn  Sn1       1.0  0.250000654875304  0.25000003317761316  0.24999952342541498  1.0000
  Sn  Sn2       1.0  0.7500001322331337  0.7500002782105174  0.7499995794963893  1.0000
  Be  Be1       1.0  3.694997586175148e-08  0.9999999553304947  0.999999943072251  1.0000
  S   S1        1.0  0.2546116166153534  0.25461144158160887  0.7453882790338497  1.0000
  S   S2        1.0  0.7453881738071247  0.7453882018906648  0.25461176386967693  1.0000
  S   S3        1.0  0.7453884781408581  0.25461174638558715  0.25461142804379383  1.0000
  S   S4        1.0  0.25461151073236604  0.7453884629005783  0.7453887398689283  1.0000
  S   S5        1.0  0.25461104548016245  0.7453883039419554  0.2546120688195026  1.0000
  S   S6        1.0  0.7453883216425584  0.2546115926574501  0.7453886826765624  1.0000
