data_image0
_chemical_formula_structural       Sn2BeSe6
_chemical_formula_sum              "Sn2 Be1 Se6"
_cell_length_a       6.5548284523355
_cell_length_b       6.554828761654078
_cell_length_c       6.554828826654643
_cell_angle_alpha    60.0000014401149
_cell_angle_beta     60.00000030133473
_cell_angle_gamma    60.00000093377495

_space_group_name_H-M_alt    "P 1"
_space_group_IT_number       1

loop_
  _space_group_symop_operation_xyz
  'x, y, z'

loop_
  _atom_site_type_symbol
  _atom_site_label
  _atom_site_symmetry_multiplicity
  _atom_site_fract_x
  _atom_site_fract_y
  _atom_site_fract_z
  _atom_site_occupancy
  Sn  Sn1       1.0  0.24999997104033134  0.25000013040138624  0.24999997913456398  1.0000
  Sn  Sn2       1.0  0.7500001390398974  0.7499999988271362  0.749999973339372  1.0000
  Be  Be1       1.0  0.9999999915827535  4.110616384756673e-08  0.9999999607716489  1.0000
  Se  Se1       1.0  0.24909907778032137  0.2490989154082037  0.7509010159450693  1.0000
  Se  Se2       1.0  0.7509009405409776  0.7509009447617908  0.2490991062584402  1.0000
  Se  Se3       1.0  0.7509009409071016  0.24909900984283137  0.2490989840562907  1.0000
  Se  Se4       1.0  0.24909896530961465  0.750901001672584  0.7509009491859933  1.0000
  Se  Se5       1.0  0.24909903531566938  0.7509009116869565  0.24909903925002208  1.0000
  Se  Se6       1.0  0.7509009342485645  0.24909904190613769  0.7509010026479422  1.0000
