data_image0
_chemical_formula_structural       Sn2CuS6
_chemical_formula_sum              "Sn2 Cu1 S6"
_cell_length_a       6.242540626240745
_cell_length_b       6.242540704551339
_cell_length_c       6.2425405165839
_cell_angle_alpha    60.00000320194598
_cell_angle_beta     60.000001022365
_cell_angle_gamma    60.000002239994444

_space_group_name_H-M_alt    "P 1"
_space_group_IT_number       1

loop_
  _space_group_symop_operation_xyz
  'x, y, z'

loop_
  _atom_site_type_symbol
  _atom_site_label
  _atom_site_symmetry_multiplicity
  _atom_site_fract_x
  _atom_site_fract_y
  _atom_site_fract_z
  _atom_site_occupancy
  Sn  Sn1       1.0  0.2500000640503997  0.24999998626495315  0.25000007302833516  1.0000
  Sn  Sn2       1.0  0.7500000377068455  0.7500000392341208  0.7500001743900447  1.0000
  Cu  Cu1       1.0  2.898017955367114e-08  0.9999999352562032  5.152195774705975e-08  1.0000
  S   S1        1.0  0.2580719320545621  0.2580717975224876  0.7419281040777217  1.0000
  S   S2        1.0  0.7419280567955435  0.7419281671566452  0.2580718185128363  1.0000
  S   S3        1.0  0.7419281647331715  0.2580718246994392  0.25807185595598986  1.0000
  S   S4        1.0  0.2580717820764504  0.7419282106092902  0.7419280186998628  1.0000
  S   S5        1.0  0.25807182055225636  0.7419282385552275  0.2580717987368548  1.0000
  S   S6        1.0  0.7419281146172216  0.2580717928296351  0.7419280724876197  1.0000
