data_image0
_chemical_formula_structural       Sn2CoSe6
_chemical_formula_sum              "Sn2 Co1 Se6"
_cell_length_a       6.580896857405241
_cell_length_b       6.580896506597903
_cell_length_c       6.580896886792738
_cell_angle_alpha    59.99999992709785
_cell_angle_beta     60.00000043465161
_cell_angle_gamma    60.0000030520914

_space_group_name_H-M_alt    "P 1"
_space_group_IT_number       1

loop_
  _space_group_symop_operation_xyz
  'x, y, z'

loop_
  _atom_site_type_symbol
  _atom_site_label
  _atom_site_symmetry_multiplicity
  _atom_site_fract_x
  _atom_site_fract_y
  _atom_site_fract_z
  _atom_site_occupancy
  Sn  Sn1       1.0  0.2500000428830565  0.2499999862599755  0.2499999849271  1.0000
  Sn  Sn2       1.0  0.7499998925715183  0.7500000090285566  0.7499999701987744  1.0000
  Co  Co1       1.0  0.9999999876111902  5.5831849351849906e-09  1.65994632107218e-07  1.0000
  Se  Se1       1.0  0.24874825154164698  0.24874822926812354  0.7512517372810406  1.0000
  Se  Se2       1.0  0.7512517327231166  0.7512517827699591  0.2487482397687547  1.0000
  Se  Se3       1.0  0.7512517164035359  0.24874824678916216  0.24874825428464636  1.0000
  Se  Se4       1.0  0.24874838329550703  0.7512516926675543  0.7512517302101362  1.0000
  Se  Se5       1.0  0.24874829343215074  0.7512517428560275  0.24874817236097177  1.0000
  Se  Se6       1.0  0.7512516978328513  0.24874830082008864  0.7512517397831964  1.0000
