data_image0
_chemical_formula_structural       Sn2CrS6
_chemical_formula_sum              "Sn2 Cr1 S6"
_cell_length_a       6.197036635460799
_cell_length_b       6.1970366036804725
_cell_length_c       6.197036399779172
_cell_angle_alpha    60.00000079050148
_cell_angle_beta     59.99999953853127
_cell_angle_gamma    60.00000045652356

_space_group_name_H-M_alt    "P 1"
_space_group_IT_number       1

loop_
  _space_group_symop_operation_xyz
  'x, y, z'

loop_
  _atom_site_type_symbol
  _atom_site_label
  _atom_site_symmetry_multiplicity
  _atom_site_fract_x
  _atom_site_fract_y
  _atom_site_fract_z
  _atom_site_occupancy
  Sn  Sn1       1.0  0.2499998728084977  0.25000019152091335  0.24999993338156176  1.0000
  Sn  Sn2       1.0  0.7500000344413561  0.7500000923358887  0.7499999768672115  1.0000
  Cr  Cr1       1.0  0.999999989817998  0.9999999802366049  1.8602220235568024e-07  1.0000
  S   S1        1.0  0.25494411997733424  0.2549441132252598  0.745055961844623  1.0000
  S   S2        1.0  0.7450559268014244  0.7450557911743474  0.25494417002979164  1.0000
  S   S3        1.0  0.745055894363491  0.2549440682438082  0.25494415725393405  1.0000
  S   S4        1.0  0.25494429698503407  0.7450556484035403  0.7450557364101207  1.0000
  S   S5        1.0  0.2549441446475014  0.745055834626464  0.2549441848460985  1.0000
  S   S6        1.0  0.7450557149120155  0.25494427926513535  0.7450557132048532  1.0000
