data_image0
_chemical_formula_structural       Sn2CoS6
_chemical_formula_sum              "Sn2 Co1 S6"
_cell_length_a       6.215143018837951
_cell_length_b       6.215143055283742
_cell_length_c       6.215142880150049
_cell_angle_alpha    59.9999989931672
_cell_angle_beta     60.00000098496254
_cell_angle_gamma    59.99999910887777

_space_group_name_H-M_alt    "P 1"
_space_group_IT_number       1

loop_
  _space_group_symop_operation_xyz
  'x, y, z'

loop_
  _atom_site_type_symbol
  _atom_site_label
  _atom_site_symmetry_multiplicity
  _atom_site_fract_x
  _atom_site_fract_y
  _atom_site_fract_z
  _atom_site_occupancy
  Sn  Sn1       1.0  0.24999998918719055  0.2500000171658715  0.2499999839604189  1.0000
  Sn  Sn2       1.0  0.7500000585978138  0.7500000514976116  0.7499999996835984  1.0000
  Co  Co1       1.0  1.313721119002446e-09  0.9999999960588366  0.9999999787880927  1.0000
  S   S1        1.0  0.2472055190275142  0.24720557072200866  0.7527944422858541  1.0000
  S   S2        1.0  0.7527944682556015  0.7527944230593606  0.24720557204377572  1.0000
  S   S3        1.0  0.7527944328303636  0.2472055471778811  0.24720555711926545  1.0000
  S   S4        1.0  0.24720554835427988  0.752794409162431  0.7527944628903948  1.0000
  S   S5        1.0  0.24720552585753044  0.7527944227177072  0.24720557735573556  1.0000
  S   S6        1.0  0.7527944584793803  0.24720556318133421  0.7527944311253463  1.0000
