data_image0
_chemical_formula_structural       Sn2CrO6
_chemical_formula_sum              "Sn2 Cr1 O6"
_cell_length_a       5.40598032823295
_cell_length_b       5.4059805741399805
_cell_length_c       5.40598035711676
_cell_angle_alpha    60.00000011538304
_cell_angle_beta     59.99999967994294
_cell_angle_gamma    59.99999835784076

_space_group_name_H-M_alt    "P 1"
_space_group_IT_number       1

loop_
  _space_group_symop_operation_xyz
  'x, y, z'

loop_
  _atom_site_type_symbol
  _atom_site_label
  _atom_site_symmetry_multiplicity
  _atom_site_fract_x
  _atom_site_fract_y
  _atom_site_fract_z
  _atom_site_occupancy
  Sn  Sn1       1.0  0.2500000359098589  0.25000011301677266  0.24999988809525597  1.0000
  Sn  Sn2       1.0  0.7500000995375773  0.7499999471124238  0.7500000363824201  1.0000
  Cr  Cr1       1.0  9.169486106346067e-09  4.531073647921395e-09  0.9999999931497201  1.0000
  O   O1        1.0  0.2425474608328301  0.24254744837813272  0.7574525785886549  1.0000
  O   O2        1.0  0.7574524587744159  0.7574525800335522  0.24254746966787255  1.0000
  O   O3        1.0  0.757452504887679  0.2425474762894416  0.242547462116147  1.0000
  O   O4        1.0  0.24254746425778553  0.7574524932182827  0.7574524816848607  1.0000
  O   O5        1.0  0.24254745291763602  0.7574525294694929  0.24254751654382034  1.0000
  O   O6        1.0  0.7574525023125936  0.2425473856653432  0.7574526019862959  1.0000
