data_image0
_chemical_formula_structural       Sn2CuO6
_chemical_formula_sum              "Sn2 Cu1 O6"
_cell_length_a       5.307762991633602
_cell_length_b       5.307762565792936
_cell_length_c       5.3077631554357785
_cell_angle_alpha    59.999999754079205
_cell_angle_beta     60.000000347679
_cell_angle_gamma    60.000000814438465

_space_group_name_H-M_alt    "P 1"
_space_group_IT_number       1

loop_
  _space_group_symop_operation_xyz
  'x, y, z'

loop_
  _atom_site_type_symbol
  _atom_site_label
  _atom_site_symmetry_multiplicity
  _atom_site_fract_x
  _atom_site_fract_y
  _atom_site_fract_z
  _atom_site_occupancy
  Sn  Sn1       1.0  0.24999986370900218  0.25000018427698467  0.24999994782054052  1.0000
  Sn  Sn2       1.0  0.7499997873477574  0.7500000359599718  0.7500002694353538  1.0000
  Cu  Cu1       1.0  0.9999999924404337  1.615221730185966e-08  0.9999999617910841  1.0000
  O   O1        1.0  0.2463354230099575  0.24633538261512175  0.7536646088627702  1.0000
  O   O2        1.0  0.7536647623022772  0.7536644292014557  0.24633533823196035  1.0000
  O   O3        1.0  0.7536647198251566  0.24633535906687412  0.2463353713945323  1.0000
  O   O4        1.0  0.24633535635789072  0.7536646235017296  0.7536646466265549  1.0000
  O   O5        1.0  0.24633553422022025  0.7536646040973853  0.24633521204713268  1.0000
  O   O6        1.0  0.7536645705081773  0.24633536462645522  0.7536646516691005  1.0000
