data_image0
_chemical_formula_structural       Sn2CoO6
_chemical_formula_sum              "Sn2 Co1 O6"
_cell_length_a       5.305162072118988
_cell_length_b       5.305161769721216
_cell_length_c       5.30516217492808
_cell_angle_alpha    59.99999904606814
_cell_angle_beta     59.99999935210373
_cell_angle_gamma    59.99999738397147

_space_group_name_H-M_alt    "P 1"
_space_group_IT_number       1

loop_
  _space_group_symop_operation_xyz
  'x, y, z'

loop_
  _atom_site_type_symbol
  _atom_site_label
  _atom_site_symmetry_multiplicity
  _atom_site_fract_x
  _atom_site_fract_y
  _atom_site_fract_z
  _atom_site_occupancy
  Sn  Sn1       1.0  0.25000003045832003  0.2500001123692083  0.24999987924394368  1.0000
  Sn  Sn2       1.0  0.7499997095151589  0.7500000069791164  0.7500003726022413  1.0000
  Co  Co1       1.0  0.9999999741226832  2.539450121657897e-08  0.9999999644272344  1.0000
  O   O1        1.0  0.2401036563508948  0.2401034547716214  0.7598965123246552  1.0000
  O   O2        1.0  0.7598964773198451  0.7598964498777266  0.24010340874795127  1.0000
  O   O3        1.0  0.7598963288388263  0.24010356376531164  0.24010356523375087  1.0000
  O   O4        1.0  0.2401036988593688  0.7598964955596385  0.7598963541068071  1.0000
  O   O5        1.0  0.24010358621616015  0.7598963177519763  0.24010353559736938  1.0000
  O   O6        1.0  0.75989654541005  0.24010357997159879  0.7598963956152578  1.0000
