data_image0
_chemical_formula_structural       Sn2CdSe6
_chemical_formula_sum              "Sn2 Cd1 Se6"
_cell_length_a       6.68856412225532
_cell_length_b       6.688564172164777
_cell_length_c       6.688564213886356
_cell_angle_alpha    59.99999945938491
_cell_angle_beta     60.00000013311584
_cell_angle_gamma    60.00000087450207

_space_group_name_H-M_alt    "P 1"
_space_group_IT_number       1

loop_
  _space_group_symop_operation_xyz
  'x, y, z'

loop_
  _atom_site_type_symbol
  _atom_site_label
  _atom_site_symmetry_multiplicity
  _atom_site_fract_x
  _atom_site_fract_y
  _atom_site_fract_z
  _atom_site_occupancy
  Sn  Sn1       1.0  0.2499998992739937  0.250000048847206  0.2500000029511647  1.0000
  Sn  Sn2       1.0  0.7500000776826308  0.7499998718761975  0.7500001999554184  1.0000
  Cd  Cd1       1.0  1.0062080524431162e-08  0.9999999853511783  0.9999998677353442  1.0000
  Se  Se1       1.0  0.2883251101959692  0.28832528287472614  0.7116748811774114  1.0000
  Se  Se2       1.0  0.711674829091374  0.711674802647932  0.28832509220928526  1.0000
  Se  Se3       1.0  0.711674848796669  0.28832534204316734  0.2883251546050152  1.0000
  Se  Se4       1.0  0.2883251578374732  0.7116747123507435  0.7116747917021211  1.0000
  Se  Se5       1.0  0.28832526405277903  0.7116747332039286  0.28832528134321683  1.0000
  Se  Se6       1.0  0.7116748004256274  0.28832521498601904  0.7116747369866232  1.0000
