data_image0
_chemical_formula_structural       Sn2CrTe6
_chemical_formula_sum              "Sn2 Cr1 Te6"
_cell_length_a       7.1208201178193535
_cell_length_b       7.120820215463985
_cell_length_c       7.1208203116674955
_cell_angle_alpha    60.00000163053364
_cell_angle_beta     60.00000077925336
_cell_angle_gamma    60.00000155096537

_space_group_name_H-M_alt    "P 1"
_space_group_IT_number       1

loop_
  _space_group_symop_operation_xyz
  'x, y, z'

loop_
  _atom_site_type_symbol
  _atom_site_label
  _atom_site_symmetry_multiplicity
  _atom_site_fract_x
  _atom_site_fract_y
  _atom_site_fract_z
  _atom_site_occupancy
  Sn  Sn1       1.0  0.24999992779739402  0.25000004926104147  0.24999997000301777  1.0000
  Sn  Sn2       1.0  0.749999991177174  0.7499995973994076  0.7500001192253894  1.0000
  Cr  Cr1       1.0  0.9999999658821318  0.9999999466815777  7.461346088084578e-08  1.0000
  Te  Te1       1.0  0.260221300712286  0.2602215504096299  0.739778560528917  1.0000
  Te  Te2       1.0  0.7397785792709841  0.7397785537572876  0.2602214823444918  1.0000
  Te  Te3       1.0  0.7397786244882099  0.2602215775843465  0.26022127080442675  1.0000
  Te  Te4       1.0  0.2602215305909592  0.7397785283025206  0.7397785929354164  1.0000
  Te  Te5       1.0  0.2602214987050123  0.7397785217726474  0.2602214276424379  1.0000
  Te  Te6       1.0  0.7397785757192978  0.26022167527152407  0.7397785066801427  1.0000
