data_image0
_chemical_formula_structural       Sn2CS6
_chemical_formula_sum              "Sn2 C1 S6"
_cell_length_a       6.169027083894172
_cell_length_b       6.169027644645012
_cell_length_c       6.1690269985712005
_cell_angle_alpha    59.999997924603235
_cell_angle_beta     60.000000175705566
_cell_angle_gamma    60.0000010760043

_space_group_name_H-M_alt    "P 1"
_space_group_IT_number       1

loop_
  _space_group_symop_operation_xyz
  'x, y, z'

loop_
  _atom_site_type_symbol
  _atom_site_label
  _atom_site_symmetry_multiplicity
  _atom_site_fract_x
  _atom_site_fract_y
  _atom_site_fract_z
  _atom_site_occupancy
  Sn  Sn1       1.0  0.24999997982812794  0.2500000736095652  0.2499996300925181  1.0000
  Sn  Sn2       1.0  0.7499999689429392  0.7500001156070842  0.7499995635915464  1.0000
  C   C1        1.0  1.4139145694942824e-06  0.999998358145979  7.23340694258513e-06  1.0000
  S   S1        1.0  0.22877050473519292  0.22877022052070056  0.7712300571038185  1.0000
  S   S2        1.0  0.7712297520899817  0.7712296172955011  0.22877085382065693  1.0000
  S   S3        1.0  0.7712314900510652  0.22876846199788217  0.2287689468254595  1.0000
  S   S4        1.0  0.22877227755941662  0.771227744681665  0.7712283980952105  1.0000
  S   S5        1.0  0.22876761318111355  0.771232342404583  0.2287679573844206  1.0000
  S   S6        1.0  0.7712270094617238  0.22877309994963668  0.7712273856339525  1.0000
