data_image0
_chemical_formula_structural       Sn2CdS6
_chemical_formula_sum              "Sn2 Cd1 S6"
_cell_length_a       6.494423139819209
_cell_length_b       6.494422531694029
_cell_length_c       6.49442307047349
_cell_angle_alpha    59.99999910043846
_cell_angle_beta     60.00000096123487
_cell_angle_gamma    59.99999947056521

_space_group_name_H-M_alt    "P 1"
_space_group_IT_number       1

loop_
  _space_group_symop_operation_xyz
  'x, y, z'

loop_
  _atom_site_type_symbol
  _atom_site_label
  _atom_site_symmetry_multiplicity
  _atom_site_fract_x
  _atom_site_fract_y
  _atom_site_fract_z
  _atom_site_occupancy
  Sn  Sn1       1.0  0.2499998978639632  0.2500001216464307  0.24999993556090372  1.0000
  Sn  Sn2       1.0  0.7500000671052296  0.7499997671276678  0.749999868019019  1.0000
  Cd  Cd1       1.0  0.9999999996241038  0.9999999264521955  0.9999999507340206  1.0000
  S   S1        1.0  0.2741773159520845  0.2741780172910475  0.7258223784222396  1.0000
  S   S2        1.0  0.7258224914507829  0.7258223335141274  0.274177761036415  1.0000
  S   S3        1.0  0.7258224302445049  0.2741775388994201  0.2741775985522344  1.0000
  S   S4        1.0  0.2741774930574902  0.7258224215366479  0.7258226350274906  1.0000
  S   S5        1.0  0.27417762649740235  0.7258223169514124  0.2741775848254571  1.0000
  S   S6        1.0  0.7258226820548516  0.2741775491926019  0.7258222769271154  1.0000
