data_image0
_chemical_formula_structural       Sn2CoTe6
_chemical_formula_sum              "Sn2 Co1 Te6"
_cell_length_a       7.054459354108672
_cell_length_b       7.0544586790310815
_cell_length_c       7.054459550655197
_cell_angle_alpha    59.99999528937048
_cell_angle_beta     59.99999644887144
_cell_angle_gamma    59.99999540562594

_space_group_name_H-M_alt    "P 1"
_space_group_IT_number       1

loop_
  _space_group_symop_operation_xyz
  'x, y, z'

loop_
  _atom_site_type_symbol
  _atom_site_label
  _atom_site_symmetry_multiplicity
  _atom_site_fract_x
  _atom_site_fract_y
  _atom_site_fract_z
  _atom_site_occupancy
  Sn  Sn1       1.0  0.2500000307478797  0.2499999752273131  0.25000003263754417  1.0000
  Sn  Sn2       1.0  0.7499998710008818  0.7500002260322355  0.7499998159590071  1.0000
  Co  Co1       1.0  2.8112928455719903e-09  0.9999999670135513  5.336123994447484e-08  1.0000
  Te  Te1       1.0  0.24655873529772246  0.24655849872839658  0.7534414165239289  1.0000
  Te  Te2       1.0  0.7534413251790485  0.7534414473202069  0.24655875248235087  1.0000
  Te  Te3       1.0  0.7534413239762926  0.2465586191601375  0.24655860153924583  1.0000
  Te  Te4       1.0  0.24655869822339405  0.7534414171671673  0.7534413472628301  1.0000
  Te  Te5       1.0  0.2465586614337553  0.7534411848077863  0.24655860380483624  1.0000
  Te  Te6       1.0  0.753441354817258  0.24655864839243907  0.7534413899983096  1.0000
