data_image0
_chemical_formula_structural       Sn2CaO6
_chemical_formula_sum              "Sn2 Ca1 O6"
_cell_length_a       5.532196925409627
_cell_length_b       5.532196789954755
_cell_length_c       5.532196774628993
_cell_angle_alpha    59.999998945643114
_cell_angle_beta     60.00000019105
_cell_angle_gamma    59.99999942078271

_space_group_name_H-M_alt    "P 1"
_space_group_IT_number       1

loop_
  _space_group_symop_operation_xyz
  'x, y, z'

loop_
  _atom_site_type_symbol
  _atom_site_label
  _atom_site_symmetry_multiplicity
  _atom_site_fract_x
  _atom_site_fract_y
  _atom_site_fract_z
  _atom_site_occupancy
  Sn  Sn1       1.0  0.2500001156028841  0.2499997355965255  0.25000035155606254  1.0000
  Sn  Sn2       1.0  0.7499999225130332  0.7500002229463144  0.7500005273647957  1.0000
  Ca  Ca1       1.0  0.9999999865685695  8.412626507149508e-08  3.153378949074669e-08  1.0000
  O   O1        1.0  0.28303116344128176  0.2830310232941217  0.716968836750805  1.0000
  O   O2        1.0  0.716968822367106  0.7169689418902774  0.2830308918705086  1.0000
  O   O3        1.0  0.7169688899433964  0.28303109352529154  0.2830310123336822  1.0000
  O   O4        1.0  0.2830309588850261  0.7169690133454497  0.7169686976660405  1.0000
  O   O5        1.0  0.2830311959791293  0.716969037742405  0.2830309255463934  1.0000
  O   O6        1.0  0.7169689429789464  0.2830308499572767  0.7169687200524298  1.0000
