data_image0
_chemical_formula_structural       Sn2CoN6
_chemical_formula_sum              "Sn2 Co1 N6"
_cell_length_a       5.2299388222224925
_cell_length_b       5.229939012872235
_cell_length_c       5.229938974016828
_cell_angle_alpha    60.0000007813326
_cell_angle_beta     59.99999866762662
_cell_angle_gamma    60.00000006492897

_space_group_name_H-M_alt    "P 1"
_space_group_IT_number       1

loop_
  _space_group_symop_operation_xyz
  'x, y, z'

loop_
  _atom_site_type_symbol
  _atom_site_label
  _atom_site_symmetry_multiplicity
  _atom_site_fract_x
  _atom_site_fract_y
  _atom_site_fract_z
  _atom_site_occupancy
  Sn  Sn1       1.0  0.2500000072140049  0.24999995867571123  0.24999990894781304  1.0000
  Sn  Sn2       1.0  0.7500000723769812  0.7499999556481883  0.7499999159704993  1.0000
  Co  Co1       1.0  3.0910128104607574e-08  0.9999999999999996  0.9999999539518449  1.0000
  N   N1        1.0  0.25010731103997347  0.2501071183003736  0.749892809727347  1.0000
  N   N2        1.0  0.7498927846297657  0.7498928405176456  0.25010724112166804  1.0000
  N   N3        1.0  0.7498928790599423  0.25010724591057676  0.2501072626194494  1.0000
  N   N4        1.0  0.2501071173437879  0.749892785503109  0.749892769059578  1.0000
  N   N5        1.0  0.25010716386407933  0.7498927442969662  0.250107334299756  1.0000
  N   N6        1.0  0.7498926611946526  0.2501073573705915  0.7498927785179267  1.0000
