data_image0
_chemical_formula_structural       Sn2CO6
_chemical_formula_sum              "Sn2 C1 O6"
_cell_length_a       5.007666361877416
_cell_length_b       5.007666732922355
_cell_length_c       5.0076666490975255
_cell_angle_alpha    60.00000127901023
_cell_angle_beta     60.000003021768286
_cell_angle_gamma    60.00000240531857

_space_group_name_H-M_alt    "P 1"
_space_group_IT_number       1

loop_
  _space_group_symop_operation_xyz
  'x, y, z'

loop_
  _atom_site_type_symbol
  _atom_site_label
  _atom_site_symmetry_multiplicity
  _atom_site_fract_x
  _atom_site_fract_y
  _atom_site_fract_z
  _atom_site_occupancy
  Sn  Sn1       1.0  0.24999998383367186  0.24999992595017306  0.24999975732027901  1.0000
  Sn  Sn2       1.0  0.7499999514530522  0.749999861005657  0.7499998354794748  1.0000
  C   C1        1.0  0.9999994519757548  0.9999984273895421  0.9999954249581867  1.0000
  O   O1        1.0  0.22545674498883556  0.22545667513591075  0.7745433296892961  1.0000
  O   O2        1.0  0.7745443576486739  0.7745444520851745  0.22545560439002263  1.0000
  O   O3        1.0  0.7745423599147867  0.2254577592268852  0.22545775240951393  1.0000
  O   O4        1.0  0.22545459695160802  0.7745454150781489  0.7745454900161186  1.0000
  O   O5        1.0  0.22545739892977334  0.7745425445803511  0.22545761314369178  1.0000
  O   O6        1.0  0.7745451532278327  0.22545491892289485  0.7745451498610745  1.0000
