data_image0
_chemical_formula_structural       Sn2CN6
_chemical_formula_sum              "Sn2 C1 N6"
_cell_length_a       5.1910852324413135
_cell_length_b       5.191084995171863
_cell_length_c       5.191085231627896
_cell_angle_alpha    60.00000254897208
_cell_angle_beta     60.00000165449151
_cell_angle_gamma    60.000000925928504

_space_group_name_H-M_alt    "P 1"
_space_group_IT_number       1

loop_
  _space_group_symop_operation_xyz
  'x, y, z'

loop_
  _atom_site_type_symbol
  _atom_site_label
  _atom_site_symmetry_multiplicity
  _atom_site_fract_x
  _atom_site_fract_y
  _atom_site_fract_z
  _atom_site_occupancy
  Sn  Sn1       1.0  0.25000001160125923  0.24999994230550662  0.25000003655841063  1.0000
  Sn  Sn2       1.0  0.7500000095682079  0.7500000227403651  0.7500000474976534  1.0000
  C   C1        1.0  1.0259584335587249e-07  0.9999997522710566  4.88664508471439e-07  1.0000
  N   N1        1.0  0.22573182680896484  0.22573173957782366  0.7742682936489647  1.0000
  N   N2        1.0  0.7742681923365219  0.7742683316376053  0.22573181731587236  1.0000
  N   N3        1.0  0.7742684509459286  0.22573157378056524  0.22573153083369674  1.0000
  N   N4        1.0  0.22573167838994582  0.7742682402685952  0.7742682702695602  1.0000
  N   N5        1.0  0.22573153341238753  0.7742684142909241  0.2257315061190007  1.0000
  N   N6        1.0  0.774268135443372  0.22573190701276363  0.774268040431524  1.0000
