data_image0
_chemical_formula_structural       Sn2FeS6
_chemical_formula_sum              "Sn2 Fe1 S6"
_cell_length_a       6.272887466543131
_cell_length_b       6.272887569084176
_cell_length_c       6.272887318667729
_cell_angle_alpha    60.000001090876246
_cell_angle_beta     60.00000166523782
_cell_angle_gamma    60.00000022488024

_space_group_name_H-M_alt    "P 1"
_space_group_IT_number       1

loop_
  _space_group_symop_operation_xyz
  'x, y, z'

loop_
  _atom_site_type_symbol
  _atom_site_label
  _atom_site_symmetry_multiplicity
  _atom_site_fract_x
  _atom_site_fract_y
  _atom_site_fract_z
  _atom_site_occupancy
  Sn  Sn1       1.0  0.2499999054831412  0.250000089308439  0.25000003264426707  1.0000
  Sn  Sn2       1.0  0.7499999575406926  0.7499999809163538  0.7500000698784594  1.0000
  Fe  Fe1       1.0  3.562563205963266e-08  0.9999999980475579  0.9999999624392963  1.0000
  S   S1        1.0  0.24463046310628225  0.24463041620774584  0.7553695968392755  1.0000
  S   S2        1.0  0.7553695403017889  0.755369564204718  0.24463041822517098  1.0000
  S   S3        1.0  0.7553695570130075  0.244630525940382  0.24463042799513385  1.0000
  S   S4        1.0  0.24463053408252666  0.7553694896160356  0.7553694889878735  1.0000
  S   S5        1.0  0.24463052460787868  0.7553695043693412  0.24463047618560677  1.0000
  S   S6        1.0  0.7553695026378271  0.24463044870893583  0.7553694896139245  1.0000
