data_image0
_chemical_formula_structural       Sn2FeTe6
_chemical_formula_sum              "Sn2 Fe1 Te6"
_cell_length_a       7.099726487819964
_cell_length_b       7.099726633802781
_cell_length_c       7.099726115470959
_cell_angle_alpha    60.00000347180392
_cell_angle_beta     59.99999926478438
_cell_angle_gamma    59.99999799122536

_space_group_name_H-M_alt    "P 1"
_space_group_IT_number       1

loop_
  _space_group_symop_operation_xyz
  'x, y, z'

loop_
  _atom_site_type_symbol
  _atom_site_label
  _atom_site_symmetry_multiplicity
  _atom_site_fract_x
  _atom_site_fract_y
  _atom_site_fract_z
  _atom_site_occupancy
  Sn  Sn1       1.0  0.2499998439199852  0.25000004757189564  0.250000068804722  1.0000
  Sn  Sn2       1.0  0.7500000781689622  0.7499999184579699  0.7499998791349147  1.0000
  Fe  Fe1       1.0  5.656327400840013e-08  0.9999999620486971  3.154065918489048e-08  1.0000
  Te  Te1       1.0  0.2404169303903919  0.24041706873635726  0.759582990055515  1.0000
  Te  Te2       1.0  0.7595830806573425  0.7595829231693948  0.24041705117682258  1.0000
  Te  Te3       1.0  0.7595831512456828  0.24041690360480936  0.24041690943442964  1.0000
  Te  Te4       1.0  0.24041692362634043  0.7595830676002302  0.7595831229126639  1.0000
  Te  Te5       1.0  0.24041691176793464  0.7595829858076277  0.24041709064562278  1.0000
  Te  Te6       1.0  0.7595830221962022  0.24041712512720734  0.7595828591887227  1.0000
