data_image0
_chemical_formula_structural       Sn2FeSe6
_chemical_formula_sum              "Sn2 Fe1 Se6"
_cell_length_a       6.66195970671809
_cell_length_b       6.6619596837429595
_cell_length_c       6.661959700510846
_cell_angle_alpha    60.000000863320054
_cell_angle_beta     60.00000043958411
_cell_angle_gamma    60.00000060193441

_space_group_name_H-M_alt    "P 1"
_space_group_IT_number       1

loop_
  _space_group_symop_operation_xyz
  'x, y, z'

loop_
  _atom_site_type_symbol
  _atom_site_label
  _atom_site_symmetry_multiplicity
  _atom_site_fract_x
  _atom_site_fract_y
  _atom_site_fract_z
  _atom_site_occupancy
  Sn  Sn1       1.0  0.2500000730424991  0.24999990598043476  0.25000001601306027  1.0000
  Sn  Sn2       1.0  0.7500000051595672  0.7500000010572591  0.7499999414142985  1.0000
  Fe  Fe1       1.0  0.9999999764340626  2.3899398615603296e-08  0.9999999758163124  1.0000
  Se  Se1       1.0  0.24183178970844227  0.24183182587378402  0.7581681946092875  1.0000
  Se  Se2       1.0  0.7581681732022592  0.7581682190450578  0.24183182657617094  1.0000
  Se  Se3       1.0  0.7581681838801947  0.2418317766051507  0.24183181089673908  1.0000
  Se  Se4       1.0  0.24183182554957652  0.7581682223533084  0.7581681829902994  1.0000
  Se  Se5       1.0  0.24183181840420023  0.7581681698114147  0.24183182164618303  1.0000
  Se  Se6       1.0  0.7581681483936134  0.24183185304644364  0.7581682251378692  1.0000
