data_image0
_chemical_formula_structural       Sn2GeSe6
_chemical_formula_sum              "Sn2 Ge1 Se6"
_cell_length_a       6.700409953879812
_cell_length_b       6.7004099673722735
_cell_length_c       6.700409801273711
_cell_angle_alpha    59.999999917019515
_cell_angle_beta     60.000000334815425
_cell_angle_gamma    59.999999933279184

_space_group_name_H-M_alt    "P 1"
_space_group_IT_number       1

loop_
  _space_group_symop_operation_xyz
  'x, y, z'

loop_
  _atom_site_type_symbol
  _atom_site_label
  _atom_site_symmetry_multiplicity
  _atom_site_fract_x
  _atom_site_fract_y
  _atom_site_fract_z
  _atom_site_occupancy
  Sn  Sn1       1.0  0.2500000264720691  0.24999991763070636  0.2500000298339041  1.0000
  Sn  Sn2       1.0  0.7499999908423602  0.7500000599735364  0.7499999787554797  1.0000
  Ge  Ge1       1.0  6.092885295113393e-09  0.9999999817213443  0.9999999956457631  1.0000
  Se  Se1       1.0  0.26088644179283293  0.2608863699300835  0.739113609252067  1.0000
  Se  Se2       1.0  0.7391135481215485  0.7391136588543951  0.2608863889396686  1.0000
  Se  Se3       1.0  0.739113583402902  0.2608863768633198  0.2608864363118015  1.0000
  Se  Se4       1.0  0.2608864204026422  0.7391136464375623  0.7391135517063668  1.0000
  Se  Se5       1.0  0.2608864047297784  0.739113632297919  0.26088639767276295  1.0000
  Se  Se6       1.0  0.739113582869922  0.2608863672407105  0.7391136013747776  1.0000
