data_image0
_chemical_formula_structural       Sn2GeS6
_chemical_formula_sum              "Sn2 Ge1 S6"
_cell_length_a       6.452406548784501
_cell_length_b       6.452406817259674
_cell_length_c       6.452406560899597
_cell_angle_alpha    60.00000059366821
_cell_angle_beta     60.0000005764655
_cell_angle_gamma    59.99999925296804

_space_group_name_H-M_alt    "P 1"
_space_group_IT_number       1

loop_
  _space_group_symop_operation_xyz
  'x, y, z'

loop_
  _atom_site_type_symbol
  _atom_site_label
  _atom_site_symmetry_multiplicity
  _atom_site_fract_x
  _atom_site_fract_y
  _atom_site_fract_z
  _atom_site_occupancy
  Sn  Sn1       1.0  0.2500000135676491  0.2499999284233283  0.2500000396284544  1.0000
  Sn  Sn2       1.0  0.7500000384232846  0.7499999048516054  0.7500001098282828  1.0000
  Ge  Ge1       1.0  0.9999999875102906  0.9999999354638877  1.9915199018832776e-08  1.0000
  S   S1        1.0  0.2548294368434853  0.25482943178769746  0.745170573136028  1.0000
  S   S2        1.0  0.7451706582736879  0.7451706425485989  0.2548293505372024  1.0000
  S   S3        1.0  0.7451705819828928  0.2548293729708951  0.25482938088431173  1.0000
  S   S4        1.0  0.25482934364969057  0.7451707051616474  0.745170568290144  1.0000
  S   S5        1.0  0.25482931635032363  0.7451706970636637  0.2548293543664133  1.0000
  S   S6        1.0  0.7451706296001896  0.25482937917075726  0.7451705948969944  1.0000
