data_image0
_chemical_formula_structural       Sn2HfN6
_chemical_formula_sum              "Sn2 Hf1 N6"
_cell_length_a       5.197020507547941
_cell_length_b       5.197020381723003
_cell_length_c       5.197020404739449
_cell_angle_alpha    60.000002057923375
_cell_angle_beta     60.00000190743614
_cell_angle_gamma    59.9999982264719

_space_group_name_H-M_alt    "P 1"
_space_group_IT_number       1

loop_
  _space_group_symop_operation_xyz
  'x, y, z'

loop_
  _atom_site_type_symbol
  _atom_site_label
  _atom_site_symmetry_multiplicity
  _atom_site_fract_x
  _atom_site_fract_y
  _atom_site_fract_z
  _atom_site_occupancy
  Sn  Sn1       1.0  0.2500000733032698  0.25000020950585683  0.2499998608235648  1.0000
  Sn  Sn2       1.0  0.7499999539926577  0.7500000864929235  0.7500000191526334  1.0000
  Hf  Hf1       1.0  1.3057573103054457e-08  2.4744603796133854e-07  0.9999998658998398  1.0000
  N   N1        1.0  0.286766642554507  0.28676659220790984  0.7132333892000028  1.0000
  N   N2        1.0  0.7132340329828021  0.7132337320703911  0.28676582732941963  1.0000
  N   N3        1.0  0.7132334108521632  0.286766254237652  0.28676662428907634  1.0000
  N   N4        1.0  0.2867660853910293  0.7132331886614764  0.7132342979639605  1.0000
  N   N5        1.0  0.2867663656843301  0.71323345810559  0.2867662420608089  1.0000
  N   N6        1.0  0.7132334272278191  0.2867662345961857  0.7132338758828977  1.0000
