data_image0
_chemical_formula_structural       Sn2HgSe6
_chemical_formula_sum              "Sn2 Hg1 Se6"
_cell_length_a       6.709245054173992
_cell_length_b       6.709245072987112
_cell_length_c       6.709245229994098
_cell_angle_alpha    60.00000071669187
_cell_angle_beta     60.000000607870014
_cell_angle_gamma    60.000001529193725

_space_group_name_H-M_alt    "P 1"
_space_group_IT_number       1

loop_
  _space_group_symop_operation_xyz
  'x, y, z'

loop_
  _atom_site_type_symbol
  _atom_site_label
  _atom_site_symmetry_multiplicity
  _atom_site_fract_x
  _atom_site_fract_y
  _atom_site_fract_z
  _atom_site_occupancy
  Sn  Sn1       1.0  0.25000010753803215  0.24999997542622138  0.2499999380379491  1.0000
  Sn  Sn2       1.0  0.7499999518377448  0.7499999956460844  0.750000030399457  1.0000
  Hg  Hg1       1.0  0.9999999870488152  0.9999999872217905  3.3731425557624413e-08  1.0000
  Se  Se1       1.0  0.28981743032435947  0.2898173446014295  0.7101826548049607  1.0000
  Se  Se2       1.0  0.7101825584880068  0.7101826264708757  0.28981736232847577  1.0000
  Se  Se3       1.0  0.7101825006589787  0.28981749678390134  0.28981737914445566  1.0000
  Se  Se4       1.0  0.2898174272541073  0.7101825692122454  0.7101825583765142  1.0000
  Se  Se5       1.0  0.28981747358194404  0.7101826283416119  0.28981732546467576  1.0000
  Se  Se6       1.0  0.710182562898071  0.28981737011257225  0.7101827167441838  1.0000
