data_image0
_chemical_formula_structural       Sn2InSe6
_chemical_formula_sum              "Sn2 In1 Se6"
_cell_length_a       6.728606117262182
_cell_length_b       6.728606131370573
_cell_length_c       6.728606244451246
_cell_angle_alpha    59.99999978723746
_cell_angle_beta     60.00000019074362
_cell_angle_gamma    60.00000043323639

_space_group_name_H-M_alt    "P 1"
_space_group_IT_number       1

loop_
  _space_group_symop_operation_xyz
  'x, y, z'

loop_
  _atom_site_type_symbol
  _atom_site_label
  _atom_site_symmetry_multiplicity
  _atom_site_fract_x
  _atom_site_fract_y
  _atom_site_fract_z
  _atom_site_occupancy
  Sn  Sn1       1.0  0.250000087728659  0.24999997911160243  0.24999996695309856  1.0000
  Sn  Sn2       1.0  0.749999977583586  0.74999997555913  0.74999992348728  1.0000
  In  In1       1.0  0.9999999940724675  0.9999999508544402  5.4287999967601006e-08  1.0000
  Se  Se1       1.0  0.28522968244377744  0.2852296375590436  0.7147703329187274  1.0000
  Se  Se2       1.0  0.7147703372592227  0.7147704590877506  0.2852296936260367  1.0000
  Se  Se3       1.0  0.7147703360363317  0.285229594184572  0.28522963262314543  1.0000
  Se  Se4       1.0  0.28522970882245524  0.7147702931385413  0.7147703819721332  1.0000
  Se  Se5       1.0  0.28522960056567287  0.7147703910831533  0.2852296360427439  1.0000
  Se  Se6       1.0  0.7147702689170196  0.28522972376569933  0.7147703762567822  1.0000
