data_image0
_chemical_formula_structural       Sn2InTe6
_chemical_formula_sum              "Sn2 In1 Te6"
_cell_length_a       7.416944239599725
_cell_length_b       7.416944160799745
_cell_length_c       7.416944348331684
_cell_angle_alpha    59.9999996633601
_cell_angle_beta     60.00000076143939
_cell_angle_gamma    59.99999980336437

_space_group_name_H-M_alt    "P 1"
_space_group_IT_number       1

loop_
  _space_group_symop_operation_xyz
  'x, y, z'

loop_
  _atom_site_type_symbol
  _atom_site_label
  _atom_site_symmetry_multiplicity
  _atom_site_fract_x
  _atom_site_fract_y
  _atom_site_fract_z
  _atom_site_occupancy
  Sn  Sn1       1.0  0.2500000039410883  0.24999994968752354  0.2500001256946917  1.0000
  Sn  Sn2       1.0  0.7500000226239293  0.7500000174930921  0.7499998438895852  1.0000
  In  In1       1.0  0.9999999853435634  6.605118513823891e-09  1.3463507846470495e-08  1.0000
  Te  Te1       1.0  0.2748146904913216  0.27481470173050726  0.725185276730528  1.0000
  Te  Te2       1.0  0.7251853124053559  0.7251853364551325  0.2748147730017448  1.0000
  Te  Te3       1.0  0.7251852366390525  0.2748146718969651  0.27481469155789146  1.0000
  Te  Te4       1.0  0.2748146892330955  0.7251853778476319  0.7251852776529802  1.0000
  Te  Te5       1.0  0.2748146414669425  0.725185279991767  0.2748147256997131  1.0000
  Te  Te6       1.0  0.7251854189087997  0.27481465581453585  0.7251852763729615  1.0000
