data_image0
_chemical_formula_structural       Sn2InS6
_chemical_formula_sum              "Sn2 In1 S6"
_cell_length_a       6.531403085888526
_cell_length_b       6.531403199805527
_cell_length_c       6.531403168483641
_cell_angle_alpha    59.999998224284475
_cell_angle_beta     60.000000369531065
_cell_angle_gamma    59.99999927795907

_space_group_name_H-M_alt    "P 1"
_space_group_IT_number       1

loop_
  _space_group_symop_operation_xyz
  'x, y, z'

loop_
  _atom_site_type_symbol
  _atom_site_label
  _atom_site_symmetry_multiplicity
  _atom_site_fract_x
  _atom_site_fract_y
  _atom_site_fract_z
  _atom_site_occupancy
  Sn  Sn1       1.0  0.2500001198967558  0.2499998089135344  0.2500000128754017  1.0000
  Sn  Sn2       1.0  0.7499999488428444  0.7500000811726686  0.7499999306134529  1.0000
  In  In1       1.0  6.693287480173913e-08  0.9999998893653526  2.9506211181482567e-08  1.0000
  S   S1        1.0  0.27388133891774646  0.27388116255914857  0.7261187149682724  1.0000
  S   S2        1.0  0.7261187464286397  0.7261187837819613  0.2738811339092814  1.0000
  S   S3        1.0  0.726118667314556  0.2738812610043087  0.27388124355370835  1.0000
  S   S4        1.0  0.27388142281462663  0.7261188672276573  0.7261186834662485  1.0000
  S   S5        1.0  0.2738810854937742  0.7261188766156438  0.2738813918958848  1.0000
  S   S6        1.0  0.7261186223354825  0.2738812741182819  0.7261188421014122  1.0000
