data_image0
_chemical_formula_structural       Sn2IrN6
_chemical_formula_sum              "Sn2 Ir1 N6"
_cell_length_a       5.396311357528786
_cell_length_b       5.39631121260075
_cell_length_c       5.396311245634818
_cell_angle_alpha    59.99999905406703
_cell_angle_beta     59.99999918128713
_cell_angle_gamma    59.99999906613888

_space_group_name_H-M_alt    "P 1"
_space_group_IT_number       1

loop_
  _space_group_symop_operation_xyz
  'x, y, z'

loop_
  _atom_site_type_symbol
  _atom_site_label
  _atom_site_symmetry_multiplicity
  _atom_site_fract_x
  _atom_site_fract_y
  _atom_site_fract_z
  _atom_site_occupancy
  Sn  Sn1       1.0  0.2500002889152432  0.24999991730779067  0.24999994956559934  1.0000
  Sn  Sn2       1.0  0.7499999391941061  0.7499999925005968  0.7500000476408245  1.0000
  Ir  Ir1       1.0  0.9999999900575519  0.9999999977304035  2.0930964195523595e-08  1.0000
  N   N1        1.0  0.25905312787969537  0.25905306844738224  0.7409468760067272  1.0000
  N   N2        1.0  0.7409467672817186  0.7409470955558096  0.2590530252986708  1.0000
  N   N3        1.0  0.7409468263846098  0.25905308564952867  0.25905308785482  1.0000
  N   N4        1.0  0.2590531264253179  0.7409468604724022  0.7409469417480129  1.0000
  N   N5        1.0  0.25905310988319996  0.7409468549850179  0.25905307532870125  1.0000
  N   N6        1.0  0.7409468393813967  0.25905312745045644  0.7409469768054974  1.0000
