data_image0
_chemical_formula_structural       Sn2MnTe6
_chemical_formula_sum              "Sn2 Mn1 Te6"
_cell_length_a       7.067496051874588
_cell_length_b       7.06749650961442
_cell_length_c       7.067496260383561
_cell_angle_alpha    60.00000212418751
_cell_angle_beta     60.00000277404162
_cell_angle_gamma    60.00000006715815

_space_group_name_H-M_alt    "P 1"
_space_group_IT_number       1

loop_
  _space_group_symop_operation_xyz
  'x, y, z'

loop_
  _atom_site_type_symbol
  _atom_site_label
  _atom_site_symmetry_multiplicity
  _atom_site_fract_x
  _atom_site_fract_y
  _atom_site_fract_z
  _atom_site_occupancy
  Sn  Sn1       1.0  0.24999995417210927  0.2499999735793573  0.2500000435766769  1.0000
  Sn  Sn2       1.0  0.7500000012888738  0.7500000974965197  0.7500001639798506  1.0000
  Mn  Mn1       1.0  9.21875904476302e-08  0.9999999636085508  1.0652011390023146e-07  1.0000
  Te  Te1       1.0  0.2505559417390794  0.2505559361584735  0.749444026048432  1.0000
  Te  Te2       1.0  0.7494440438413792  0.7494440690662159  0.25055582866275455  1.0000
  Te  Te3       1.0  0.7494440133718725  0.2505560093313998  0.25055605228027855  1.0000
  Te  Te4       1.0  0.2505559542535917  0.7494439664335476  0.7494439237683236  1.0000
  Te  Te5       1.0  0.2505559845902727  0.7494440443356314  0.2505559311063835  1.0000
  Te  Te6       1.0  0.7494440181042272  0.25055594875857545  0.7494439112085265  1.0000
