data_image0
_chemical_formula_structural       Sn2MgTe6
_chemical_formula_sum              "Sn2 Mg1 Te6"
_cell_length_a       7.331864482440986
_cell_length_b       7.331864408322057
_cell_length_c       7.331864495590378
_cell_angle_alpha    60.00000191875419
_cell_angle_beta     59.99999940602376
_cell_angle_gamma    59.99999781421543

_space_group_name_H-M_alt    "P 1"
_space_group_IT_number       1

loop_
  _space_group_symop_operation_xyz
  'x, y, z'

loop_
  _atom_site_type_symbol
  _atom_site_label
  _atom_site_symmetry_multiplicity
  _atom_site_fract_x
  _atom_site_fract_y
  _atom_site_fract_z
  _atom_site_occupancy
  Sn  Sn1       1.0  0.2500002112343802  0.250000388354914  0.2499996588560657  1.0000
  Sn  Sn2       1.0  0.749999993057859  0.7499997702463448  0.7500002534428293  1.0000
  Mg  Mg1       1.0  0.9999999780468362  0.9999999949886741  0.9999999098251191  1.0000
  Te  Te1       1.0  0.2759179540043075  0.27591813751378697  0.7240820103781915  1.0000
  Te  Te2       1.0  0.7240820782437379  0.7240818757590853  0.2759178723874739  1.0000
  Te  Te3       1.0  0.7240817270120039  0.2759182518659601  0.2759179107521067  1.0000
  Te  Te4       1.0  0.27591814335638504  0.7240816611804469  0.7240822108154731  1.0000
  Te  Te5       1.0  0.27591818893023634  0.724081753764214  0.27591800668258243  1.0000
  Te  Te6       1.0  0.724081732391993  0.2759181576117524  0.7240821775335081  1.0000
