data_image0
_chemical_formula_structural       Sn2MnO6
_chemical_formula_sum              "Sn2 Mn1 O6"
_cell_length_a       5.44241971251041
_cell_length_b       5.442419779469773
_cell_length_c       5.442419699383686
_cell_angle_alpha    60.00000045219271
_cell_angle_beta     59.99999940353564
_cell_angle_gamma    60.00000003714639

_space_group_name_H-M_alt    "P 1"
_space_group_IT_number       1

loop_
  _space_group_symop_operation_xyz
  'x, y, z'

loop_
  _atom_site_type_symbol
  _atom_site_label
  _atom_site_symmetry_multiplicity
  _atom_site_fract_x
  _atom_site_fract_y
  _atom_site_fract_z
  _atom_site_occupancy
  Sn  Sn1       1.0  0.25000000353205665  0.2500000446992557  0.24999998378502905  1.0000
  Sn  Sn2       1.0  0.7500000006754984  0.7500000238297232  0.7499999949126829  1.0000
  Mn  Mn1       1.0  0.999999966354883  0.9999999099852703  3.059381727445125e-08  1.0000
  O   O1        1.0  0.24339281606567953  0.24339280711573344  0.7566071872150046  1.0000
  O   O2        1.0  0.7566071901569238  0.75660722990809  0.24339278601616293  1.0000
  O   O3        1.0  0.7566072097967067  0.243392771100231  0.24339280211161662  1.0000
  O   O4        1.0  0.24339275189295884  0.7566072276673325  0.7566072253760759  1.0000
  O   O5        1.0  0.2433928372624612  0.7566072175555905  0.24339276580243055  1.0000
  O   O6        1.0  0.7566072323969308  0.24339275645792194  0.7566072127277518  1.0000
