data_image0
_chemical_formula_structural       Sn2MgSe6
_chemical_formula_sum              "Sn2 Mg1 Se6"
_cell_length_a       6.626802168447512
_cell_length_b       6.626802138604729
_cell_length_c       6.626802430485486
_cell_angle_alpha    59.99999894991245
_cell_angle_beta     59.99999822300985
_cell_angle_gamma    59.9999996059223

_space_group_name_H-M_alt    "P 1"
_space_group_IT_number       1

loop_
  _space_group_symop_operation_xyz
  'x, y, z'

loop_
  _atom_site_type_symbol
  _atom_site_label
  _atom_site_symmetry_multiplicity
  _atom_site_fract_x
  _atom_site_fract_y
  _atom_site_fract_z
  _atom_site_occupancy
  Sn  Sn1       1.0  0.2500000887965649  0.2500000525017438  0.24999993296959208  1.0000
  Sn  Sn2       1.0  0.7499999968052508  0.7499998266830186  0.7500000885489407  1.0000
  Mg  Mg1       1.0  0.9999999708008002  0.9999999778219743  0.9999999849449808  1.0000
  Se  Se1       1.0  0.28275649126422864  0.28275655760397145  0.7172434783781507  1.0000
  Se  Se2       1.0  0.7172434742791577  0.7172435562982251  0.28275650542818503  1.0000
  Se  Se3       1.0  0.7172433794275088  0.2827565697765581  0.2827564472666388  1.0000
  Se  Se4       1.0  0.28275662156631426  0.7172433907276295  0.7172435019540311  1.0000
  Se  Se5       1.0  0.2827565874238168  0.7172434156759437  0.282756486573818  1.0000
  Se  Se6       1.0  0.7172433896313755  0.28275664278118995  0.7172435855961761  1.0000
