data_image0
_chemical_formula_structural       Sn2MgS6
_chemical_formula_sum              "Sn2 Mg1 S6"
_cell_length_a       6.465869812277303
_cell_length_b       6.4658701071539
_cell_length_c       6.46587008650994
_cell_angle_alpha    59.99999907190574
_cell_angle_beta     59.99999772097653
_cell_angle_gamma    59.99999813298064

_space_group_name_H-M_alt    "P 1"
_space_group_IT_number       1

loop_
  _space_group_symop_operation_xyz
  'x, y, z'

loop_
  _atom_site_type_symbol
  _atom_site_label
  _atom_site_symmetry_multiplicity
  _atom_site_fract_x
  _atom_site_fract_y
  _atom_site_fract_z
  _atom_site_occupancy
  Sn  Sn1       1.0  0.2499999593693057  0.24999991549090353  0.2500000600048487  1.0000
  Sn  Sn2       1.0  0.7500000658345335  0.7499999226303946  0.7500002207802394  1.0000
  Mg  Mg1       1.0  0.9999999765860137  0.9999999791641441  9.94540346792882e-08  1.0000
  S   S1        1.0  0.2682569247047917  0.268256910931652  0.7317430649305823  1.0000
  S   S2        1.0  0.731743030631462  0.7317431260773642  0.26825684048140325  1.0000
  S   S3        1.0  0.731743191696283  0.2682568827053086  0.26825687310873875  1.0000
  S   S4        1.0  0.26825683622800045  0.7317431561978751  0.7317429811429074  1.0000
  S   S5        1.0  0.2682569028587369  0.7317432150257919  0.2682568755602824  1.0000
  S   S6        1.0  0.7317431167305659  0.26825688638495904  0.7317429902696266  1.0000
