data_image0
_chemical_formula_structural       Sn2MnS6
_chemical_formula_sum              "Sn2 Mn1 S6"
_cell_length_a       6.3635848129868835
_cell_length_b       6.36358450525139
_cell_length_c       6.36358482093178
_cell_angle_alpha    60.000002385422924
_cell_angle_beta     60.00000212236986
_cell_angle_gamma    60.00000159350452

_space_group_name_H-M_alt    "P 1"
_space_group_IT_number       1

loop_
  _space_group_symop_operation_xyz
  'x, y, z'

loop_
  _atom_site_type_symbol
  _atom_site_label
  _atom_site_symmetry_multiplicity
  _atom_site_fract_x
  _atom_site_fract_y
  _atom_site_fract_z
  _atom_site_occupancy
  Sn  Sn1       1.0  0.25000008213270714  0.2500000585289086  0.24999991929120197  1.0000
  Sn  Sn2       1.0  0.7500000375809543  0.7500000562606142  0.7500000146602749  1.0000
  Mn  Mn1       1.0  0.9999999470857803  0.9999999518846292  0.9999999939429062  1.0000
  S   S1        1.0  0.24535182300958433  0.24535176697794156  0.754648208480553  1.0000
  S   S2        1.0  0.7546482055587175  0.7546481476516457  0.24535178940861624  1.0000
  S   S3        1.0  0.7546482308929486  0.24535180466783477  0.24535175005259863  1.0000
  S   S4        1.0  0.2453517085047818  0.7546481869463416  0.7546482806440648  1.0000
  S   S5        1.0  0.24535177980579526  0.7546482717929525  0.24535174134614887  1.0000
  S   S6        1.0  0.7546481903291143  0.24535172559507035  0.7546483229525655  1.0000
