data_image0
_chemical_formula_structural       Sn2MnN6
_chemical_formula_sum              "Sn2 Mn1 N6"
_cell_length_a       5.302050331381744
_cell_length_b       5.302050434442762
_cell_length_c       5.302049988238541
_cell_angle_alpha    60.00000164065769
_cell_angle_beta     60.00000043051928
_cell_angle_gamma    59.999998400975024

_space_group_name_H-M_alt    "P 1"
_space_group_IT_number       1

loop_
  _space_group_symop_operation_xyz
  'x, y, z'

loop_
  _atom_site_type_symbol
  _atom_site_label
  _atom_site_symmetry_multiplicity
  _atom_site_fract_x
  _atom_site_fract_y
  _atom_site_fract_z
  _atom_site_occupancy
  Sn  Sn1       1.0  0.25000005712548995  0.25000007573221794  0.24999996135184327  1.0000
  Sn  Sn2       1.0  0.7499999497466785  0.7500000100617661  0.7499999846159088  1.0000
  Mn  Mn1       1.0  0.999999975889009  4.619891455083715e-08  1.7246982247463703e-08  1.0000
  N   N1        1.0  0.2467591822222627  0.24675923725196194  0.753240756982543  1.0000
  N   N2        1.0  0.7532407861547007  0.7532407353546842  0.2467592535101044  1.0000
  N   N3        1.0  0.7532407169560166  0.24675921812848203  0.2467592474511706  1.0000
  N   N4        1.0  0.24675928573791778  0.753240782197511  0.7532407791748906  1.0000
  N   N5        1.0  0.24675925907586377  0.7532407184996464  0.24675919065525106  1.0000
  N   N6        1.0  0.7532408109348268  0.2467591778787885  0.7532407995903859  1.0000
