data_image0
_chemical_formula_structural       Sn2MnSe6
_chemical_formula_sum              "Sn2 Mn1 Se6"
_cell_length_a       6.698904578684781
_cell_length_b       6.698904549882008
_cell_length_c       6.698904638862123
_cell_angle_alpha    60.000000783238846
_cell_angle_beta     59.999999914797236
_cell_angle_gamma    60.0000013686077

_space_group_name_H-M_alt    "P 1"
_space_group_IT_number       1

loop_
  _space_group_symop_operation_xyz
  'x, y, z'

loop_
  _atom_site_type_symbol
  _atom_site_label
  _atom_site_symmetry_multiplicity
  _atom_site_fract_x
  _atom_site_fract_y
  _atom_site_fract_z
  _atom_site_occupancy
  Sn  Sn1       1.0  0.25000002308857333  0.24999992685144873  0.25000007260883333  1.0000
  Sn  Sn2       1.0  0.7500000170104378  0.7500000200585407  0.7499999092415296  1.0000
  Mn  Mn1       1.0  0.9999999658393732  0.9999999835455133  7.45693415053298e-08  1.0000
  Se  Se1       1.0  0.24645104902119483  0.2464510314354483  0.7535489432073774  1.0000
  Se  Se2       1.0  0.7535489629755653  0.7535489428986858  0.24645105540263398  1.0000
  Se  Se3       1.0  0.75354891864672  0.24645105434211456  0.24645105631224423  1.0000
  Se  Se4       1.0  0.24645106886846235  0.7535489986079013  0.7535489226945228  1.0000
  Se  Se5       1.0  0.24645106860071006  0.7535489444504762  0.24645104761826508  1.0000
  Se  Se6       1.0  0.7535489254090306  0.24645109935815765  0.753548905841849  1.0000
