data_image0
_chemical_formula_structural       Sn2MoN6
_chemical_formula_sum              "Sn2 Mo1 N6"
_cell_length_a       5.393649922790529
_cell_length_b       5.393649967629081
_cell_length_c       5.393649929053937
_cell_angle_alpha    60.000000825749076
_cell_angle_beta     60.00000154027226
_cell_angle_gamma    60.00000032811565

_space_group_name_H-M_alt    "P 1"
_space_group_IT_number       1

loop_
  _space_group_symop_operation_xyz
  'x, y, z'

loop_
  _atom_site_type_symbol
  _atom_site_label
  _atom_site_symmetry_multiplicity
  _atom_site_fract_x
  _atom_site_fract_y
  _atom_site_fract_z
  _atom_site_occupancy
  Sn  Sn1       1.0  0.250000013711604  0.24999992028627063  0.2500001437914899  1.0000
  Sn  Sn2       1.0  0.7500000596417428  0.7499999879304365  0.749999911822328  1.0000
  Mo  Mo1       1.0  5.925379251570599e-09  0.9999999886464187  2.1254421836774023e-08  1.0000
  N   N1        1.0  0.2614914033366927  0.26149144557597975  0.7385085188201594  1.0000
  N   N2        1.0  0.7385085557054755  0.7385086193201494  0.2614914340321245  1.0000
  N   N3        1.0  0.7385085562092488  0.26149145871075646  0.26149140147989025  1.0000
  N   N4        1.0  0.2614913840624287  0.738508617538954  0.7385085161461745  1.0000
  N   N5        1.0  0.26149141918940716  0.7385085536185688  0.26149142267668607  1.0000
  N   N6        1.0  0.7385085807033724  0.261491427261059  0.738508527656126  1.0000
