data_image0
_chemical_formula_structural       Sn2NbTe6
_chemical_formula_sum              "Sn2 Nb1 Te6"
_cell_length_a       7.309673750500426
_cell_length_b       7.309673740070986
_cell_length_c       7.309673909596519
_cell_angle_alpha    59.99999922941966
_cell_angle_beta     59.99999803045659
_cell_angle_gamma    60.0000022757055

_space_group_name_H-M_alt    "P 1"
_space_group_IT_number       1

loop_
  _space_group_symop_operation_xyz
  'x, y, z'

loop_
  _atom_site_type_symbol
  _atom_site_label
  _atom_site_symmetry_multiplicity
  _atom_site_fract_x
  _atom_site_fract_y
  _atom_site_fract_z
  _atom_site_occupancy
  Sn  Sn1       1.0  0.2500000131401119  0.24999987826264028  0.2500000827400479  1.0000
  Sn  Sn2       1.0  0.7500000212086005  0.7499999548107796  0.7500000726896807  1.0000
  Nb  Nb1       1.0  0.9999999905711889  0.9999999145488699  1.2131467515004872e-07  1.0000
  Te  Te1       1.0  0.2632255833612598  0.2632256182447888  0.736774391287436  1.0000
  Te  Te2       1.0  0.7367743910029934  0.7367744611289442  0.263225483561505  1.0000
  Te  Te3       1.0  0.7367743587712596  0.2632256634689254  0.26322563589097087  1.0000
  Te  Te4       1.0  0.2632256512879334  0.7367743941231486  0.7367742853552827  1.0000
  Te  Te5       1.0  0.26322567201535874  0.7367744019584738  0.26322563774081403  1.0000
  Te  Te6       1.0  0.7367743201717041  0.2632257092499949  0.736774291626259  1.0000
