data_image0
_chemical_formula_structural       Sn2NiO6
_chemical_formula_sum              "Sn2 Ni1 O6"
_cell_length_a       5.234687136105669
_cell_length_b       5.234687243374951
_cell_length_c       5.234687057947323
_cell_angle_alpha    59.999998377551435
_cell_angle_beta     59.99999953129033
_cell_angle_gamma    59.999999853660576

_space_group_name_H-M_alt    "P 1"
_space_group_IT_number       1

loop_
  _space_group_symop_operation_xyz
  'x, y, z'

loop_
  _atom_site_type_symbol
  _atom_site_label
  _atom_site_symmetry_multiplicity
  _atom_site_fract_x
  _atom_site_fract_y
  _atom_site_fract_z
  _atom_site_occupancy
  Sn  Sn1       1.0  0.2500002328064327  0.2500000071401424  0.24999992088303458  1.0000
  Sn  Sn2       1.0  0.7500002292623646  0.7499999465509434  0.7499997385605668  1.0000
  Ni  Ni1       1.0  3.2533700406141627e-09  0.9999999836222987  1.9934503059819412e-08  1.0000
  O   O1        1.0  0.2431037009564093  0.2431039234630597  0.7568961507147632  1.0000
  O   O2        1.0  0.7568961134333375  0.7568961401925828  0.2431039132197925  1.0000
  O   O3        1.0  0.7568961673326645  0.24310377158220473  0.24310384768414997  1.0000
  O   O4        1.0  0.24310365915686397  0.7568962359213199  0.7568962554695798  1.0000
  O   O5        1.0  0.24310375873630904  0.7568962433083024  0.24310383575183983  1.0000
  O   O6        1.0  0.7568961281143827  0.24310372208113262  0.7568963194090376  1.0000
