data_image0
_chemical_formula_structural       Sn2NbN6
_chemical_formula_sum              "Sn2 Nb1 N6"
_cell_length_a       5.347994593077121
_cell_length_b       5.347994597253356
_cell_length_c       5.3479944161314314
_cell_angle_alpha    59.99999977485302
_cell_angle_beta     60.000000328835824
_cell_angle_gamma    59.99999890136548

_space_group_name_H-M_alt    "P 1"
_space_group_IT_number       1

loop_
  _space_group_symop_operation_xyz
  'x, y, z'

loop_
  _atom_site_type_symbol
  _atom_site_label
  _atom_site_symmetry_multiplicity
  _atom_site_fract_x
  _atom_site_fract_y
  _atom_site_fract_z
  _atom_site_occupancy
  Sn  Sn1       1.0  0.25000004639568857  0.25000011715799797  0.24999990898656507  1.0000
  Sn  Sn2       1.0  0.7499999708688201  0.749999969027096  0.7500000902256843  1.0000
  Nb  Nb1       1.0  7.1097782819953255e-09  4.580202551724591e-09  0.9999999735865512  1.0000
  N   N1        1.0  0.27341082520162086  0.2734108075320115  0.7265891388574262  1.0000
  N   N2        1.0  0.7265892412663582  0.7265891893391379  0.2734106803350578  1.0000
  N   N3        1.0  0.7265891465124761  0.27341083927037796  0.27341084317279507  1.0000
  N   N4        1.0  0.27341091670750334  0.7265890637066201  0.7265892321452079  1.0000
  N   N5        1.0  0.27341082339880046  0.726589179232461  0.27341087950928283  1.0000
  N   N6        1.0  0.7265890107552115  0.273410847410004  0.7265892503788304  1.0000
