data_image0
_chemical_formula_structural       Sn2NiS6
_chemical_formula_sum              "Sn2 Ni1 S6"
_cell_length_a       6.231707828104118
_cell_length_b       6.231707906085012
_cell_length_c       6.231708242065212
_cell_angle_alpha    59.99999980124946
_cell_angle_beta     59.999998284573174
_cell_angle_gamma    59.99999902722191

_space_group_name_H-M_alt    "P 1"
_space_group_IT_number       1

loop_
  _space_group_symop_operation_xyz
  'x, y, z'

loop_
  _atom_site_type_symbol
  _atom_site_label
  _atom_site_symmetry_multiplicity
  _atom_site_fract_x
  _atom_site_fract_y
  _atom_site_fract_z
  _atom_site_occupancy
  Sn  Sn1       1.0  0.25000005866290353  0.2500000337834769  0.249999999238045  1.0000
  Sn  Sn2       1.0  0.7499999789055558  0.7499999421575781  0.7499999624275101  1.0000
  Ni  Ni1       1.0  0.9999999563899737  1.96534383052119e-08  0.9999999830937583  1.0000
  S   S1        1.0  0.24706454922045315  0.24706453750374574  0.752935423257458  1.0000
  S   S2        1.0  0.7529355006634995  0.7529354404026539  0.2470645826179639  1.0000
  S   S3        1.0  0.7529353984718679  0.2470645740673446  0.24706455601850205  1.0000
  S   S4        1.0  0.24706455329916804  0.75293543135387  0.7529355028076316  1.0000
  S   S5        1.0  0.24706455442499087  0.7529354428407573  0.24706446763628126  1.0000
  S   S6        1.0  0.7529354407312716  0.2470645547190809  0.752935542938695  1.0000
