data_image0
_chemical_formula_structural       Sn2NbO6
_chemical_formula_sum              "Sn2 Nb1 O6"
_cell_length_a       5.6203367069596135
_cell_length_b       5.620337390670694
_cell_length_c       5.620336888014052
_cell_angle_alpha    60.00000905779957
_cell_angle_beta     60.00000953104367
_cell_angle_gamma    60.000010729383

_space_group_name_H-M_alt    "P 1"
_space_group_IT_number       1

loop_
  _space_group_symop_operation_xyz
  'x, y, z'

loop_
  _atom_site_type_symbol
  _atom_site_label
  _atom_site_symmetry_multiplicity
  _atom_site_fract_x
  _atom_site_fract_y
  _atom_site_fract_z
  _atom_site_occupancy
  Sn  Sn1       1.0  0.25000031173690895  0.24999984790871718  0.24999976240842392  1.0000
  Sn  Sn2       1.0  0.7499999488705043  0.7500002715556406  0.7499997741104006  1.0000
  Nb  Nb1       1.0  8.218015559908327e-08  1.282995855631965e-15  0.9999999197663672  1.0000
  O   O1        1.0  0.25305013886050787  0.2530500587314109  0.746950011774342  1.0000
  O   O2        1.0  0.7469497863038087  0.7469499822842607  0.25305018362054793  1.0000
  O   O3        1.0  0.7469496792647612  0.2530499702199885  0.25305027636226685  1.0000
  O   O4        1.0  0.2530501415792267  0.746949903002643  0.7469498184486726  1.0000
  O   O5        1.0  0.2530500583743418  0.7469498341514009  0.25305022345880757  1.0000
  O   O6        1.0  0.7469498338788024  0.25305006522080203  0.7469500396416132  1.0000
