data_image0
_chemical_formula_structural       Sn2NiSe6
_chemical_formula_sum              "Sn2 Ni1 Se6"
_cell_length_a       6.597614685280329
_cell_length_b       6.597614806910531
_cell_length_c       6.597614772587985
_cell_angle_alpha    60.00000081976426
_cell_angle_beta     59.99999935496946
_cell_angle_gamma    60.0000001702401

_space_group_name_H-M_alt    "P 1"
_space_group_IT_number       1

loop_
  _space_group_symop_operation_xyz
  'x, y, z'

loop_
  _atom_site_type_symbol
  _atom_site_label
  _atom_site_symmetry_multiplicity
  _atom_site_fract_x
  _atom_site_fract_y
  _atom_site_fract_z
  _atom_site_occupancy
  Sn  Sn1       1.0  0.2499999973158398  0.2500000515496334  0.2499999799924524  1.0000
  Sn  Sn2       1.0  0.7499999167444752  0.7500000599753107  0.7500000400726666  1.0000
  Ni  Ni1       1.0  0.9999999909488227  0.9999999851492406  0.9999999725427868  1.0000
  Se  Se1       1.0  0.2501137072307336  0.25011366763221216  0.7498862993674221  1.0000
  Se  Se2       1.0  0.7498863210705143  0.7498863269430025  0.25011366142412295  1.0000
  Se  Se3       1.0  0.7498863393132562  0.25011364827484545  0.25011368075527646  1.0000
  Se  Se4       1.0  0.2501136820054912  0.7498863147425062  0.749886340230331  1.0000
  Se  Se5       1.0  0.2501137196188925  0.7498862995435556  0.25011368032288495  1.0000
  Se  Se6       1.0  0.7498863257959091  0.2501136541920717  0.7498863423497532  1.0000
