data_image0
_chemical_formula_structural       Sn2NbS6
_chemical_formula_sum              "Sn2 Nb1 S6"
_cell_length_a       6.451834563466334
_cell_length_b       6.451834853251767
_cell_length_c       6.45183480674361
_cell_angle_alpha    59.99999874519929
_cell_angle_beta     59.99999990966577
_cell_angle_gamma    59.999999813979336

_space_group_name_H-M_alt    "P 1"
_space_group_IT_number       1

loop_
  _space_group_symop_operation_xyz
  'x, y, z'

loop_
  _atom_site_type_symbol
  _atom_site_label
  _atom_site_symmetry_multiplicity
  _atom_site_fract_x
  _atom_site_fract_y
  _atom_site_fract_z
  _atom_site_occupancy
  Sn  Sn1       1.0  0.2500000511558751  0.25000003941572163  0.24999989465828804  1.0000
  Sn  Sn2       1.0  0.7499999919241186  0.7500000176378308  0.7499999979449937  1.0000
  Nb  Nb1       1.0  0.9999999903100496  7.593157811415904e-09  0.9999999669495689  1.0000
  S   S1        1.0  0.2595728880688212  0.2595728452210134  0.7404271285503111  1.0000
  S   S2        1.0  0.7404270913410514  0.7404271719684637  0.25957286541836294  1.0000
  S   S3        1.0  0.7404271227321595  0.25957285447546175  0.25957290649712605  1.0000
  S   S4        1.0  0.25957289999404604  0.7404270810875758  0.7404271531250032  1.0000
  S   S5        1.0  0.25957284621215876  0.7404271236006472  0.25957290056338406  1.0000
  S   S6        1.0  0.7404270925768797  0.2595728651144898  0.7404271884007981  1.0000
