data_image0
_chemical_formula_structural       Sn2OsN6
_chemical_formula_sum              "Sn2 Os1 N6"
_cell_length_a       5.3556060805601575
_cell_length_b       5.35560622733265
_cell_length_c       5.355606425565171
_cell_angle_alpha    59.99999819207199
_cell_angle_beta     59.9999985303936
_cell_angle_gamma    60.00000057792902

_space_group_name_H-M_alt    "P 1"
_space_group_IT_number       1

loop_
  _space_group_symop_operation_xyz
  'x, y, z'

loop_
  _atom_site_type_symbol
  _atom_site_label
  _atom_site_symmetry_multiplicity
  _atom_site_fract_x
  _atom_site_fract_y
  _atom_site_fract_z
  _atom_site_occupancy
  Sn  Sn1       1.0  0.25000006223362375  0.2500000054606811  0.25000003860126807  1.0000
  Sn  Sn2       1.0  0.7500000308106498  0.7500000506847386  0.7499999805413374  1.0000
  Os  Os1       1.0  0.9999999786785404  2.515530952178675e-08  6.530235335446356e-08  1.0000
  N   N1        1.0  0.253964988296856  0.2539648620768126  0.7460350197746062  1.0000
  N   N2        1.0  0.7460350222080966  0.7460351506185262  0.25396483456403385  1.0000
  N   N3        1.0  0.7460349701502124  0.2539648828575388  0.2539649979344231  1.0000
  N   N4        1.0  0.2539649247571247  0.7460350109217845  0.7460350782243546  1.0000
  N   N5        1.0  0.2539649477051796  0.7460351068803737  0.25396493172726736  1.0000
  N   N6        1.0  0.7460350573330126  0.25396492868342824  0.7460350184738433  1.0000
