data_image0
_chemical_formula_structural       Sn2PbS6
_chemical_formula_sum              "Sn2 Pb1 S6"
_cell_length_a       6.587177990559965
_cell_length_b       6.587177938386064
_cell_length_c       6.58717811099533
_cell_angle_alpha    59.99999909902987
_cell_angle_beta     59.999997751829184
_cell_angle_gamma    60.000001420560764

_space_group_name_H-M_alt    "P 1"
_space_group_IT_number       1

loop_
  _space_group_symop_operation_xyz
  'x, y, z'

loop_
  _atom_site_type_symbol
  _atom_site_label
  _atom_site_symmetry_multiplicity
  _atom_site_fract_x
  _atom_site_fract_y
  _atom_site_fract_z
  _atom_site_occupancy
  Sn  Sn1       1.0  0.2500001456544397  0.2499998874952779  0.2499998837807306  1.0000
  Sn  Sn2       1.0  0.7499998942681009  0.7500000231873338  0.7500000383687029  1.0000
  Pb  Pb1       1.0  6.232856331265081e-08  0.9999999181914113  5.072873204932282e-08  1.0000
  S   S1        1.0  0.2736327913424621  0.27363260980847637  0.7263673504559827  1.0000
  S   S2        1.0  0.7263672782374351  0.7263673696677247  0.27363269704956283  1.0000
  S   S3        1.0  0.7263672321160918  0.27363273596434584  0.2736327087821642  1.0000
  S   S4        1.0  0.27363270037807724  0.7263673234611556  0.7263673004951645  1.0000
  S   S5        1.0  0.27363270521151156  0.7263673840407582  0.2736326309307122  1.0000
  S   S6        1.0  0.7263671984728465  0.27363274603761606  0.7263673361716755  1.0000
