data_image0
_chemical_formula_structural       Sn2PdS6
_chemical_formula_sum              "Sn2 Pd1 S6"
_cell_length_a       6.354891835965673
_cell_length_b       6.354891968227292
_cell_length_c       6.354892263786723
_cell_angle_alpha    59.999995044723526
_cell_angle_beta     59.99999758045756
_cell_angle_gamma    59.99999670153822

_space_group_name_H-M_alt    "P 1"
_space_group_IT_number       1

loop_
  _space_group_symop_operation_xyz
  'x, y, z'

loop_
  _atom_site_type_symbol
  _atom_site_label
  _atom_site_symmetry_multiplicity
  _atom_site_fract_x
  _atom_site_fract_y
  _atom_site_fract_z
  _atom_site_occupancy
  Sn  Sn1       1.0  0.25000010687268015  0.24999976264316667  0.2500000974645261  1.0000
  Sn  Sn2       1.0  0.7500001802720521  0.7500000414832646  0.7499997576190051  1.0000
  Pd  Pd1       1.0  0.9999999714408625  3.661770110043983e-08  1.6427397683494076e-08  1.0000
  S   S1        1.0  0.26056681062544657  0.26056681821388594  0.739433176303242  1.0000
  S   S2        1.0  0.7394330672442353  0.7394331998370086  0.2605669747280183  1.0000
  S   S3        1.0  0.7394331533581863  0.2605667518700749  0.26056688153122864  1.0000
  S   S4        1.0  0.2605667491594032  0.7394333394162271  0.7394331072598348  1.0000
  S   S5        1.0  0.2605666771605513  0.7394332747442498  0.26056684180367456  1.0000
  S   S6        1.0  0.7394332574400073  0.26056678570609254  0.7394331495110668  1.0000
