data_image0
_chemical_formula_structural       Sn2PdO6
_chemical_formula_sum              "Sn2 Pd1 O6"
_cell_length_a       5.411501432848602
_cell_length_b       5.411501412308024
_cell_length_c       5.4115015670745485
_cell_angle_alpha    59.99999833057426
_cell_angle_beta     59.99999749293078
_cell_angle_gamma    60.00000011944275

_space_group_name_H-M_alt    "P 1"
_space_group_IT_number       1

loop_
  _space_group_symop_operation_xyz
  'x, y, z'

loop_
  _atom_site_type_symbol
  _atom_site_label
  _atom_site_symmetry_multiplicity
  _atom_site_fract_x
  _atom_site_fract_y
  _atom_site_fract_z
  _atom_site_occupancy
  Sn  Sn1       1.0  0.24999962186069638  0.2500001755523734  0.2499999926032665  1.0000
  Sn  Sn2       1.0  0.7499997983590464  0.7499999880094278  0.7500002427241431  1.0000
  Pd  Pd1       1.0  0.9999999874783412  0.9999999479458097  2.6744177190332725e-08  1.0000
  O   O1        1.0  0.25371015009120673  0.253709864087365  0.7462900590512961  1.0000
  O   O2        1.0  0.7462900129093968  0.7462899147260866  0.25370991410363314  1.0000
  O   O3        1.0  0.746290226862323  0.25371011018788237  0.25370995619044207  1.0000
  O   O4        1.0  0.2537100439000488  0.7462899854771629  0.7462899303160869  1.0000
  O   O5        1.0  0.25371018308305626  0.7462898618997384  0.2537100263494614  1.0000
  O   O6        1.0  0.7462899584464088  0.2537101477627299  0.7462898550519393  1.0000
