data_image0
_chemical_formula_structural       Sn2PtS6
_chemical_formula_sum              "Sn2 Pt1 S6"
_cell_length_a       6.353008489633159
_cell_length_b       6.3530082428323835
_cell_length_c       6.353008301994098
_cell_angle_alpha    59.99999936502298
_cell_angle_beta     59.99999932086955
_cell_angle_gamma    59.99999953637362

_space_group_name_H-M_alt    "P 1"
_space_group_IT_number       1

loop_
  _space_group_symop_operation_xyz
  'x, y, z'

loop_
  _atom_site_type_symbol
  _atom_site_label
  _atom_site_symmetry_multiplicity
  _atom_site_fract_x
  _atom_site_fract_y
  _atom_site_fract_z
  _atom_site_occupancy
  Sn  Sn1       1.0  0.2500001334449028  0.2500000327529708  0.24999986734967067  1.0000
  Sn  Sn2       1.0  0.7500000206873891  0.7499998958379347  0.7500000819700587  1.0000
  Pt  Pt1       1.0  1.61375757505815e-08  1.156691313855259e-08  3.966570836977299e-08  1.0000
  S   S1        1.0  0.2568557705183485  0.2568558166036765  0.7431442117199174  1.0000
  S   S2        1.0  0.7431441601982978  0.7431442315119938  0.2568557785268528  1.0000
  S   S3        1.0  0.7431441661108891  0.25685580006543607  0.25685576749641736  1.0000
  S   S4        1.0  0.25685579500984224  0.7431441786487571  0.7431442343787616  1.0000
  S   S5        1.0  0.2568557897134679  0.7431442352422705  0.2568557429917965  1.0000
  S   S6        1.0  0.7431441395163741  0.25685579552303067  0.743144303895284  1.0000
