data_image0
_chemical_formula_structural       Sn2PdN6
_chemical_formula_sum              "Sn2 Pd1 N6"
_cell_length_a       5.325193572867495
_cell_length_b       5.325193282189186
_cell_length_c       5.325193510941934
_cell_angle_alpha    59.9999997891889
_cell_angle_beta     59.99999974362454
_cell_angle_gamma    59.9999993378429

_space_group_name_H-M_alt    "P 1"
_space_group_IT_number       1

loop_
  _space_group_symop_operation_xyz
  'x, y, z'

loop_
  _atom_site_type_symbol
  _atom_site_label
  _atom_site_symmetry_multiplicity
  _atom_site_fract_x
  _atom_site_fract_y
  _atom_site_fract_z
  _atom_site_occupancy
  Sn  Sn1       1.0  0.24999995275842568  0.25000011063178057  0.2500000491010672  1.0000
  Sn  Sn2       1.0  0.749999888482274  0.7500001502026923  0.749999980801308  1.0000
  Pd  Pd1       1.0  0.999999992750814  0.9999999632014895  2.3901714008001e-08  1.0000
  N   N1        1.0  0.2618432052111777  0.2618431029820679  0.7381568168068816  1.0000
  N   N2        1.0  0.7381568455351053  0.7381568220659953  0.26184312412875427  1.0000
  N   N3        1.0  0.7381567872874627  0.2618430851379962  0.26184323349986194  1.0000
  N   N4        1.0  0.26184320927206456  0.7381568008116516  0.7381568949183119  1.0000
  N   N5        1.0  0.26184318821096236  0.7381568667203322  0.261843094452804  1.0000
  N   N6        1.0  0.7381569408372447  0.26184308362670694  0.7381567702701235  1.0000
