data_image0
_chemical_formula_structural       Sn2PtN6
_chemical_formula_sum              "Sn2 Pt1 N6"
_cell_length_a       5.345945415861306
_cell_length_b       5.345945336692058
_cell_length_c       5.345945171862734
_cell_angle_alpha    60.000000604981345
_cell_angle_beta     59.99999970847141
_cell_angle_gamma    59.999998506005106

_space_group_name_H-M_alt    "P 1"
_space_group_IT_number       1

loop_
  _space_group_symop_operation_xyz
  'x, y, z'

loop_
  _atom_site_type_symbol
  _atom_site_label
  _atom_site_symmetry_multiplicity
  _atom_site_fract_x
  _atom_site_fract_y
  _atom_site_fract_z
  _atom_site_occupancy
  Sn  Sn1       1.0  0.24999996718403875  0.25000003528588455  0.2500000402325271  1.0000
  Sn  Sn2       1.0  0.7500000454419128  0.7499999981816361  0.7499999604268678  1.0000
  Pt  Pt1       1.0  1.1061825850526567e-08  0.9999999862541256  0.9999999845068347  1.0000
  N   N1        1.0  0.2606296014014947  0.2606295763763063  0.7393704045266227  1.0000
  N   N2        1.0  0.7393703950154795  0.7393703631610739  0.26062961379079924  1.0000
  N   N3        1.0  0.7393704295836391  0.2606296135358085  0.26062960914107935  1.0000
  N   N4        1.0  0.26062958827938787  0.7393703718211523  0.7393703961198682  1.0000
  N   N5        1.0  0.2606296151946546  0.7393704143430424  0.26062961533631734  1.0000
  N   N6        1.0  0.7393703582900475  0.260629632870353  0.7393703549975033  1.0000
