data_image0
_chemical_formula_structural       Sn2PbTe6
_chemical_formula_sum              "Sn2 Pb1 Te6"
_cell_length_a       7.576662646244847
_cell_length_b       7.576662913392816
_cell_length_c       7.576662811374861
_cell_angle_alpha    60.00000086345232
_cell_angle_beta     59.999998934860415
_cell_angle_gamma    59.999999492379374

_space_group_name_H-M_alt    "P 1"
_space_group_IT_number       1

loop_
  _space_group_symop_operation_xyz
  'x, y, z'

loop_
  _atom_site_type_symbol
  _atom_site_label
  _atom_site_symmetry_multiplicity
  _atom_site_fract_x
  _atom_site_fract_y
  _atom_site_fract_z
  _atom_site_occupancy
  Sn  Sn1       1.0  0.2500000150805386  0.25000001907823693  0.24999998494919629  1.0000
  Sn  Sn2       1.0  0.7499999620543607  0.7499998907382984  0.750000132483114  1.0000
  Pb  Pb1       1.0  3.9640450588896904e-08  0.9999999725200087  0.9999999807213473  1.0000
  Te  Te1       1.0  0.28555860690209256  0.28555857823069575  0.7144414179702837  1.0000
  Te  Te2       1.0  0.7144413727551697  0.7144414657528522  0.28555855720617096  1.0000
  Te  Te3       1.0  0.7144413771803794  0.28555864637032596  0.2855585581295488  1.0000
  Te  Te4       1.0  0.28555862570701257  0.7144413782155812  0.714441419090188  1.0000
  Te  Te5       1.0  0.2855586555668856  0.7144413982558824  0.28555854018472665  1.0000
  Te  Te6       1.0  0.7144413525079838  0.28555864734413516  0.7144414067762664  1.0000
