data_image0
_chemical_formula_structural       Sn2PN6
_chemical_formula_sum              "Sn2 P1 N6"
_cell_length_a       5.152713671686543
_cell_length_b       5.152713400326025
_cell_length_c       5.152713622877698
_cell_angle_alpha    59.99999901106934
_cell_angle_beta     59.99999954152201
_cell_angle_gamma    59.99999891372514

_space_group_name_H-M_alt    "P 1"
_space_group_IT_number       1

loop_
  _space_group_symop_operation_xyz
  'x, y, z'

loop_
  _atom_site_type_symbol
  _atom_site_label
  _atom_site_symmetry_multiplicity
  _atom_site_fract_x
  _atom_site_fract_y
  _atom_site_fract_z
  _atom_site_occupancy
  Sn  Sn1       1.0  0.2499999765321978  0.24999999027655523  0.2500000021040299  1.0000
  Sn  Sn2       1.0  0.7500000022121007  0.7500000017292767  0.7500000244206293  1.0000
  P   P1        1.0  3.164526042892716e-08  0.9999999857386412  0.9999999505528245  1.0000
  N   N1        1.0  0.24476761843490696  0.2447677346800737  0.755232298981179  1.0000
  N   N2        1.0  0.7552323505299456  0.7552323001098339  0.24476769551536556  1.0000
  N   N3        1.0  0.7552323200744784  0.24476767767575186  0.2447676735323562  1.0000
  N   N4        1.0  0.24476766276724526  0.7552322953149356  0.7552323740362372  1.0000
  N   N5        1.0  0.24476767543788597  0.7552323364419806  0.24476768278621766  1.0000
  N   N6        1.0  0.7552323386179632  0.24476768408656885  0.7552323273471071  1.0000
