data_image0
_chemical_formula_structural       Sn2PbN6
_chemical_formula_sum              "Sn2 Pb1 N6"
_cell_length_a       5.757249765637949
_cell_length_b       5.7572183300010655
_cell_length_c       5.757236407025478
_cell_angle_alpha    59.99998511872245
_cell_angle_beta     60.00016561943624
_cell_angle_gamma    60.0000668525817

_space_group_name_H-M_alt    "P 1"
_space_group_IT_number       1

loop_
  _space_group_symop_operation_xyz
  'x, y, z'

loop_
  _atom_site_type_symbol
  _atom_site_label
  _atom_site_symmetry_multiplicity
  _atom_site_fract_x
  _atom_site_fract_y
  _atom_site_fract_z
  _atom_site_occupancy
  Sn  Sn1       1.0  0.24999481912072374  0.2500042660102419  0.24999909585371446  1.0000
  Sn  Sn2       1.0  0.7500036987751749  0.7499964942704532  0.7500005414887784  1.0000
  Pb  Pb1       1.0  2.6137191564324096e-06  0.9999987533945278  7.598449381448679e-07  1.0000
  N   N1        1.0  0.3269762711584304  0.32701884681469023  0.6730079581360275  1.0000
  N   N2        1.0  0.6730230614781322  0.6729727723663342  0.32699630440760014  1.0000
  N   N3        1.0  0.6730192315160863  0.3270093374877764  0.32699115729953826  1.0000
  N   N4        1.0  0.32698708610343175  0.6729836495780679  0.6730180425635016  1.0000
  N   N5        1.0  0.3269861545319381  0.6730009182014876  0.32700285797914364  1.0000
  N   N6        1.0  0.6730070492061464  0.3270149843408827  0.6729832917600773  1.0000
