data_image0
_chemical_formula_structural       Sn2RuN6
_chemical_formula_sum              "Sn2 Ru1 N6"
_cell_length_a       5.333188034720177
_cell_length_b       5.33318821218604
_cell_length_c       5.333187997175632
_cell_angle_alpha    60.00000118559503
_cell_angle_beta     60.000000888807705
_cell_angle_gamma    60.00000153686634

_space_group_name_H-M_alt    "P 1"
_space_group_IT_number       1

loop_
  _space_group_symop_operation_xyz
  'x, y, z'

loop_
  _atom_site_type_symbol
  _atom_site_label
  _atom_site_symmetry_multiplicity
  _atom_site_fract_x
  _atom_site_fract_y
  _atom_site_fract_z
  _atom_site_occupancy
  Sn  Sn1       1.0  0.24999988560491596  0.25000006426770577  0.2500000206629421  1.0000
  Sn  Sn2       1.0  0.7500000451860858  0.7499998850776016  0.7500000235409684  1.0000
  Ru  Ru1       1.0  0.9999999438381519  0.9999999931106228  0.9999999827742839  1.0000
  N   N1        1.0  0.25407132040811353  0.2540713902045705  0.7459286518236372  1.0000
  N   N2        1.0  0.7459287191643585  0.7459285315832281  0.2540713817691104  1.0000
  N   N3        1.0  0.7459286619161325  0.2540714132641491  0.2540713040416433  1.0000
  N   N4        1.0  0.25407140481597595  0.7459286738687034  0.7459286070480438  1.0000
  N   N5        1.0  0.25407133951709754  0.745928639169882  0.25407137367544924  1.0000
  N   N6        1.0  0.7459286718411832  0.25407139973732956  0.7459286585908628  1.0000
