data_image0
_chemical_formula_structural       Sn2ReN6
_chemical_formula_sum              "Sn2 Re1 N6"
_cell_length_a       5.429210000916516
_cell_length_b       5.429210134203632
_cell_length_c       5.4292101314706045
_cell_angle_alpha    60.00000018769089
_cell_angle_beta     59.99999861232779
_cell_angle_gamma    59.999999200532784

_space_group_name_H-M_alt    "P 1"
_space_group_IT_number       1

loop_
  _space_group_symop_operation_xyz
  'x, y, z'

loop_
  _atom_site_type_symbol
  _atom_site_label
  _atom_site_symmetry_multiplicity
  _atom_site_fract_x
  _atom_site_fract_y
  _atom_site_fract_z
  _atom_site_occupancy
  Sn  Sn1       1.0  0.25000007834182353  0.24999993563788042  0.250000007735003  1.0000
  Sn  Sn2       1.0  0.7499999878376321  0.7499999806135977  0.7500000636327284  1.0000
  Re  Re1       1.0  3.003364484714861e-08  0.9999999864649383  0.9999999862250426  1.0000
  N   N1        1.0  0.25553965723485  0.25553979990693637  0.7444602703448423  1.0000
  N   N2        1.0  0.7444602212858668  0.7444603283938378  0.25553974093850923  1.0000
  N   N3        1.0  0.74446029285745  0.2555396959647054  0.2555397386941375  1.0000
  N   N4        1.0  0.2555396819530687  0.7444602902179238  0.7444602734007223  1.0000
  N   N5        1.0  0.2555397960397109  0.7444602565940012  0.2555396617194978  1.0000
  N   N6        1.0  0.7444602493432326  0.25553970928603525  0.7444603123472258  1.0000
