data_image0
_chemical_formula_structural       Sn2RhN6
_chemical_formula_sum              "Sn2 Rh1 N6"
_cell_length_a       5.275643998833393
_cell_length_b       5.275644187345177
_cell_length_c       5.275644118755897
_cell_angle_alpha    59.99999952957672
_cell_angle_beta     60.00000060037487
_cell_angle_gamma    60.00000124958611

_space_group_name_H-M_alt    "P 1"
_space_group_IT_number       1

loop_
  _space_group_symop_operation_xyz
  'x, y, z'

loop_
  _atom_site_type_symbol
  _atom_site_label
  _atom_site_symmetry_multiplicity
  _atom_site_fract_x
  _atom_site_fract_y
  _atom_site_fract_z
  _atom_site_occupancy
  Sn  Sn1       1.0  0.2500000196541277  0.24999994078418025  0.25000004160295836  1.0000
  Sn  Sn2       1.0  0.749999979522823  0.7500000475387903  0.7499999438918489  1.0000
  Rh  Rh1       1.0  0.999999983131159  4.643014906259988e-09  3.075445368263515e-08  1.0000
  N   N1        1.0  0.26206633835809195  0.26206626210658884  0.737933687629828  1.0000
  N   N2        1.0  0.7379336630075981  0.7379337262163812  0.26206634605369145  1.0000
  N   N3        1.0  0.7379336903446971  0.26206623521051126  0.26206632332489943  1.0000
  N   N4        1.0  0.26206624768034387  0.7379337461479356  0.7379336924371177  1.0000
  N   N5        1.0  0.26206631884263853  0.7379337627234657  0.2620662353219862  1.0000
  N   N6        1.0  0.7379337655395674  0.26206627202965954  0.7379337127876637  1.0000
