data_image0
_chemical_formula_structural       Sn2SN6
_chemical_formula_sum              "Sn2 S1 N6"
_cell_length_a       5.153023315401311
_cell_length_b       5.153023475263927
_cell_length_c       5.1530237554094995
_cell_angle_alpha    59.99999917014865
_cell_angle_beta     59.99999859551443
_cell_angle_gamma    60.00000111637197

_space_group_name_H-M_alt    "P 1"
_space_group_IT_number       1

loop_
  _space_group_symop_operation_xyz
  'x, y, z'

loop_
  _atom_site_type_symbol
  _atom_site_label
  _atom_site_symmetry_multiplicity
  _atom_site_fract_x
  _atom_site_fract_y
  _atom_site_fract_z
  _atom_site_occupancy
  Sn  Sn1       1.0  0.24999999649726262  0.2499999889410996  0.2500000102987317  1.0000
  Sn  Sn2       1.0  0.7500000116048254  0.7500000214885497  0.7499999653385373  1.0000
  S   S1        1.0  5.5612752596569404e-08  2.139075109668312e-08  0.9999999673200735  1.0000
  N   N1        1.0  0.23890263904131112  0.2389027412972592  0.7610973557870921  1.0000
  N   N2        1.0  0.7610972895679187  0.76109728576964  0.23890277547690306  1.0000
  N   N3        1.0  0.7610972691501668  0.23890266168169938  0.23890262301229012  1.0000
  N   N4        1.0  0.2389026610668823  0.7610973202269486  0.7610974388183366  1.0000
  N   N5        1.0  0.23890270135660227  0.761097331556246  0.2389026051205111  1.0000
  N   N6        1.0  0.7610973471035936  0.23890263846865348  0.7610973802431197  1.0000
