data_image0
_chemical_formula_structural       Sn2SeN6
_chemical_formula_sum              "Sn2 Se1 N6"
_cell_length_a       5.26703212586005
_cell_length_b       5.267032215178882
_cell_length_c       5.267032234482964
_cell_angle_alpha    59.999998369942055
_cell_angle_beta     59.99999965900861
_cell_angle_gamma    59.99999881119373

_space_group_name_H-M_alt    "P 1"
_space_group_IT_number       1

loop_
  _space_group_symop_operation_xyz
  'x, y, z'

loop_
  _atom_site_type_symbol
  _atom_site_label
  _atom_site_symmetry_multiplicity
  _atom_site_fract_x
  _atom_site_fract_y
  _atom_site_fract_z
  _atom_site_occupancy
  Sn  Sn1       1.0  0.25000002628753604  0.2500000055547537  0.25000002796301124  1.0000
  Sn  Sn2       1.0  0.7499999937611922  0.7499999957365326  0.7499999622321859  1.0000
  Se  Se1       1.0  1.3530046031944216e-08  1.8602427922426828e-08  2.3804413081050613e-08  1.0000
  N   N1        1.0  0.2517685791962598  0.25176861993378047  0.74823135559295  1.0000
  N   N2        1.0  0.7482313383226851  0.7482313929840253  0.25176864208183114  1.0000
  N   N3        1.0  0.748231399829722  0.25176860951080693  0.25176859836171955  1.0000
  N   N4        1.0  0.2517686024144954  0.7482314057323011  0.7482314013542315  1.0000
  N   N5        1.0  0.25176862835599995  0.7482314148640944  0.25176856498756073  1.0000
  N   N6        1.0  0.7482314136159007  0.2517685864271921  0.7482313990572312  1.0000
