data_image0
_chemical_formula_structural       Sn2ScS6
_chemical_formula_sum              "Sn2 Sc1 S6"
_cell_length_a       6.523436592204352
_cell_length_b       6.523436707669113
_cell_length_c       6.523436331332935
_cell_angle_alpha    60.000001562559326
_cell_angle_beta     60.00000179975729
_cell_angle_gamma    60.00000101829617

_space_group_name_H-M_alt    "P 1"
_space_group_IT_number       1

loop_
  _space_group_symop_operation_xyz
  'x, y, z'

loop_
  _atom_site_type_symbol
  _atom_site_label
  _atom_site_symmetry_multiplicity
  _atom_site_fract_x
  _atom_site_fract_y
  _atom_site_fract_z
  _atom_site_occupancy
  Sn  Sn1       1.0  0.2500002278385189  0.2500000217294183  0.2500000079603843  1.0000
  Sn  Sn2       1.0  0.7499999399345414  0.7500003205219234  0.7500000411305308  1.0000
  Sc  Sc1       1.0  0.9999999790995813  0.9999999511862114  2.1060694057737118e-08  1.0000
  S   S1        1.0  0.26754685086845265  0.26754661391404727  0.7324532339449394  1.0000
  S   S2        1.0  0.7324532400121843  0.7324532739935713  0.26754663927894073  1.0000
  S   S3        1.0  0.7324531947697893  0.2675466678157143  0.2675468597459624  1.0000
  S   S4        1.0  0.26754664094930214  0.7324533271067497  0.7324531212758234  1.0000
  S   S5        1.0  0.26754675483473284  0.7324531964678617  0.2675467358500845  1.0000
  S   S6        1.0  0.7324531800120042  0.26754661258671364  0.7324533360627903  1.0000
