data_image0
_chemical_formula_structural       Sn2SrTe6
_chemical_formula_sum              "Sn2 Sr1 Te6"
_cell_length_a       7.760994253681992
_cell_length_b       7.760994207846644
_cell_length_c       7.760994284539449
_cell_angle_alpha    60.00000102696559
_cell_angle_beta     60.00000003295829
_cell_angle_gamma    60.000000975118404

_space_group_name_H-M_alt    "P 1"
_space_group_IT_number       1

loop_
  _space_group_symop_operation_xyz
  'x, y, z'

loop_
  _atom_site_type_symbol
  _atom_site_label
  _atom_site_symmetry_multiplicity
  _atom_site_fract_x
  _atom_site_fract_y
  _atom_site_fract_z
  _atom_site_occupancy
  Sn  Sn1       1.0  0.24999995743333628  0.24999997747364416  0.25000006604663577  1.0000
  Sn  Sn2       1.0  0.75000001129689  0.7500000555109567  0.7499998184169793  1.0000
  Sr  Sr1       1.0  1.2534365850338939e-08  0.9999999668603791  1.2111317140933346e-07  1.0000
  Te  Te1       1.0  0.2897932272617288  0.28979324075786994  0.7102067494032013  1.0000
  Te  Te2       1.0  0.7102067574890554  0.7102067843363475  0.28979332169254185  1.0000
  Te  Te3       1.0  0.7102067235768631  0.28979320558412663  0.2897932648868195  1.0000
  Te  Te4       1.0  0.28979327827750045  0.7102067548089211  0.7102067179086794  1.0000
  Te  Te5       1.0  0.2897932446585766  0.7102067107440239  0.28979324652551114  1.0000
  Te  Te6       1.0  0.7102067803537488  0.2897933096159604  0.7102066934190446  1.0000
