data_image0
_chemical_formula_structural       Sn2SrSe6
_chemical_formula_sum              "Sn2 Sr1 Se6"
_cell_length_a       7.032360645838916
_cell_length_b       7.032360240313731
_cell_length_c       7.032360459485898
_cell_angle_alpha    60.00000119503236
_cell_angle_beta     59.99999940409734
_cell_angle_gamma    59.99999916732723

_space_group_name_H-M_alt    "P 1"
_space_group_IT_number       1

loop_
  _space_group_symop_operation_xyz
  'x, y, z'

loop_
  _atom_site_type_symbol
  _atom_site_label
  _atom_site_symmetry_multiplicity
  _atom_site_fract_x
  _atom_site_fract_y
  _atom_site_fract_z
  _atom_site_occupancy
  Sn  Sn1       1.0  0.2500000308038717  0.2499998904781427  0.2500000664151606  1.0000
  Sn  Sn2       1.0  0.7500000268915199  0.7500000650324882  0.7499998219068601  1.0000
  Sr  Sr1       1.0  5.7386835946618095e-08  0.999999975617819  0.999999993451655  1.0000
  Se  Se1       1.0  0.29259729783068034  0.2925973002664304  0.7074026571868615  1.0000
  Se  Se2       1.0  0.7074027769275375  0.7074028799085887  0.2925972809112728  1.0000
  Se  Se3       1.0  0.7074027349170314  0.29259711794705245  0.292597343199794  1.0000
  Se  Se4       1.0  0.2925972901892051  0.707402738293272  0.7074026793078427  1.0000
  Se  Se5       1.0  0.2925971138975498  0.7074027290009727  0.29259738537292296  1.0000
  Se  Se6       1.0  0.7074026774638601  0.2925973013977926  0.7074027764217308  1.0000
