data_image0
_chemical_formula_structural       Sn2SeO6
_chemical_formula_sum              "Sn2 Se1 O6"
_cell_length_a       5.350875273121087
_cell_length_b       5.350875194627281
_cell_length_c       5.350875647190244
_cell_angle_alpha    59.99999481418178
_cell_angle_beta     59.99999313782956
_cell_angle_gamma    59.99999639508642

_space_group_name_H-M_alt    "P 1"
_space_group_IT_number       1

loop_
  _space_group_symop_operation_xyz
  'x, y, z'

loop_
  _atom_site_type_symbol
  _atom_site_label
  _atom_site_symmetry_multiplicity
  _atom_site_fract_x
  _atom_site_fract_y
  _atom_site_fract_z
  _atom_site_occupancy
  Sn  Sn1       1.0  0.2500000107497721  0.24999989996161232  0.250000049553141  1.0000
  Sn  Sn2       1.0  0.7500000391531325  0.7500000546594437  0.750000035098913  1.0000
  Se  Se1       1.0  0.9999999350178161  2.0142041974289273e-07  1.6164979950706736e-07  1.0000
  O   O1        1.0  0.24034520753185137  0.24034506568068512  0.7596548513172272  1.0000
  O   O2        1.0  0.7596547987105937  0.7596548774960304  0.24034505531339842  1.0000
  O   O3        1.0  0.7596548389548661  0.24034510936027967  0.2403451148011113  1.0000
  O   O4        1.0  0.240345203995456  0.7596547949056723  0.7596548340457232  1.0000
  O   O5        1.0  0.24034520817488997  0.759654834369106  0.24034506495719668  1.0000
  O   O6        1.0  0.759654807417453  0.24034518434026733  0.7596548777239756  1.0000
