data_image0
_chemical_formula_structural       Sn2SiN6
_chemical_formula_sum              "Sn2 Si1 N6"
_cell_length_a       5.091897475902216
_cell_length_b       5.091897475333593
_cell_length_c       5.091897690170971
_cell_angle_alpha    59.9999994197556
_cell_angle_beta     59.99999917851417
_cell_angle_gamma    59.99999988478287

_space_group_name_H-M_alt    "P 1"
_space_group_IT_number       1

loop_
  _space_group_symop_operation_xyz
  'x, y, z'

loop_
  _atom_site_type_symbol
  _atom_site_label
  _atom_site_symmetry_multiplicity
  _atom_site_fract_x
  _atom_site_fract_y
  _atom_site_fract_z
  _atom_site_occupancy
  Sn  Sn1       1.0  0.25000000966890484  0.25000002482578376  0.24999998044473512  1.0000
  Sn  Sn2       1.0  0.7500000205332727  0.7499999638343844  0.7499999910728873  1.0000
  Si  Si1       1.0  0.9999999745048218  2.8863382246090588e-08  0.9999999551100025  1.0000
  N   N1        1.0  0.2540422662150681  0.2540423042336957  0.7459577154391062  1.0000
  N   N2        1.0  0.7459576884408964  0.7459577613954929  0.254042280897869  1.0000
  N   N3        1.0  0.745957764080714  0.25404220802813726  0.25404229208497575  1.0000
  N   N4        1.0  0.25404229656476573  0.7459577301211118  0.7459577385640634  1.0000
  N   N5        1.0  0.2540422735738496  0.7459576953655757  0.2540423004719866  1.0000
  N   N6        1.0  0.7459577228876261  0.25404227886290154  0.7459577422655362  1.0000
