data_image0
_chemical_formula_structural       Sn2SO6
_chemical_formula_sum              "Sn2 S1 O6"
_cell_length_a       5.252725776139283
_cell_length_b       5.252726016718857
_cell_length_c       5.252725938693674
_cell_angle_alpha    60.00000201414786
_cell_angle_beta     60.00000122498446
_cell_angle_gamma    60.000001876268854

_space_group_name_H-M_alt    "P 1"
_space_group_IT_number       1

loop_
  _space_group_symop_operation_xyz
  'x, y, z'

loop_
  _atom_site_type_symbol
  _atom_site_label
  _atom_site_symmetry_multiplicity
  _atom_site_fract_x
  _atom_site_fract_y
  _atom_site_fract_z
  _atom_site_occupancy
  Sn  Sn1       1.0  0.24999995757972052  0.24999996987078732  0.25000007208140523  1.0000
  Sn  Sn2       1.0  0.749999972393587  0.7499999865563703  0.7500000822544394  1.0000
  S   S1        1.0  1.8230171028964907e-08  4.66327385807641e-09  5.899289428646867e-08  1.0000
  O   O1        1.0  0.22532233473878432  0.2253221117246334  0.7746777206147888  1.0000
  O   O2        1.0  0.7746777377460881  0.7746778260494297  0.22532222329749643  1.0000
  O   O3        1.0  0.774677802528367  0.22532226029726293  0.22532211317288833  1.0000
  O   O4        1.0  0.2253221920372214  0.7746778057168148  0.774677778926204  1.0000
  O   O5        1.0  0.22532224856401392  0.774677803233184  0.22532216326760518  1.0000
  O   O6        1.0  0.7746777753794126  0.22532222081143444  0.7746777674914459  1.0000
