data_image0
_chemical_formula_structural       Sn2SrS6
_chemical_formula_sum              "Sn2 Sr1 S6"
_cell_length_a       6.931516213599517
_cell_length_b       6.931516300109385
_cell_length_c       6.931516252377588
_cell_angle_alpha    59.99999981085008
_cell_angle_beta     59.99999951591034
_cell_angle_gamma    60.00000017744438

_space_group_name_H-M_alt    "P 1"
_space_group_IT_number       1

loop_
  _space_group_symop_operation_xyz
  'x, y, z'

loop_
  _atom_site_type_symbol
  _atom_site_label
  _atom_site_symmetry_multiplicity
  _atom_site_fract_x
  _atom_site_fract_y
  _atom_site_fract_z
  _atom_site_occupancy
  Sn  Sn1       1.0  0.2500001820764276  0.2500000020194505  0.24999990714916248  1.0000
  Sn  Sn2       1.0  0.7499999589508867  0.7500000237275708  0.749999980283733  1.0000
  Sr  Sr1       1.0  5.763276435208599e-08  0.9999999770300142  0.9999999249611791  1.0000
  S   S1        1.0  0.28628036787813316  0.28628031590867886  0.7137196129339628  1.0000
  S   S2        1.0  0.7137195541291234  0.7137197222067961  0.2862803547417621  1.0000
  S   S3        1.0  0.7137195506992008  0.2862803368222627  0.28628040733816335  1.0000
  S   S4        1.0  0.2862803804458213  0.7137196588870837  0.7137197096988361  1.0000
  S   S5        1.0  0.2862804036023418  0.7137195932813887  0.2862803277504561  1.0000
  S   S6        1.0  0.7137195463725108  0.28628037592412775  0.7137197469575979  1.0000
