data_image0
_chemical_formula_structural       Sn2ScO6
_chemical_formula_sum              "Sn2 Sc1 O6"
_cell_length_a       5.349090773560406
_cell_length_b       5.349091008423677
_cell_length_c       5.349091475904706
_cell_angle_alpha    59.99999732565495
_cell_angle_beta     59.999994789289396
_cell_angle_gamma    59.99999608234981

_space_group_name_H-M_alt    "P 1"
_space_group_IT_number       1

loop_
  _space_group_symop_operation_xyz
  'x, y, z'

loop_
  _atom_site_type_symbol
  _atom_site_label
  _atom_site_symmetry_multiplicity
  _atom_site_fract_x
  _atom_site_fract_y
  _atom_site_fract_z
  _atom_site_occupancy
  Sn  Sn1       1.0  0.25000079864465197  0.24999973039147935  0.2499999215830514  1.0000
  Sn  Sn2       1.0  0.7500026779771897  0.7499993812138736  0.7499997306112637  1.0000
  Sc  Sc1       1.0  4.4164027856920003e-07  0.9999997824849641  0.9999999739332874  1.0000
  O   O1        1.0  0.26960392436478076  0.26960634466261013  0.7303947396712862  1.0000
  O   O2        1.0  0.7303946847974364  0.730394974147956  0.2696047975450527  1.0000
  O   O3        1.0  0.7303944342382112  0.2696052155545236  0.26960508937680466  1.0000
  O   O4        1.0  0.26960404012074024  0.7303951347417803  0.7303949303276727  1.0000
  O   O5        1.0  0.26960441436195304  0.7303950084598716  0.2696056179217494  1.0000
  O   O6        1.0  0.7303945447140725  0.26960441224589826  0.73039522992979  1.0000
