data_image0
_chemical_formula_structural       Sn2SrO6
_chemical_formula_sum              "Sn2 Sr1 O6"
_cell_length_a       5.707329344249078
_cell_length_b       5.707329183297266
_cell_length_c       5.707329211018307
_cell_angle_alpha    60.00000030839089
_cell_angle_beta     60.00000023548992
_cell_angle_gamma    59.99999962968584

_space_group_name_H-M_alt    "P 1"
_space_group_IT_number       1

loop_
  _space_group_symop_operation_xyz
  'x, y, z'

loop_
  _atom_site_type_symbol
  _atom_site_label
  _atom_site_symmetry_multiplicity
  _atom_site_fract_x
  _atom_site_fract_y
  _atom_site_fract_z
  _atom_site_occupancy
  Sn  Sn1       1.0  0.24999999548320467  0.24999998616741595  0.2499999677825281  1.0000
  Sn  Sn2       1.0  0.7499998945259664  0.7500000400470548  0.750000025929918  1.0000
  Sr  Sr1       1.0  0.999999955121663  1.9313243683408023e-08  2.5047478093740246e-08  1.0000
  O   O1        1.0  0.2919885531619556  0.29198848339925143  0.7080115041694108  1.0000
  O   O2        1.0  0.7080114875239526  0.708011527793808  0.2919885040656237  1.0000
  O   O3        1.0  0.7080115663674323  0.2919884277644299  0.29198849043720937  1.0000
  O   O4        1.0  0.29198852306090795  0.708011467549168  0.7080115163236789  1.0000
  O   O5        1.0  0.2919885385492739  0.7080115310166547  0.29198844011324204  1.0000
  O   O6        1.0  0.7080114825989942  0.29198851451105956  0.7080115169199599  1.0000
