data_image0
_chemical_formula_structural       Sn2ScTe6
_chemical_formula_sum              "Sn2 Sc1 Te6"
_cell_length_a       7.3600828825699836
_cell_length_b       7.360082661794629
_cell_length_c       7.360082463135959
_cell_angle_alpha    59.99999879401218
_cell_angle_beta     60.000002674384234
_cell_angle_gamma    59.999996783788724

_space_group_name_H-M_alt    "P 1"
_space_group_IT_number       1

loop_
  _space_group_symop_operation_xyz
  'x, y, z'

loop_
  _atom_site_type_symbol
  _atom_site_label
  _atom_site_symmetry_multiplicity
  _atom_site_fract_x
  _atom_site_fract_y
  _atom_site_fract_z
  _atom_site_occupancy
  Sn  Sn1       1.0  0.2499999377010213  0.24999978692113156  0.25000012684946665  1.0000
  Sn  Sn2       1.0  0.75000026351769  0.7499999015753641  0.7500001824861104  1.0000
  Sc  Sc1       1.0  0.9999999372587666  1.3645102140020158e-07  1.7509925043910871e-07  1.0000
  Te  Te1       1.0  0.27019962634132894  0.27019971647901364  0.7298003254894888  1.0000
  Te  Te2       1.0  0.7298001271404478  0.7298003880267293  0.2701995893884329  1.0000
  Te  Te3       1.0  0.7298005476791973  0.27019980080142536  0.2701994191591883  1.0000
  Te  Te4       1.0  0.2701995362330594  0.7298002254945763  0.7298002826528197  1.0000
  Te  Te5       1.0  0.27019951284967497  0.7298002893857567  0.27019971349981065  1.0000
  Te  Te6       1.0  0.7298005236158451  0.2701997568786842  0.729800184114523  1.0000
