data_image0
_chemical_formula_structural       Sn2TiO6
_chemical_formula_sum              "Sn2 Ti1 O6"
_cell_length_a       5.366609191766565
_cell_length_b       5.366610628232717
_cell_length_c       5.366610458598337
_cell_angle_alpha    59.999986988806924
_cell_angle_beta     59.99998452195767
_cell_angle_gamma    59.9999991379307

_space_group_name_H-M_alt    "P 1"
_space_group_IT_number       1

loop_
  _space_group_symop_operation_xyz
  'x, y, z'

loop_
  _atom_site_type_symbol
  _atom_site_label
  _atom_site_symmetry_multiplicity
  _atom_site_fract_x
  _atom_site_fract_y
  _atom_site_fract_z
  _atom_site_occupancy
  Sn  Sn1       1.0  0.2499980206603089  0.25000091333828933  0.2500004026406105  1.0000
  Sn  Sn2       1.0  0.7499992195058955  0.7500000288121087  0.7500006928426662  1.0000
  Ti  Ti1       1.0  0.9999997270361947  5.865143892641004e-07  6.31027408715828e-08  1.0000
  O   O1        1.0  0.2554477953655427  0.25544720768823737  0.7445523729392787  1.0000
  O   O2        1.0  0.7445527116273379  0.7445519703547294  0.2554477270824379  1.0000
  O   O3        1.0  0.7445537560582589  0.25544806621989075  0.25544645998013515  1.0000
  O   O4        1.0  0.25544767284656034  0.7445517736487538  0.7445527177365009  1.0000
  O   O5        1.0  0.25544807556997184  0.7445522345093776  0.255447063896008  1.0000
  O   O6        1.0  0.7445528325600207  0.2554470827452241  0.7445526019744245  1.0000
