data_image0
_chemical_formula_structural       Sn2TiTe6
_chemical_formula_sum              "Sn2 Ti1 Te6"
_cell_length_a       7.227100426753369
_cell_length_b       7.227100570410734
_cell_length_c       7.227100557885786
_cell_angle_alpha    60.00000078115788
_cell_angle_beta     59.999999342364525
_cell_angle_gamma    60.00000114818319

_space_group_name_H-M_alt    "P 1"
_space_group_IT_number       1

loop_
  _space_group_symop_operation_xyz
  'x, y, z'

loop_
  _atom_site_type_symbol
  _atom_site_label
  _atom_site_symmetry_multiplicity
  _atom_site_fract_x
  _atom_site_fract_y
  _atom_site_fract_z
  _atom_site_occupancy
  Sn  Sn1       1.0  0.2500000127964093  0.2500000824385114  0.2500000174372232  1.0000
  Sn  Sn2       1.0  0.7499999501759056  0.7500001812239505  0.7499997074414904  1.0000
  Ti  Ti1       1.0  0.9999999825051843  2.3725182346844246e-08  0.9999999982684976  1.0000
  Te  Te1       1.0  0.2620461952866587  0.2620460583526367  0.7379538318985555  1.0000
  Te  Te2       1.0  0.7379540123389473  0.7379538596000275  0.26204618703622345  1.0000
  Te  Te3       1.0  0.7379537542905901  0.26204602197092225  0.262046303690421  1.0000
  Te  Te4       1.0  0.26204621446645165  0.7379538265008491  0.737953863884363  1.0000
  Te  Te5       1.0  0.2620460741700816  0.7379538072406252  0.2620462262521012  1.0000
  Te  Te6       1.0  0.7379538065646246  0.2620461327425628  0.7379538717777855  1.0000
