data_image0
_chemical_formula_structural       Sn2TaN6
_chemical_formula_sum              "Sn2 Ta1 N6"
_cell_length_a       5.337455555204052
_cell_length_b       5.337455537231385
_cell_length_c       5.33745558527477
_cell_angle_alpha    59.999999689329826
_cell_angle_beta     60.000000389703104
_cell_angle_gamma    59.99999927521111

_space_group_name_H-M_alt    "P 1"
_space_group_IT_number       1

loop_
  _space_group_symop_operation_xyz
  'x, y, z'

loop_
  _atom_site_type_symbol
  _atom_site_label
  _atom_site_symmetry_multiplicity
  _atom_site_fract_x
  _atom_site_fract_y
  _atom_site_fract_z
  _atom_site_occupancy
  Sn  Sn1       1.0  0.2500000377228939  0.24999996460595864  0.24999999003770204  1.0000
  Sn  Sn2       1.0  0.7499999479185135  0.7500000131382786  0.7499999705953655  1.0000
  Ta  Ta1       1.0  2.1371450574470283e-08  1.3767738395418242e-08  2.1774995298398266e-08  1.0000
  N   N1        1.0  0.27255034969615816  0.27255027548176186  0.7274496707208085  1.0000
  N   N2        1.0  0.7274497188327966  0.7274496288345353  0.27255028892955946  1.0000
  N   N3        1.0  0.7274496705113452  0.27255030515057876  0.27255030338608915  1.0000
  N   N4        1.0  0.2725503396922423  0.727449670299035  0.7274497416643465  1.0000
  N   N5        1.0  0.2725502978444855  0.7274497424891825  0.272550313990591  1.0000
  N   N6        1.0  0.7274496206417246  0.2725503912894261  0.7274496771449649  1.0000
