data_image0
_chemical_formula_structural       Sn2TiSe6
_chemical_formula_sum              "Sn2 Ti1 Se6"
_cell_length_a       6.732121547314463
_cell_length_b       6.732121329042919
_cell_length_c       6.732121450666573
_cell_angle_alpha    60.00000042865414
_cell_angle_beta     59.999997926708836
_cell_angle_gamma    60.00000015171579

_space_group_name_H-M_alt    "P 1"
_space_group_IT_number       1

loop_
  _space_group_symop_operation_xyz
  'x, y, z'

loop_
  _atom_site_type_symbol
  _atom_site_label
  _atom_site_symmetry_multiplicity
  _atom_site_fract_x
  _atom_site_fract_y
  _atom_site_fract_z
  _atom_site_occupancy
  Sn  Sn1       1.0  0.24999998257594347  0.250000049185624  0.24999996114113154  1.0000
  Sn  Sn2       1.0  0.750000022801819  0.749999958354307  0.7500001425042376  1.0000
  Ti  Ti1       1.0  0.9999999167156433  8.004723854466233e-08  0.9999999124936094  1.0000
  Se  Se1       1.0  0.2575870001814885  0.2575869974452594  0.7424130159498739  1.0000
  Se  Se2       1.0  0.7424130907665659  0.7424129900828584  0.2575868796371821  1.0000
  Se  Se3       1.0  0.7424130718208614  0.2575869840584205  0.25758691468650335  1.0000
  Se  Se4       1.0  0.25758691772168135  0.7424130143852307  0.7424130989309211  1.0000
  Se  Se5       1.0  0.2575869205779255  0.7424130277266345  0.2575869667168186  1.0000
  Se  Se6       1.0  0.7424130703172004  0.2575868997660535  0.7424131054664491  1.0000
