data_image0
_chemical_formula_structural       Sn2TiS6
_chemical_formula_sum              "Sn2 Ti1 S6"
_cell_length_a       6.3945797139511615
_cell_length_b       6.394579746071558
_cell_length_c       6.394579285440625
_cell_angle_alpha    60.00000060893411
_cell_angle_beta     60.00000095296859
_cell_angle_gamma    60.000001534001406

_space_group_name_H-M_alt    "P 1"
_space_group_IT_number       1

loop_
  _space_group_symop_operation_xyz
  'x, y, z'

loop_
  _atom_site_type_symbol
  _atom_site_label
  _atom_site_symmetry_multiplicity
  _atom_site_fract_x
  _atom_site_fract_y
  _atom_site_fract_z
  _atom_site_occupancy
  Sn  Sn1       1.0  0.25000005815532506  0.25000009704048526  0.24999990372672423  1.0000
  Sn  Sn2       1.0  0.7500000510210499  0.7500001359832925  0.749999983396806  1.0000
  Ti  Ti1       1.0  0.9999999639945594  0.9999999942541422  0.999999992726808  1.0000
  S   S1        1.0  0.2570369443211167  0.25703688633475463  0.7429631029415258  1.0000
  S   S2        1.0  0.7429631193141973  0.7429631149394271  0.25703682430639024  1.0000
  S   S3        1.0  0.7429630859700023  0.25703681505888165  0.2570369594212787  1.0000
  S   S4        1.0  0.2570368760896546  0.7429630521452832  0.7429631356918625  1.0000
  S   S5        1.0  0.25703688488246645  0.7429630768343077  0.2570369428419413  1.0000
  S   S6        1.0  0.7429630278742857  0.25703681909914583  0.7429631453559381  1.0000
