data_image0
_chemical_formula_structural       Sn2TeN6
_chemical_formula_sum              "Sn2 Te1 N6"
_cell_length_a       5.43515866896981
_cell_length_b       5.435158653507321
_cell_length_c       5.435158953175856
_cell_angle_alpha    59.99999993272993
_cell_angle_beta     59.99999912498302
_cell_angle_gamma    60.0000006903637

_space_group_name_H-M_alt    "P 1"
_space_group_IT_number       1

loop_
  _space_group_symop_operation_xyz
  'x, y, z'

loop_
  _atom_site_type_symbol
  _atom_site_label
  _atom_site_symmetry_multiplicity
  _atom_site_fract_x
  _atom_site_fract_y
  _atom_site_fract_z
  _atom_site_occupancy
  Sn  Sn1       1.0  0.2500000277018595  0.25000000909843506  0.24999996508291994  1.0000
  Sn  Sn2       1.0  0.7500000143703898  0.7500000295486804  0.7500000039244422  1.0000
  Te  Te1       1.0  5.000128838959177e-09  0.9999999977466254  0.9999999949468777  1.0000
  N   N1        1.0  0.26262774951087947  0.262627739767835  0.737372259959295  1.0000
  N   N2        1.0  0.7373722404576901  0.7373722831056578  0.2626277650651889  1.0000
  N   N3        1.0  0.7373722473653833  0.26262774074221773  0.26262774702010816  1.0000
  N   N4        1.0  0.2626277307803925  0.7373721965030378  0.7373722696938396  1.0000
  N   N5        1.0  0.26262769068182634  0.7373722471704779  0.26262776986388836  1.0000
  N   N6        1.0  0.7373722965620995  0.2626277328888962  0.7373722411325243  1.0000
