data_image0
_chemical_formula_structural       Sn2VTe6
_chemical_formula_sum              "Sn2 V1 Te6"
_cell_length_a       7.134688257819759
_cell_length_b       7.134688216235318
_cell_length_c       7.134688454103715
_cell_angle_alpha    59.99999857768947
_cell_angle_beta     59.99999765982483
_cell_angle_gamma    59.999999590367004

_space_group_name_H-M_alt    "P 1"
_space_group_IT_number       1

loop_
  _space_group_symop_operation_xyz
  'x, y, z'

loop_
  _atom_site_type_symbol
  _atom_site_label
  _atom_site_symmetry_multiplicity
  _atom_site_fract_x
  _atom_site_fract_y
  _atom_site_fract_z
  _atom_site_occupancy
  Sn  Sn1       1.0  0.2499999547777734  0.2500001906256648  0.24999996505241742  1.0000
  Sn  Sn2       1.0  0.7500000157089013  0.7499999041172485  0.7500002010038332  1.0000
  V   V1        1.0  1.7443738481160573e-08  0.9999999622346675  4.520086933704767e-08  1.0000
  Te  Te1       1.0  0.26092574184153916  0.26092582426216293  0.7390742717902697  1.0000
  Te  Te2       1.0  0.7390742929589106  0.7390741795006308  0.2609256707282632  1.0000
  Te  Te3       1.0  0.7390741158133025  0.2609258160907428  0.2609257371726161  1.0000
  Te  Te4       1.0  0.26092575248503114  0.7390741773724131  0.7390742867387812  1.0000
  Te  Te5       1.0  0.26092583943683334  0.7390741799532045  0.2609257030495519  1.0000
  Te  Te6       1.0  0.739074271937623  0.26092576887819646  0.7390741221258532  1.0000
