data_image0
_chemical_formula_structural       Sn2VO6
_chemical_formula_sum              "Sn2 V1 O6"
_cell_length_a       5.4910066413071785
_cell_length_b       5.491006366616824
_cell_length_c       5.491007205086405
_cell_angle_alpha    59.99999832796054
_cell_angle_beta     60.00000101225246
_cell_angle_gamma    60.00000116385264

_space_group_name_H-M_alt    "P 1"
_space_group_IT_number       1

loop_
  _space_group_symop_operation_xyz
  'x, y, z'

loop_
  _atom_site_type_symbol
  _atom_site_label
  _atom_site_symmetry_multiplicity
  _atom_site_fract_x
  _atom_site_fract_y
  _atom_site_fract_z
  _atom_site_occupancy
  Sn  Sn1       1.0  0.25000017017881027  0.25000012037400743  0.25000010208301954  1.0000
  Sn  Sn2       1.0  0.7499998241913357  0.7500000354754021  0.7500007230080691  1.0000
  V   V1        1.0  0.9999999014410047  0.9999999486995141  4.701213500212468e-07  1.0000
  O   O1        1.0  0.2396870928955099  0.239686976740936  0.7603128363121939  1.0000
  O   O2        1.0  0.7603130471320513  0.7603128556923081  0.23968677735037502  1.0000
  O   O3        1.0  0.7603130855719926  0.23968708270603817  0.2396868368596652  1.0000
  O   O4        1.0  0.23968696018238195  0.7603129883860114  0.7603127191793737  1.0000
  O   O5        1.0  0.23968698420233545  0.7603132380787881  0.239686729318873  1.0000
  O   O6        1.0  0.7603128580377849  0.23968688208328615  0.7603127036147285  1.0000
