data_image0
_chemical_formula_structural       Sn2VSe6
_chemical_formula_sum              "Sn2 V1 Se6"
_cell_length_a       6.698411487919783
_cell_length_b       6.698411950044892
_cell_length_c       6.6984115774002015
_cell_angle_alpha    59.99999867413046
_cell_angle_beta     59.999998432490706
_cell_angle_gamma    59.999999745034586

_space_group_name_H-M_alt    "P 1"
_space_group_IT_number       1

loop_
  _space_group_symop_operation_xyz
  'x, y, z'

loop_
  _atom_site_type_symbol
  _atom_site_label
  _atom_site_symmetry_multiplicity
  _atom_site_fract_x
  _atom_site_fract_y
  _atom_site_fract_z
  _atom_site_occupancy
  Sn  Sn1       1.0  0.25000017879874015  0.2500000184577544  0.24999979044755605  1.0000
  Sn  Sn2       1.0  0.7499999771244446  0.7499999438401963  0.7500000396598447  1.0000
  V   V1        1.0  0.9999999766668735  1.8284108370068362e-08  0.9999999965529439  1.0000
  Se  Se1       1.0  0.2529509972046579  0.252951044863935  0.7470490219076512  1.0000
  Se  Se2       1.0  0.7470489356975089  0.7470489814283913  0.2529510056514794  1.0000
  Se  Se3       1.0  0.7470489604523995  0.25295102809632247  0.2529510656313576  1.0000
  Se  Se4       1.0  0.2529511003816298  0.747048888491354  0.7470489811791017  1.0000
  Se  Se5       1.0  0.25295101555680927  0.7470489736036734  0.25295109054941634  1.0000
  Se  Se6       1.0  0.7470488532315435  0.25295110022733236  0.7470490079987133  1.0000
