data_image0
_chemical_formula_structural       Sn2VN6
_chemical_formula_sum              "Sn2 V1 N6"
_cell_length_a       5.318080648888896
_cell_length_b       5.318080826042269
_cell_length_c       5.318080763614386
_cell_angle_alpha    59.99999865805618
_cell_angle_beta     59.999998697600866
_cell_angle_gamma    59.99999849651279

_space_group_name_H-M_alt    "P 1"
_space_group_IT_number       1

loop_
  _space_group_symop_operation_xyz
  'x, y, z'

loop_
  _atom_site_type_symbol
  _atom_site_label
  _atom_site_symmetry_multiplicity
  _atom_site_fract_x
  _atom_site_fract_y
  _atom_site_fract_z
  _atom_site_occupancy
  Sn  Sn1       1.0  0.25000002526303533  0.2500000322414263  0.24999998344981367  1.0000
  Sn  Sn2       1.0  0.7500000168147978  0.7500000391497094  0.7499999747770838  1.0000
  V   V1        1.0  0.999999964491969  2.302983243931275e-09  2.0363279211236853e-08  1.0000
  N   N1        1.0  0.2594161353619545  0.25941614645178496  0.7405838256612637  1.0000
  N   N2        1.0  0.740583906125123  0.7405838420319694  0.2594161197837526  1.0000
  N   N3        1.0  0.7405837841138391  0.2594161327581986  0.25941621329017384  1.0000
  N   N4        1.0  0.2594161351459925  0.7405838511195902  0.7405838877099519  1.0000
  N   N5        1.0  0.2594161929591902  0.740583829548227  0.2594161281159107  1.0000
  N   N6        1.0  0.7405838380666512  0.25941613820868137  0.7405838686503216  1.0000
