data_image0
_chemical_formula_structural       Sn2VS6
_chemical_formula_sum              "Sn2 V1 S6"
_cell_length_a       6.337890663559117
_cell_length_b       6.337890848297175
_cell_length_c       6.337890807230788
_cell_angle_alpha    59.99999892081355
_cell_angle_beta     59.99999841614375
_cell_angle_gamma    60.000000996173604

_space_group_name_H-M_alt    "P 1"
_space_group_IT_number       1

loop_
  _space_group_symop_operation_xyz
  'x, y, z'

loop_
  _atom_site_type_symbol
  _atom_site_label
  _atom_site_symmetry_multiplicity
  _atom_site_fract_x
  _atom_site_fract_y
  _atom_site_fract_z
  _atom_site_occupancy
  Sn  Sn1       1.0  0.25000016507420836  0.24999994968877323  0.24999997589589473  1.0000
  Sn  Sn2       1.0  0.7500000107612705  0.7499999360250826  0.7500001043496145  1.0000
  V   V1        1.0  0.9999999796275453  1.7391752438549934e-08  1.1193718923364648e-07  1.0000
  S   S1        1.0  0.25053241243571084  0.25053250650231856  0.7494675400953175  1.0000
  S   S2        1.0  0.749467525131714  0.7494676130340062  0.2505323845917861  1.0000
  S   S3        1.0  0.7494675105879269  0.25053250136754807  0.25053247071180873  1.0000
  S   S4        1.0  0.25053255742388014  0.7494674017380633  0.7494673944106836  1.0000
  S   S5        1.0  0.2505324733718338  0.7494675079676539  0.25053252057667263  1.0000
  S   S6        1.0  0.7494673532996611  0.2505325671230757  0.749467477047759  1.0000
