data_image0
_chemical_formula_structural       Sn2WN6
_chemical_formula_sum              "Sn2 W1 N6"
_cell_length_a       5.469177889942203
_cell_length_b       5.4691781509968145
_cell_length_c       5.469177988632647
_cell_angle_alpha    60.00000055511625
_cell_angle_beta     59.99999891496677
_cell_angle_gamma    60.000001281918195

_space_group_name_H-M_alt    "P 1"
_space_group_IT_number       1

loop_
  _space_group_symop_operation_xyz
  'x, y, z'

loop_
  _atom_site_type_symbol
  _atom_site_label
  _atom_site_symmetry_multiplicity
  _atom_site_fract_x
  _atom_site_fract_y
  _atom_site_fract_z
  _atom_site_occupancy
  Sn  Sn1       1.0  0.249999871309717  0.25000023205247046  0.24999994762927147  1.0000
  Sn  Sn2       1.0  0.7499999919707196  0.7499998407226088  0.7500002205449858  1.0000
  W   W1        1.0  0.9999999844745366  2.2393580825920376e-09  0.999999997500911  1.0000
  N   N1        1.0  0.25690706504283967  0.25690691041973435  0.7430929558892548  1.0000
  N   N2        1.0  0.7430930673554632  0.7430929630524737  0.2569069140838245  1.0000
  N   N3        1.0  0.7430930360626407  0.25690710143496065  0.2569068757826056  1.0000
  N   N4        1.0  0.25690699104565035  0.7430929422284642  0.7430930513328594  1.0000
  N   N5        1.0  0.256907071665606  0.7430929862325303  0.2569069176355964  1.0000
  N   N6        1.0  0.7430929578101139  0.25690704399474584  0.7430930259847986  1.0000
