data_image0
_chemical_formula_structural       Sn2YO6
_chemical_formula_sum              "Sn2 Y1 O6"
_cell_length_a       5.591388937930337
_cell_length_b       5.5913890287603465
_cell_length_c       5.591388739490451
_cell_angle_alpha    59.999999784734825
_cell_angle_beta     60.00000114692229
_cell_angle_gamma    59.99999894271673

_space_group_name_H-M_alt    "P 1"
_space_group_IT_number       1

loop_
  _space_group_symop_operation_xyz
  'x, y, z'

loop_
  _atom_site_type_symbol
  _atom_site_label
  _atom_site_symmetry_multiplicity
  _atom_site_fract_x
  _atom_site_fract_y
  _atom_site_fract_z
  _atom_site_occupancy
  Sn  Sn1       1.0  0.2500001333576487  0.2500000951037226  0.24999994829673994  1.0000
  Sn  Sn2       1.0  0.7499998486017639  0.7500000005575439  0.7500002111371578  1.0000
  Y   Y1        1.0  6.366504252254053e-08  0.9999999824766977  9.121490254660492e-09  1.0000
  O   O1        1.0  0.2787345920234497  0.2787345576348445  0.7212654122040643  1.0000
  O   O2        1.0  0.7212655028745419  0.7212653912687838  0.2787345066004841  1.0000
  O   O3        1.0  0.72126536058879  0.27873463422879124  0.27873443858722696  1.0000
  O   O4        1.0  0.27873455009286896  0.7212654088625804  0.7212655252316148  1.0000
  O   O5        1.0  0.2787345774615264  0.721265482004518  0.27873441242932356  1.0000
  O   O6        1.0  0.7212653662015941  0.27873445594705115  0.7212655284493634  1.0000
