data_image0
_chemical_formula_structural       Sn2YTe6
_chemical_formula_sum              "Sn2 Y1 Te6"
_cell_length_a       7.590425228774714
_cell_length_b       7.590425023130137
_cell_length_c       7.590425089370529
_cell_angle_alpha    59.99999953839771
_cell_angle_beta     60.0000008236363
_cell_angle_gamma    59.99999880265169

_space_group_name_H-M_alt    "P 1"
_space_group_IT_number       1

loop_
  _space_group_symop_operation_xyz
  'x, y, z'

loop_
  _atom_site_type_symbol
  _atom_site_label
  _atom_site_symmetry_multiplicity
  _atom_site_fract_x
  _atom_site_fract_y
  _atom_site_fract_z
  _atom_site_occupancy
  Sn  Sn1       1.0  0.25000007092031995  0.24999987557769074  0.24999996561265136  1.0000
  Sn  Sn2       1.0  0.7499998055931425  0.7500001043406987  0.7500001870280182  1.0000
  Y   Y1        1.0  4.0428042394274636e-08  3.3884324584838165e-08  0.9999998969713529  1.0000
  Te  Te1       1.0  0.27830438844291205  0.2783042410370481  0.7216957131002035  1.0000
  Te  Te2       1.0  0.7216956247387182  0.7216956985428588  0.27830430442397164  1.0000
  Te  Te3       1.0  0.7216957006405028  0.27830438518887757  0.27830428479138664  1.0000
  Te  Te4       1.0  0.2783043209752236  0.7216956705658567  0.7216956796504715  1.0000
  Te  Te5       1.0  0.27830437665307434  0.721695737952205  0.27830424406831844  1.0000
  Te  Te6       1.0  0.7216956781087379  0.27830425487449745  0.7216957234074692  1.0000
