data_image0
_chemical_formula_structural       Sn2YS6
_chemical_formula_sum              "Sn2 Y1 S6"
_cell_length_a       6.777461353602055
_cell_length_b       6.777461433174824
_cell_length_c       6.7774612876516285
_cell_angle_alpha    60.00000121853252
_cell_angle_beta     60.00000007648726
_cell_angle_gamma    59.99999950087261

_space_group_name_H-M_alt    "P 1"
_space_group_IT_number       1

loop_
  _space_group_symop_operation_xyz
  'x, y, z'

loop_
  _atom_site_type_symbol
  _atom_site_label
  _atom_site_symmetry_multiplicity
  _atom_site_fract_x
  _atom_site_fract_y
  _atom_site_fract_z
  _atom_site_occupancy
  Sn  Sn1       1.0  0.24999994204298545  0.25000014490273126  0.24999993727805017  1.0000
  Sn  Sn2       1.0  0.7500000390372118  0.7499998419843251  0.7499999766588159  1.0000
  Y   Y1        1.0  1.9824739616838956e-08  3.252752831164253e-08  0.9999998867706208  1.0000
  S   S1        1.0  0.2749490030214564  0.27494908803891904  0.7250510232345145  1.0000
  S   S2        1.0  0.7250509334515547  0.7250509151119043  0.27494915865640346  1.0000
  S   S3        1.0  0.7250509630010251  0.27494905452291174  0.2749490208419873  1.0000
  S   S4        1.0  0.27494900876916356  0.725050914293296  0.7250510322009998  1.0000
  S   S5        1.0  0.2749490780372127  0.7250509040542022  0.2749490529257722  1.0000
  S   S6        1.0  0.7250510172789181  0.2749491081320426  0.7250509092818318  1.0000
