data_image0
_chemical_formula_structural       Sn2ZrN6
_chemical_formula_sum              "Sn2 Zr1 N6"
_cell_length_a       5.276266790528418
_cell_length_b       5.276266721163792
_cell_length_c       5.276266938305733
_cell_angle_alpha    59.99999918283072
_cell_angle_beta     59.999998737173726
_cell_angle_gamma    59.999998899510075

_space_group_name_H-M_alt    "P 1"
_space_group_IT_number       1

loop_
  _space_group_symop_operation_xyz
  'x, y, z'

loop_
  _atom_site_type_symbol
  _atom_site_label
  _atom_site_symmetry_multiplicity
  _atom_site_fract_x
  _atom_site_fract_y
  _atom_site_fract_z
  _atom_site_occupancy
  Sn  Sn1       1.0  0.2500000113309911  0.2499999743360165  0.25000003993956077  1.0000
  Sn  Sn2       1.0  0.7500000349866718  0.749999985681362  0.7499999193053112  1.0000
  Zr  Zr1       1.0  6.757737966996112e-08  1.3927402939887341e-08  0.9999999763051232  1.0000
  N   N1        1.0  0.2958049513000899  0.2958050569735439  0.7041949208378396  1.0000
  N   N2        1.0  0.7041950315021811  0.7041952117679372  0.29580522283794  1.0000
  N   N3        1.0  0.7041949263522731  0.2958047106895017  0.29580501206701226  1.0000
  N   N4        1.0  0.29580505944282093  0.7041950566654679  0.7041949714252607  1.0000
  N   N5        1.0  0.29580479940041193  0.7041949677413097  0.295804934572512  1.0000
  N   N6        1.0  0.7041951238313443  0.29580502013087456  0.7041949964767352  1.0000
