data_image0
_chemical_formula_structural       Sn2ZnTe6
_chemical_formula_sum              "Sn2 Zn1 Te6"
_cell_length_a       7.186488209152615
_cell_length_b       7.186488131493697
_cell_length_c       7.186488296912008
_cell_angle_alpha    60.00000143373415
_cell_angle_beta     60.000001274626264
_cell_angle_gamma    60.00000025879323

_space_group_name_H-M_alt    "P 1"
_space_group_IT_number       1

loop_
  _space_group_symop_operation_xyz
  'x, y, z'

loop_
  _atom_site_type_symbol
  _atom_site_label
  _atom_site_symmetry_multiplicity
  _atom_site_fract_x
  _atom_site_fract_y
  _atom_site_fract_z
  _atom_site_occupancy
  Sn  Sn1       1.0  0.2499997904940918  0.2499999186026705  0.2500001432449235  1.0000
  Sn  Sn2       1.0  0.7500001922583067  0.7500000796122328  0.7499998296146558  1.0000
  Zn  Zn1       1.0  0.9999999503851853  0.9999999897746024  0.9999999617365949  1.0000
  Te  Te1       1.0  0.26733927191660994  0.26733937141655717  0.732660690764198  1.0000
  Te  Te2       1.0  0.7326607579833598  0.732660654066072  0.2673393478587495  1.0000
  Te  Te3       1.0  0.7326608502594159  0.2673391872682439  0.2673393757826339  1.0000
  Te  Te4       1.0  0.2673391715092568  0.7326608433270829  0.7326606337366085  1.0000
  Te  Te5       1.0  0.26733916709934163  0.7326608040229372  0.2673394052359485  1.0000
  Te  Te6       1.0  0.7326608512135668  0.2673391549946127  0.7326606028380572  1.0000
