data_image0
_chemical_formula_structural       Sn2ZnS6
_chemical_formula_sum              "Sn2 Zn1 S6"
_cell_length_a       6.33184322293299
_cell_length_b       6.331842646909535
_cell_length_c       6.331843269654393
_cell_angle_alpha    60.00000197937889
_cell_angle_beta     60.00000298144085
_cell_angle_gamma    60.000002418472974

_space_group_name_H-M_alt    "P 1"
_space_group_IT_number       1

loop_
  _space_group_symop_operation_xyz
  'x, y, z'

loop_
  _atom_site_type_symbol
  _atom_site_label
  _atom_site_symmetry_multiplicity
  _atom_site_fract_x
  _atom_site_fract_y
  _atom_site_fract_z
  _atom_site_occupancy
  Sn  Sn1       1.0  0.2500002482182018  0.24999957990530797  0.25000008536365437  1.0000
  Sn  Sn2       1.0  0.7500000081088504  0.7499996855704832  0.7500002967339231  1.0000
  Zn  Zn1       1.0  0.9999999923735711  1.7408365490971077e-08  0.9999999808951617  1.0000
  S   S1        1.0  0.2616576858733243  0.26165799642363907  0.7383421598391064  1.0000
  S   S2        1.0  0.7383421830702961  0.7383422342493313  0.26165767276400087  1.0000
  S   S3        1.0  0.7383421501728564  0.2616579809483889  0.2616577904695958  1.0000
  S   S4        1.0  0.2616577629616441  0.7383422593959023  0.7383421146995058  1.0000
  S   S5        1.0  0.2616578845999772  0.7383423239706609  0.2616577826660047  1.0000
  S   S6        1.0  0.738342080664718  0.26165792411068534  0.7383421352110849  1.0000
