data_image0
_chemical_formula_structural       Sn2ZnSe6
_chemical_formula_sum              "Sn2 Zn1 Se6"
_cell_length_a       6.589372055628141
_cell_length_b       6.589372297830288
_cell_length_c       6.589372109269869
_cell_angle_alpha    60.00000067391638
_cell_angle_beta     60.000002780872805
_cell_angle_gamma    60.00000197912154

_space_group_name_H-M_alt    "P 1"
_space_group_IT_number       1

loop_
  _space_group_symop_operation_xyz
  'x, y, z'

loop_
  _atom_site_type_symbol
  _atom_site_label
  _atom_site_symmetry_multiplicity
  _atom_site_fract_x
  _atom_site_fract_y
  _atom_site_fract_z
  _atom_site_occupancy
  Sn  Sn1       1.0  0.2500000267079708  0.2499999343568019  0.2500000467758365  1.0000
  Sn  Sn2       1.0  0.75000003765699  0.7499999777851016  0.7499999512784038  1.0000
  Zn  Zn1       1.0  1.876279179978284e-08  0.9999999962826662  0.9999999939948667  1.0000
  Se  Se1       1.0  0.275436187852896  0.2754362715383541  0.7245637913727453  1.0000
  Se  Se2       1.0  0.7245637707473013  0.7245638264702441  0.27543621215838493  1.0000
  Se  Se3       1.0  0.7245637893643355  0.2754361550546577  0.27543624714279913  1.0000
  Se  Se4       1.0  0.27543624910382364  0.7245637979779193  0.7245637069922178  1.0000
  Se  Se5       1.0  0.2754361562197795  0.7245637933908337  0.2754362894193217  1.0000
  Se  Se6       1.0  0.7245637514919203  0.2754362469990884  0.7245637592598223  1.0000
