data_image0
_chemical_formula_structural       Sr2AgSe6
_chemical_formula_sum              "Sr2 Ag1 Se6"
_cell_length_a       6.78780039605966
_cell_length_b       6.787800941162045
_cell_length_c       6.787800469573662
_cell_angle_alpha    60.00000182101552
_cell_angle_beta     60.000001781189255
_cell_angle_gamma    60.00000043779671

_space_group_name_H-M_alt    "P 1"
_space_group_IT_number       1

loop_
  _space_group_symop_operation_xyz
  'x, y, z'

loop_
  _atom_site_type_symbol
  _atom_site_label
  _atom_site_symmetry_multiplicity
  _atom_site_fract_x
  _atom_site_fract_y
  _atom_site_fract_z
  _atom_site_occupancy
  Sr  Sr1       1.0  0.24999998043017457  0.25000000471229744  0.25000002164997087  1.0000
  Sr  Sr2       1.0  0.7500000381523649  0.7500000195498879  0.7499999430973943  1.0000
  Ag  Ag1       1.0  2.263079105821188e-08  0.9999999729350143  5.083373012345523e-08  1.0000
  Se  Se1       1.0  0.27178125947803194  0.27178128707031474  0.7282187066311256  1.0000
  Se  Se2       1.0  0.728218652448585  0.7282187101268883  0.2717813367625407  1.0000
  Se  Se3       1.0  0.7282187194783879  0.2717812558389032  0.27178127738471547  1.0000
  Se  Se4       1.0  0.2717813310484727  0.728218728727971  0.7282186676664449  1.0000
  Se  Se5       1.0  0.2717813018165393  0.7282187817999726  0.2717812819774376  1.0000
  Se  Se6       1.0  0.7282186806469797  0.2717812334405516  0.7282187348048935  1.0000
