data_image0
_chemical_formula_structural       Sr2AgO6
_chemical_formula_sum              "Sr2 Ag1 O6"
_cell_length_a       5.554126345589536
_cell_length_b       5.554126349509046
_cell_length_c       5.554126281709098
_cell_angle_alpha    59.999999656595136
_cell_angle_beta     60.00000035237997
_cell_angle_gamma    60.00000000182441

_space_group_name_H-M_alt    "P 1"
_space_group_IT_number       1

loop_
  _space_group_symop_operation_xyz
  'x, y, z'

loop_
  _atom_site_type_symbol
  _atom_site_label
  _atom_site_symmetry_multiplicity
  _atom_site_fract_x
  _atom_site_fract_y
  _atom_site_fract_z
  _atom_site_occupancy
  Sr  Sr1       1.0  0.24999994797515868  0.25000004038225176  0.25000001680585165  1.0000
  Sr  Sr2       1.0  0.7500000196349333  0.749999955763652  0.7499999876395561  1.0000
  Ag  Ag1       1.0  0.9999999800495528  2.8666404773888376e-08  0.9999999884401682  1.0000
  O   O1        1.0  0.24787015238701837  0.24787015099196955  0.7521298609541472  1.0000
  O   O2        1.0  0.7521298715865473  0.7521298694101227  0.24787010138096605  1.0000
  O   O3        1.0  0.7521298353991314  0.24787016912616458  0.24787017761033175  1.0000
  O   O4        1.0  0.2478701969336929  0.7521297763022531  0.7521299062546872  1.0000
  O   O5        1.0  0.24787019369591926  0.7521298113916366  0.24787015658401462  1.0000
  O   O6        1.0  0.7521297632669695  0.24787019798491544  0.752129850170597  1.0000
