data_image0
_chemical_formula_structural       Sr2AgTe6
_chemical_formula_sum              "Sr2 Ag1 Te6"
_cell_length_a       7.385704358956855
_cell_length_b       7.385704535088513
_cell_length_c       7.385704937972122
_cell_angle_alpha    59.999998139144736
_cell_angle_beta     59.99999751298251
_cell_angle_gamma    60.00000184930221

_space_group_name_H-M_alt    "P 1"
_space_group_IT_number       1

loop_
  _space_group_symop_operation_xyz
  'x, y, z'

loop_
  _atom_site_type_symbol
  _atom_site_label
  _atom_site_symmetry_multiplicity
  _atom_site_fract_x
  _atom_site_fract_y
  _atom_site_fract_z
  _atom_site_occupancy
  Sr  Sr1       1.0  0.2500000052249891  0.2499999993676873  0.25000010489868907  1.0000
  Sr  Sr2       1.0  0.7500000114751452  0.7499999450386108  0.7499998829794589  1.0000
  Ag  Ag1       1.0  2.9230915148420536e-08  2.487396252383184e-08  4.4707806739121224e-08  1.0000
  Te  Te1       1.0  0.2720433839735286  0.2720435265868608  0.7279565613446544  1.0000
  Te  Te2       1.0  0.7279566466700655  0.7279564791752097  0.27204351615676553  1.0000
  Te  Te3       1.0  0.7279566460348277  0.272043310795761  0.2720433893271688  1.0000
  Te  Te4       1.0  0.27204338170412906  0.727956628635745  0.7279565305285527  1.0000
  Te  Te5       1.0  0.2720432399371867  0.7279567053904867  0.27204343378303436  1.0000
  Te  Te6       1.0  0.7279566468223628  0.27204338494304897  0.7279565352700518  1.0000
