data_image0
_chemical_formula_structural       Sr2AgS6
_chemical_formula_sum              "Sr2 Ag1 S6"
_cell_length_a       6.503885821305088
_cell_length_b       6.503885102071531
_cell_length_c       6.503885493508859
_cell_angle_alpha    59.99999835115507
_cell_angle_beta     59.999998207030195
_cell_angle_gamma    59.999996547430115

_space_group_name_H-M_alt    "P 1"
_space_group_IT_number       1

loop_
  _space_group_symop_operation_xyz
  'x, y, z'

loop_
  _atom_site_type_symbol
  _atom_site_label
  _atom_site_symmetry_multiplicity
  _atom_site_fract_x
  _atom_site_fract_y
  _atom_site_fract_z
  _atom_site_occupancy
  Sr  Sr1       1.0  0.25000007255514134  0.2499999760876029  0.250000014875069  1.0000
  Sr  Sr2       1.0  0.7499999769800653  0.7500000431317484  0.7499999353286694  1.0000
  Ag  Ag1       1.0  0.999999968451919  1.958421252166472e-07  0.9999996656960184  1.0000
  S   S1        1.0  0.2634504907196791  0.263450484071182  0.7365494889438289  1.0000
  S   S2        1.0  0.7365493254133789  0.7365495163171968  0.26345059967681583  1.0000
  S   S3        1.0  0.7365495696915045  0.26345031166545746  0.2634504604876404  1.0000
  S   S4        1.0  0.263450472366749  0.7365496341130957  0.7365495547756529  1.0000
  S   S5        1.0  0.26345046035098196  0.7365495545349852  0.2634505272462001  1.0000
  S   S6        1.0  0.7365496351324262  0.2634502895563126  0.7365497719928147  1.0000
