data_image0
_chemical_formula_structural       Sr2AuO6
_chemical_formula_sum              "Sr2 Au1 O6"
_cell_length_a       5.589680476920213
_cell_length_b       5.589679931011347
_cell_length_c       5.589680356620937
_cell_angle_alpha    60.0000024022856
_cell_angle_beta     60.00000214810024
_cell_angle_gamma    60.00000122174426

_space_group_name_H-M_alt    "P 1"
_space_group_IT_number       1

loop_
  _space_group_symop_operation_xyz
  'x, y, z'

loop_
  _atom_site_type_symbol
  _atom_site_label
  _atom_site_symmetry_multiplicity
  _atom_site_fract_x
  _atom_site_fract_y
  _atom_site_fract_z
  _atom_site_occupancy
  Sr  Sr1       1.0  0.25000002487438716  0.24999996359394058  0.2500000377583713  1.0000
  Sr  Sr2       1.0  0.750000008453958  0.7500000025270098  0.7499999742014062  1.0000
  Au  Au1       1.0  0.9999999649033777  0.9999999627515996  5.7593214816769556e-09  1.0000
  O   O1        1.0  0.2520531522074753  0.2520530942258596  0.7479468662405035  1.0000
  O   O2        1.0  0.7479468261576973  0.747946937627558  0.25205314927968375  1.0000
  O   O3        1.0  0.7479468620662099  0.25205313493614134  0.25205309927502334  1.0000
  O   O4        1.0  0.25205314451091  0.747946861859958  0.7479468659975166  1.0000
  O   O5        1.0  0.2520531080773936  0.7479468938552597  0.25205308840205604  1.0000
  O   O6        1.0  0.7479469083273448  0.2520531292338299  0.7479469196365568  1.0000
