data_image0
_chemical_formula_structural       Sr2BeS6
_chemical_formula_sum              "Sr2 Be1 S6"
_cell_length_a       6.210208276828278
_cell_length_b       6.210208839385742
_cell_length_c       6.210207886055979
_cell_angle_alpha    60.000005141860555
_cell_angle_beta     60.00000181365246
_cell_angle_gamma    60.0000031389718

_space_group_name_H-M_alt    "P 1"
_space_group_IT_number       1

loop_
  _space_group_symop_operation_xyz
  'x, y, z'

loop_
  _atom_site_type_symbol
  _atom_site_label
  _atom_site_symmetry_multiplicity
  _atom_site_fract_x
  _atom_site_fract_y
  _atom_site_fract_z
  _atom_site_occupancy
  Sr  Sr1       1.0  0.24999985945827863  0.25000009982843274  0.2499999792271838  1.0000
  Sr  Sr2       1.0  0.7500000559917394  0.749999954359476  0.7499998972000427  1.0000
  Be  Be1       1.0  7.454187707897135e-08  8.874663728672016e-08  0.9999999392890194  1.0000
  S   S1        1.0  0.25281432335825205  0.2528143886908833  0.7471856780358949  1.0000
  S   S2        1.0  0.7471856763462047  0.7471856023883041  0.2528143134181327  1.0000
  S   S3        1.0  0.7471856574737591  0.25281428274717455  0.2528143168090841  1.0000
  S   S4        1.0  0.25281434495366606  0.747185728053488  0.7471857181712915  1.0000
  S   S5        1.0  0.25281434606812425  0.7471856561982901  0.25281431600999255  1.0000
  S   S6        1.0  0.7471856688141818  0.2528141889419809  0.7471858326089355  1.0000
