data_image0
_chemical_formula_structural       Sr2BaTe6
_chemical_formula_sum              "Sr2 Ba1 Te6"
_cell_length_a       7.986848282021958
_cell_length_b       7.98684824312625
_cell_length_c       7.986848504697105
_cell_angle_alpha    59.99999913146981
_cell_angle_beta     60.00000037993232
_cell_angle_gamma    60.000000870904195

_space_group_name_H-M_alt    "P 1"
_space_group_IT_number       1

loop_
  _space_group_symop_operation_xyz
  'x, y, z'

loop_
  _atom_site_type_symbol
  _atom_site_label
  _atom_site_symmetry_multiplicity
  _atom_site_fract_x
  _atom_site_fract_y
  _atom_site_fract_z
  _atom_site_occupancy
  Sr  Sr1       1.0  0.2500000173018693  0.24999999007688195  0.2499999663293132  1.0000
  Sr  Sr2       1.0  0.7499999955939172  0.7499999916989736  0.7499999815166526  1.0000
  Ba  Ba1       1.0  0.9999999978977921  0.9999999585967945  9.562414656813821e-08  1.0000
  Te  Te1       1.0  0.287721986146152  0.2877219774143898  0.7122780534838808  1.0000
  Te  Te2       1.0  0.7122780541011394  0.7122780610991915  0.28772198753976663  1.0000
  Te  Te3       1.0  0.7122780164414019  0.28772197050540554  0.28772196669866695  1.0000
  Te  Te4       1.0  0.28772204146315555  0.7122779760010535  0.7122779862940783  1.0000
  Te  Te5       1.0  0.28772193471612306  0.7122780583291366  0.28772194513584193  1.0000
  Te  Te6       1.0  0.7122779539601671  0.2877220185207442  0.7122780110225667  1.0000
