data_image0
_chemical_formula_structural       Sr2BaO6
_chemical_formula_sum              "Sr2 Ba1 O6"
_cell_length_a       5.755301569549568
_cell_length_b       5.755301624937213
_cell_length_c       5.755301464758853
_cell_angle_alpha    60.0000003011998
_cell_angle_beta     59.99999988686061
_cell_angle_gamma    59.999999716929814

_space_group_name_H-M_alt    "P 1"
_space_group_IT_number       1

loop_
  _space_group_symop_operation_xyz
  'x, y, z'

loop_
  _atom_site_type_symbol
  _atom_site_label
  _atom_site_symmetry_multiplicity
  _atom_site_fract_x
  _atom_site_fract_y
  _atom_site_fract_z
  _atom_site_occupancy
  Sr  Sr1       1.0  0.25000001437520447  0.2500000179652707  0.24999998436925813  1.0000
  Sr  Sr2       1.0  0.7500000341684433  0.7500000326155222  0.7499999942894313  1.0000
  Ba  Ba1       1.0  0.9999999806669738  0.9999999616954781  9.310732677410673e-08  1.0000
  O   O1        1.0  0.291983400971171  0.29198344400318693  0.7080165598400499  1.0000
  O   O2        1.0  0.7080165832692545  0.7080165767852008  0.2919833842026166  1.0000
  O   O3        1.0  0.7080165859601146  0.29198337409756814  0.29198345437693307  1.0000
  O   O4        1.0  0.2919834086979287  0.7080165913620656  0.7080165659846834  1.0000
  O   O5        1.0  0.2919833859479558  0.7080166144391314  0.2919833806506492  1.0000
  O   O6        1.0  0.7080166127018567  0.2919833871969954  0.7080165831387388  1.0000
