data_image0
_chemical_formula_structural       Sr2BeSe6
_chemical_formula_sum              "Sr2 Be1 Se6"
_cell_length_a       6.458798928139423
_cell_length_b       6.4587994106884405
_cell_length_c       6.458799122768939
_cell_angle_alpha    59.999999464796026
_cell_angle_beta     59.99999920851694
_cell_angle_gamma    60.00000092018911

_space_group_name_H-M_alt    "P 1"
_space_group_IT_number       1

loop_
  _space_group_symop_operation_xyz
  'x, y, z'

loop_
  _atom_site_type_symbol
  _atom_site_label
  _atom_site_symmetry_multiplicity
  _atom_site_fract_x
  _atom_site_fract_y
  _atom_site_fract_z
  _atom_site_occupancy
  Sr  Sr1       1.0  0.25000000869765915  0.2500000178541039  0.24999996452110845  1.0000
  Sr  Sr2       1.0  0.750000011610938  0.7500000004675258  0.749999998572409  1.0000
  Be  Be1       1.0  0.9999999571827739  2.6547390024396542e-08  9.948316804141755e-08  1.0000
  Se  Se1       1.0  0.2443687162810212  0.244368754269262  0.7556312857360024  1.0000
  Se  Se2       1.0  0.7556312852634433  0.7556313417983002  0.24436872528038533  1.0000
  Se  Se3       1.0  0.7556313680976595  0.24436861097549226  0.2443686294922638  1.0000
  Se  Se4       1.0  0.24436877663781859  0.7556311949670018  0.755631297067062  1.0000
  Se  Se5       1.0  0.24436862142412444  0.7556313302680177  0.24436868726501446  1.0000
  Se  Se6       1.0  0.755631249738391  0.24436872787470054  0.755631318104795  1.0000
