data_image0
_chemical_formula_structural       Sr2BeTe6
_chemical_formula_sum              "Sr2 Be1 Te6"
_cell_length_a       7.282489118305119
_cell_length_b       7.282488859192668
_cell_length_c       7.282488906360982
_cell_angle_alpha    60.00000079517532
_cell_angle_beta     60.000000289766035
_cell_angle_gamma    59.999998470504266

_space_group_name_H-M_alt    "P 1"
_space_group_IT_number       1

loop_
  _space_group_symop_operation_xyz
  'x, y, z'

loop_
  _atom_site_type_symbol
  _atom_site_label
  _atom_site_symmetry_multiplicity
  _atom_site_fract_x
  _atom_site_fract_y
  _atom_site_fract_z
  _atom_site_occupancy
  Sr  Sr1       1.0  0.24999997285511527  0.2500000262710273  0.25000000200906736  1.0000
  Sr  Sr2       1.0  0.7500000037720377  0.7499999896794338  0.7499999489449318  1.0000
  Be  Be1       1.0  0.9999999467138759  5.045300729856065e-08  0.9999999588486946  1.0000
  Te  Te1       1.0  0.23292683245684168  0.23292690243963615  0.7670731130464005  1.0000
  Te  Te2       1.0  0.767073179245544  0.7670731034202244  0.23292691878995267  1.0000
  Te  Te3       1.0  0.7670731038090843  0.23292689535173117  0.2329268545707206  1.0000
  Te  Te4       1.0  0.2329269015509612  0.7670731105081297  0.7670731873025871  1.0000
  Te  Te5       1.0  0.23292689155193935  0.7670730609933196  0.23292686956526848  1.0000
  Te  Te6       1.0  0.7670731607683942  0.23292686582349542  0.7670731499010238  1.0000
