data_image0
_chemical_formula_structural       Sr2BeO6
_chemical_formula_sum              "Sr2 Be1 O6"
_cell_length_a       5.457547595961678
_cell_length_b       5.4575478607353105
_cell_length_c       5.457547634550006
_cell_angle_alpha    59.99999998953111
_cell_angle_beta     59.999998534600685
_cell_angle_gamma    60.00000091586088

_space_group_name_H-M_alt    "P 1"
_space_group_IT_number       1

loop_
  _space_group_symop_operation_xyz
  'x, y, z'

loop_
  _atom_site_type_symbol
  _atom_site_label
  _atom_site_symmetry_multiplicity
  _atom_site_fract_x
  _atom_site_fract_y
  _atom_site_fract_z
  _atom_site_occupancy
  Sr  Sr1       1.0  0.2500000227657299  0.24999997704634414  0.25000003047060687  1.0000
  Sr  Sr2       1.0  0.750000040535279  0.7499999446038161  0.7499999299865007  1.0000
  Be  Be1       1.0  0.9999998835216434  1.9075107301716521e-07  2.633649117830688e-07  1.0000
  O   O1        1.0  0.21694015734991573  0.21694005624892648  0.7830598954121788  1.0000
  O   O2        1.0  0.7830598928090566  0.783059777880151  0.21694015385531074  1.0000
  O   O3        1.0  0.7830599008709198  0.21694014023801308  0.21694012177140135  1.0000
  O   O4        1.0  0.21694023485818636  0.7830597926327998  0.7830597400592609  1.0000
  O   O5        1.0  0.21694009744722084  0.7830599783943916  0.2169400616200864  1.0000
  O   O6        1.0  0.7830597624998444  0.2169401407392364  0.7830598284792663  1.0000
