data_image0
_chemical_formula_structural       Sr2CrO6
_chemical_formula_sum              "Sr2 Cr1 O6"
_cell_length_a       5.569287056587942
_cell_length_b       5.569286706537952
_cell_length_c       5.56928627585275
_cell_angle_alpha    60.000002259822594
_cell_angle_beta     60.00000080964482
_cell_angle_gamma    59.999999909902385

_space_group_name_H-M_alt    "P 1"
_space_group_IT_number       1

loop_
  _space_group_symop_operation_xyz
  'x, y, z'

loop_
  _atom_site_type_symbol
  _atom_site_label
  _atom_site_symmetry_multiplicity
  _atom_site_fract_x
  _atom_site_fract_y
  _atom_site_fract_z
  _atom_site_occupancy
  Sr  Sr1       1.0  0.24999999720653585  0.2499999768943913  0.25000000373080306  1.0000
  Sr  Sr2       1.0  0.7500000086662147  0.7499999790634934  0.7500000107990653  1.0000
  Cr  Cr1       1.0  1.224131586095783e-07  0.9999998504608326  9.615886305389087e-08  1.0000
  O   O1        1.0  0.23295118655379338  0.23295142220736356  0.767048717829194  1.0000
  O   O2        1.0  0.7670487522786114  0.7670486788914782  0.23295123789918581  1.0000
  O   O3        1.0  0.7670488287692645  0.23295126779934236  0.232951141744801  1.0000
  O   O4        1.0  0.2329512156596529  0.7670486595701717  0.7670488390721728  1.0000
  O   O5        1.0  0.2329512248908399  0.76704873721725  0.23295125195011068  1.0000
  O   O6        1.0  0.7670487200358062  0.23295137047890765  0.7670486615212461  1.0000
