data_image0
_chemical_formula_structural       Sr2CO6
_chemical_formula_sum              "Sr2 C1 O6"
_cell_length_a       5.130127210406363
_cell_length_b       5.130127272580083
_cell_length_c       5.130127263562007
_cell_angle_alpha    59.99999810018122
_cell_angle_beta     59.999999780663806
_cell_angle_gamma    59.99999757075284

_space_group_name_H-M_alt    "P 1"
_space_group_IT_number       1

loop_
  _space_group_symop_operation_xyz
  'x, y, z'

loop_
  _atom_site_type_symbol
  _atom_site_label
  _atom_site_symmetry_multiplicity
  _atom_site_fract_x
  _atom_site_fract_y
  _atom_site_fract_z
  _atom_site_occupancy
  Sr  Sr1       1.0  0.2500000228325976  0.25000001569994473  0.250000006159452  1.0000
  Sr  Sr2       1.0  0.75000001952584  0.750000018451544  0.7499999812669721  1.0000
  C   C1        1.0  1.126776574283242e-07  0.9999999928379256  0.9999999082568211  1.0000
  O   O1        1.0  0.2160982923618451  0.21609825268480554  0.7839017393803813  1.0000
  O   O2        1.0  0.7839016638763688  0.7839016549367246  0.2160983602189437  1.0000
  O   O3        1.0  0.7839016555900115  0.21609833926118754  0.21609833086338506  1.0000
  O   O4        1.0  0.2160983267920062  0.7839016925029435  0.783901734527393  1.0000
  O   O5        1.0  0.21609825133842736  0.7839017411810897  0.21609824122832091  1.0000
  O   O6        1.0  0.7839017068072579  0.21609830251983256  0.7839017328487584  1.0000
