data_image0
_chemical_formula_structural       Sr2CdTe6
_chemical_formula_sum              "Sr2 Cd1 Te6"
_cell_length_a       7.539321898694145
_cell_length_b       7.539321750175559
_cell_length_c       7.539321765105153
_cell_angle_alpha    60.00000032600549
_cell_angle_beta     60.00000026526318
_cell_angle_gamma    60.00000135425057

_space_group_name_H-M_alt    "P 1"
_space_group_IT_number       1

loop_
  _space_group_symop_operation_xyz
  'x, y, z'

loop_
  _atom_site_type_symbol
  _atom_site_label
  _atom_site_symmetry_multiplicity
  _atom_site_fract_x
  _atom_site_fract_y
  _atom_site_fract_z
  _atom_site_occupancy
  Sr  Sr1       1.0  0.2500000131370397  0.24999997161326606  0.2500000127252526  1.0000
  Sr  Sr2       1.0  0.7500000265692414  0.7499999993125595  0.7499999798118687  1.0000
  Cd  Cd1       1.0  2.7921221686202474e-08  1.689455246428476e-07  6.603765511781845e-08  1.0000
  Te  Te1       1.0  0.27407892875855727  0.2740788786848416  0.7259210639143724  1.0000
  Te  Te2       1.0  0.7259210018054295  0.7259210061437441  0.27407897318734575  1.0000
  Te  Te3       1.0  0.7259210783125001  0.27407886545876836  0.27407890611814506  1.0000
  Te  Te4       1.0  0.27407901648524435  0.7259210274922009  0.7259210341944681  1.0000
  Te  Te5       1.0  0.27407895515080666  0.7259210964158936  0.2740788427156696  1.0000
  Te  Te6       1.0  0.7259209590887205  0.274078975227453  0.7259211330157254  1.0000
