data_image0
_chemical_formula_structural       Sr2CrSe6
_chemical_formula_sum              "Sr2 Cr1 Se6"
_cell_length_a       6.688484602086671
_cell_length_b       6.688484797874385
_cell_length_c       6.688484472910028
_cell_angle_alpha    60.000002509978565
_cell_angle_beta     60.00000118064758
_cell_angle_gamma    59.999998432846176

_space_group_name_H-M_alt    "P 1"
_space_group_IT_number       1

loop_
  _space_group_symop_operation_xyz
  'x, y, z'

loop_
  _atom_site_type_symbol
  _atom_site_label
  _atom_site_symmetry_multiplicity
  _atom_site_fract_x
  _atom_site_fract_y
  _atom_site_fract_z
  _atom_site_occupancy
  Sr  Sr1       1.0  0.25000002893784107  0.2500000058841727  0.2500000037895821  1.0000
  Sr  Sr2       1.0  0.7499999697504064  0.7499999700432846  0.7500000054936073  1.0000
  Cr  Cr1       1.0  8.038980329302646e-08  6.958272810812029e-08  0.9999998786654178  1.0000
  Se  Se1       1.0  0.25980018097988716  0.259800147723478  0.7401998380495184  1.0000
  Se  Se2       1.0  0.7401997756643653  0.7401998300351055  0.25980019582542613  1.0000
  Se  Se3       1.0  0.7401998486950193  0.25980007907022906  0.2598002050060617  1.0000
  Se  Se4       1.0  0.2598001426687293  0.7401999188307229  0.7401998133988069  1.0000
  Se  Se5       1.0  0.25980010552159577  0.7401998929242414  0.25980015752049074  1.0000
  Se  Se6       1.0  0.7401998655442384  0.2598000830032174  0.7401999074369007  1.0000
