data_image0
_chemical_formula_structural       Sr2CdO6
_chemical_formula_sum              "Sr2 Cd1 O6"
_cell_length_a       5.53771127989394
_cell_length_b       5.537711521690736
_cell_length_c       5.5377113891281375
_cell_angle_alpha    59.99999572720491
_cell_angle_beta     59.999997541268776
_cell_angle_gamma    59.99999776085226

_space_group_name_H-M_alt    "P 1"
_space_group_IT_number       1

loop_
  _space_group_symop_operation_xyz
  'x, y, z'

loop_
  _atom_site_type_symbol
  _atom_site_label
  _atom_site_symmetry_multiplicity
  _atom_site_fract_x
  _atom_site_fract_y
  _atom_site_fract_z
  _atom_site_occupancy
  Sr  Sr1       1.0  0.24999987241715987  0.2500001274482252  0.2500000133484633  1.0000
  Sr  Sr2       1.0  0.7499999741353801  0.7500000373281345  0.7499999871609148  1.0000
  Cd  Cd1       1.0  0.9999999595182875  8.84656694827681e-09  2.3793099016169587e-07  1.0000
  O   O1        1.0  0.27942129741562916  0.2794215733933521  0.7205784707883209  1.0000
  O   O2        1.0  0.7205786091873686  0.720578467530928  0.2794213106156525  1.0000
  O   O3        1.0  0.7205786126792255  0.2794214519889757  0.2794213067368816  1.0000
  O   O4        1.0  0.2794212877730809  0.720578619898309  0.7205788288383624  1.0000
  O   O5        1.0  0.27942143765259536  0.720578613464663  0.2794211726309394  1.0000
  O   O6        1.0  0.7205788738543296  0.2794211886019998  0.7205787135530972  1.0000
