data_image0
_chemical_formula_structural       Sr2CuTe6
_chemical_formula_sum              "Sr2 Cu1 Te6"
_cell_length_a       7.254286536457769
_cell_length_b       7.254286261194763
_cell_length_c       7.254286611095345
_cell_angle_alpha    59.999997075295774
_cell_angle_beta     59.99999690811245
_cell_angle_gamma    59.999996056356764

_space_group_name_H-M_alt    "P 1"
_space_group_IT_number       1

loop_
  _space_group_symop_operation_xyz
  'x, y, z'

loop_
  _atom_site_type_symbol
  _atom_site_label
  _atom_site_symmetry_multiplicity
  _atom_site_fract_x
  _atom_site_fract_y
  _atom_site_fract_z
  _atom_site_occupancy
  Sr  Sr1       1.0  0.2499999994688525  0.2500000133729221  0.24999997545496006  1.0000
  Sr  Sr2       1.0  0.7499999666681243  0.7500000350538507  0.7500000398827308  1.0000
  Cu  Cu1       1.0  2.4775532046089117e-08  6.41555973326649e-08  0.999999904530108  1.0000
  Te  Te1       1.0  0.2658062127218765  0.2658061114503488  0.734193822673018  1.0000
  Te  Te2       1.0  0.7341938647575664  0.7341939133401498  0.2658061046997253  1.0000
  Te  Te3       1.0  0.7341938841137923  0.26580598219136276  0.2658062415552268  1.0000
  Te  Te4       1.0  0.26580605277864017  0.7341939581838779  0.7341938672434197  1.0000
  Te  Te5       1.0  0.2658060476566057  0.7341938979040479  0.2658061793926062  1.0000
  Te  Te6       1.0  0.7341939576010604  0.26580601883491933  0.7341938629297092  1.0000
