data_image0
_chemical_formula_structural       Sr2CrTe6
_chemical_formula_sum              "Sr2 Cr1 Te6"
_cell_length_a       7.320177979922673
_cell_length_b       7.320177816666329
_cell_length_c       7.320178050748874
_cell_angle_alpha    59.99999765793282
_cell_angle_beta     59.999998815602424
_cell_angle_gamma    60.00000054043841

_space_group_name_H-M_alt    "P 1"
_space_group_IT_number       1

loop_
  _space_group_symop_operation_xyz
  'x, y, z'

loop_
  _atom_site_type_symbol
  _atom_site_label
  _atom_site_symmetry_multiplicity
  _atom_site_fract_x
  _atom_site_fract_y
  _atom_site_fract_z
  _atom_site_occupancy
  Sr  Sr1       1.0  0.2500000164330591  0.2500000407921054  0.24999998981721272  1.0000
  Sr  Sr2       1.0  0.7500000202550176  0.7499999634310451  0.749999967820266  1.0000
  Cr  Cr1       1.0  0.9999999700454101  0.9999999715571609  5.6520454807965027e-08  1.0000
  Te  Te1       1.0  0.26160709062605064  0.2616071025686758  0.7383928853915002  1.0000
  Te  Te2       1.0  0.7383929689742712  0.7383929133662324  0.261607057666151  1.0000
  Te  Te3       1.0  0.7383928904024808  0.2616070456282149  0.26160714009800673  1.0000
  Te  Te4       1.0  0.2616071047641872  0.7383928749395281  0.7383929211104912  1.0000
  Te  Te5       1.0  0.26160709114010416  0.7383929188051169  0.2616071002615633  1.0000
  Te  Te6       1.0  0.7383928536419507  0.26160716238100473  0.7383928839726586  1.0000
