data_image0
_chemical_formula_structural       Sr2CuO6
_chemical_formula_sum              "Sr2 Cu1 O6"
_cell_length_a       5.594405890931894
_cell_length_b       5.594405367840154
_cell_length_c       5.5944059565774795
_cell_angle_alpha    60.00000122342881
_cell_angle_beta     59.999999957676586
_cell_angle_gamma    59.99999805024518

_space_group_name_H-M_alt    "P 1"
_space_group_IT_number       1

loop_
  _space_group_symop_operation_xyz
  'x, y, z'

loop_
  _atom_site_type_symbol
  _atom_site_label
  _atom_site_symmetry_multiplicity
  _atom_site_fract_x
  _atom_site_fract_y
  _atom_site_fract_z
  _atom_site_occupancy
  Sr  Sr1       1.0  0.2500000203344346  0.249999965800069  0.2499999238308739  1.0000
  Sr  Sr2       1.0  0.7500000113807153  0.7500000462679726  0.7500000972450144  1.0000
  Cu  Cu1       1.0  0.9999999488571757  4.816308779641799e-08  0.9999998692148784  1.0000
  O   O1        1.0  0.2358272659267467  0.235827191522254  0.7641727344135512  1.0000
  O   O2        1.0  0.7641728157221521  0.7641727636257609  0.23582718111798118  1.0000
  O   O3        1.0  0.7641728608364458  0.23582716736318715  0.23582716219623454  1.0000
  O   O4        1.0  0.23582710251540015  0.7641728578402449  0.7641728936436103  1.0000
  O   O5        1.0  0.23582714603056382  0.764172808460187  0.23582722718021573  1.0000
  O   O6        1.0  0.7641728439461919  0.23582715544476265  0.7641728728089117  1.0000
