data_image0
_chemical_formula_structural       Sr2CoO6
_chemical_formula_sum              "Sr2 Co1 O6"
_cell_length_a       5.633577251399146
_cell_length_b       5.6335768802127095
_cell_length_c       5.6335771821050535
_cell_angle_alpha    59.9999985066157
_cell_angle_beta     60.00000005315569
_cell_angle_gamma    59.999998156832426

_space_group_name_H-M_alt    "P 1"
_space_group_IT_number       1

loop_
  _space_group_symop_operation_xyz
  'x, y, z'

loop_
  _atom_site_type_symbol
  _atom_site_label
  _atom_site_symmetry_multiplicity
  _atom_site_fract_x
  _atom_site_fract_y
  _atom_site_fract_z
  _atom_site_occupancy
  Sr  Sr1       1.0  0.2500000599103026  0.24999998564392295  0.24999997157020204  1.0000
  Sr  Sr2       1.0  0.749999999316795  0.7500000308480883  0.74999999458557  1.0000
  Co  Co1       1.0  0.9999999362113904  1.3044057048545295e-08  1.8335360367259567e-07  1.0000
  O   O1        1.0  0.2240450988257518  0.22404506810716762  0.7759548787573458  1.0000
  O   O2        1.0  0.7759549008790891  0.7759548809905522  0.22404506742835867  1.0000
  O   O3        1.0  0.7759549275339804  0.22404512546554606  0.2240450622823208  1.0000
  O   O4        1.0  0.22404512204507548  0.7759548953744838  0.7759548834475382  1.0000
  O   O5        1.0  0.22404506947813008  0.7759549298474996  0.2240450633585154  1.0000
  O   O6        1.0  0.7759548924408807  0.22404510186257717  0.7759548781646368  1.0000
