data_image0
_chemical_formula_structural       Sr2CaTe6
_chemical_formula_sum              "Sr2 Ca1 Te6"
_cell_length_a       7.7075927866306095
_cell_length_b       7.70759281662213
_cell_length_c       7.707592772839026
_cell_angle_alpha    59.9999993589499
_cell_angle_beta     59.999999712324374
_cell_angle_gamma    59.99999971803312

_space_group_name_H-M_alt    "P 1"
_space_group_IT_number       1

loop_
  _space_group_symop_operation_xyz
  'x, y, z'

loop_
  _atom_site_type_symbol
  _atom_site_label
  _atom_site_symmetry_multiplicity
  _atom_site_fract_x
  _atom_site_fract_y
  _atom_site_fract_z
  _atom_site_occupancy
  Sr  Sr1       1.0  0.24999990650542758  0.2500000602914031  0.24999996683993642  1.0000
  Sr  Sr2       1.0  0.7500000853362406  0.750000009261034  0.7499999591070516  1.0000
  Ca  Ca1       1.0  0.9999999632580788  0.9999999888769233  9.010101821041803e-08  1.0000
  Te  Te1       1.0  0.2792182536497102  0.279218233626312  0.7207817703789141  1.0000
  Te  Te2       1.0  0.7207818124495927  0.7207817389964613  0.2792182252880764  1.0000
  Te  Te3       1.0  0.7207818181351299  0.27921818308517227  0.27921826622904905  1.0000
  Te  Te4       1.0  0.27921822307234445  0.7207817069090358  0.7207817689264975  1.0000
  Te  Te5       1.0  0.27921819957472216  0.7207818089984479  0.27921827132319205  1.0000
  Te  Te6       1.0  0.7207817285430242  0.27921827644409775  0.7207816850278123  1.0000
