data_image0
_chemical_formula_structural       Sr2CaS6
_chemical_formula_sum              "Sr2 Ca1 S6"
_cell_length_a       6.911230491301402
_cell_length_b       6.911230671928762
_cell_length_c       6.911230107900752
_cell_angle_alpha    60.00000320375176
_cell_angle_beta     60.00000269280596
_cell_angle_gamma    59.99999630731348

_space_group_name_H-M_alt    "P 1"
_space_group_IT_number       1

loop_
  _space_group_symop_operation_xyz
  'x, y, z'

loop_
  _atom_site_type_symbol
  _atom_site_label
  _atom_site_symmetry_multiplicity
  _atom_site_fract_x
  _atom_site_fract_y
  _atom_site_fract_z
  _atom_site_occupancy
  Sr  Sr1       1.0  0.2500000554931788  0.25000001713058945  0.24999993964493042  1.0000
  Sr  Sr2       1.0  0.7500000629446075  0.7499999610142576  0.7500000461138482  1.0000
  Ca  Ca1       1.0  1.6001931980999896e-07  1.3645231953188084e-07  0.9999995348886089  1.0000
  S   S1        1.0  0.2763065758374276  0.2763065445599866  0.7236935138478517  1.0000
  S   S2        1.0  0.7236933778524199  0.7236934867481178  0.27630653927862997  1.0000
  S   S3        1.0  0.723693481419322  0.27630645597829023  0.2763066374960626  1.0000
  S   S4        1.0  0.27630642248656273  0.7236934991291653  0.7236935379464619  1.0000
  S   S5        1.0  0.2763064529454757  0.7236934111892189  0.27630663965277263  1.0000
  S   S6        1.0  0.7236934216135674  0.276306476578127  0.7236936087308743  1.0000
