data_image0
_chemical_formula_structural       Sr2CdSe6
_chemical_formula_sum              "Sr2 Cd1 Se6"
_cell_length_a       6.896971249690816
_cell_length_b       6.896970858427853
_cell_length_c       6.89697137259009
_cell_angle_alpha    60.00000033731657
_cell_angle_beta     59.99999883396695
_cell_angle_gamma    60.00000242375108

_space_group_name_H-M_alt    "P 1"
_space_group_IT_number       1

loop_
  _space_group_symop_operation_xyz
  'x, y, z'

loop_
  _atom_site_type_symbol
  _atom_site_label
  _atom_site_symmetry_multiplicity
  _atom_site_fract_x
  _atom_site_fract_y
  _atom_site_fract_z
  _atom_site_occupancy
  Sr  Sr1       1.0  0.2499999765488724  0.24999996147049533  0.25000002703529395  1.0000
  Sr  Sr2       1.0  0.7499999835405747  0.7500000140428543  0.7500000270409276  1.0000
  Cd  Cd1       1.0  2.5130633862930453e-08  0.9999999698118731  0.9999999488820102  1.0000
  Se  Se1       1.0  0.27979216790854133  0.2797922150371395  0.7202077882117578  1.0000
  Se  Se2       1.0  0.7202077958165843  0.7202077746823858  0.27979222214565447  1.0000
  Se  Se3       1.0  0.7202078009758393  0.27979216232098336  0.2797922124461492  1.0000
  Se  Se4       1.0  0.2797921797612512  0.7202078717928471  0.7202078063557468  1.0000
  Se  Se5       1.0  0.279792218033107  0.7202078550612158  0.2797921354493959  1.0000
  Se  Se6       1.0  0.720207859521142  0.2797921648464408  0.7202078231981541  1.0000
