data_image0
_chemical_formula_structural       Sr2CrS6
_chemical_formula_sum              "Sr2 Cr1 S6"
_cell_length_a       6.335704505197395
_cell_length_b       6.335705204201447
_cell_length_c       6.335704606731782
_cell_angle_alpha    60.00000299920662
_cell_angle_beta     60.00000344480217
_cell_angle_gamma    60.000003448021054

_space_group_name_H-M_alt    "P 1"
_space_group_IT_number       1

loop_
  _space_group_symop_operation_xyz
  'x, y, z'

loop_
  _atom_site_type_symbol
  _atom_site_label
  _atom_site_symmetry_multiplicity
  _atom_site_fract_x
  _atom_site_fract_y
  _atom_site_fract_z
  _atom_site_occupancy
  Sr  Sr1       1.0  0.24999998276223118  0.2500000131015647  0.24999999303616016  1.0000
  Sr  Sr2       1.0  0.7499999866893253  0.7500000006430203  0.7500000139618439  1.0000
  Cr  Cr1       1.0  0.9999998335401931  1.2758352088712203e-07  1.1098280988229341e-07  1.0000
  S   S1        1.0  0.25226203443893835  0.25226188869053223  0.7477380052626167  1.0000
  S   S2        1.0  0.7477380628486859  0.747738047730707  0.25226190071792254  1.0000
  S   S3        1.0  0.7477380785216217  0.252261955943752  0.25226187575369297  1.0000
  S   S4        1.0  0.25226189153635903  0.7477381215925948  0.7477380438027434  1.0000
  S   S5        1.0  0.2522620245282303  0.7477379692644143  0.2522619438895677  1.0000
  S   S6        1.0  0.7477381117337689  0.2522618666364731  0.7477380812519202  1.0000
