data_image0
_chemical_formula_structural       Sr2FeS6
_chemical_formula_sum              "Sr2 Fe1 S6"
_cell_length_a       6.359114397945313
_cell_length_b       6.359114199802084
_cell_length_c       6.359114686274803
_cell_angle_alpha    59.999995224467
_cell_angle_beta     59.999996017879724
_cell_angle_gamma    59.99999836279535

_space_group_name_H-M_alt    "P 1"
_space_group_IT_number       1

loop_
  _space_group_symop_operation_xyz
  'x, y, z'

loop_
  _atom_site_type_symbol
  _atom_site_label
  _atom_site_symmetry_multiplicity
  _atom_site_fract_x
  _atom_site_fract_y
  _atom_site_fract_z
  _atom_site_occupancy
  Sr  Sr1       1.0  0.24999993967636797  0.25000000492318303  0.2500000229930831  1.0000
  Sr  Sr2       1.0  0.7500000212270894  0.7500000128435851  0.7499999908588778  1.0000
  Fe  Fe1       1.0  4.1342161154000856e-08  0.9999999903701614  1.24496650921436e-08  1.0000
  S   S1        1.0  0.24460050638179615  0.24460046318745504  0.7553995259332219  1.0000
  S   S2        1.0  0.7553995171029215  0.7553995738389931  0.24460040768461888  1.0000
  S   S3        1.0  0.755399448759519  0.24460045535344246  0.2446004800941136  1.0000
  S   S4        1.0  0.24460051025576712  0.7553995027083236  0.7553995488289754  1.0000
  S   S5        1.0  0.24460048772159693  0.7553995051386034  0.24460049324827604  1.0000
  S   S6        1.0  0.7553994822798563  0.2446004798867113  0.7553995780292463  1.0000
