data_image0
_chemical_formula_structural       Sr2FeO6
_chemical_formula_sum              "Sr2 Fe1 O6"
_cell_length_a       5.617116388042416
_cell_length_b       5.617116822561878
_cell_length_c       5.617116092046894
_cell_angle_alpha    60.000001366935045
_cell_angle_beta     60.00000218499931
_cell_angle_gamma    60.00000010930822

_space_group_name_H-M_alt    "P 1"
_space_group_IT_number       1

loop_
  _space_group_symop_operation_xyz
  'x, y, z'

loop_
  _atom_site_type_symbol
  _atom_site_label
  _atom_site_symmetry_multiplicity
  _atom_site_fract_x
  _atom_site_fract_y
  _atom_site_fract_z
  _atom_site_occupancy
  Sr  Sr1       1.0  0.2499999346973386  0.24999994219359947  0.24999995963670715  1.0000
  Sr  Sr2       1.0  0.7500001120060488  0.7499999574035695  0.7500000743453216  1.0000
  Fe  Fe1       1.0  0.9999999012416833  1.4826583516256793e-07  0.9999999645645993  1.0000
  O   O1        1.0  0.22979883901144932  0.22979879497376526  0.7702011498285273  1.0000
  O   O2        1.0  0.7702011771024319  0.7702013073987366  0.22979871972857244  1.0000
  O   O3        1.0  0.7702011619145456  0.2297987188764207  0.22979883688419592  1.0000
  O   O4        1.0  0.22979890549175513  0.7702011371131493  0.7702012263529066  1.0000
  O   O5        1.0  0.22979887525820686  0.7702011712591401  0.22979878117535255  1.0000
  O   O6        1.0  0.7702010976472342  0.22979878938866694  0.7702012752027855  1.0000
