data_image0
_chemical_formula_structural       Sr2FeTe6
_chemical_formula_sum              "Sr2 Fe1 Te6"
_cell_length_a       7.283195271714447
_cell_length_b       7.283195615769705
_cell_length_c       7.283195068703094
_cell_angle_alpha    59.99999935997502
_cell_angle_beta     60.00000361702927
_cell_angle_gamma    59.99999501029427

_space_group_name_H-M_alt    "P 1"
_space_group_IT_number       1

loop_
  _space_group_symop_operation_xyz
  'x, y, z'

loop_
  _atom_site_type_symbol
  _atom_site_label
  _atom_site_symmetry_multiplicity
  _atom_site_fract_x
  _atom_site_fract_y
  _atom_site_fract_z
  _atom_site_occupancy
  Sr  Sr1       1.0  0.24999997105729416  0.24999995720854737  0.2500000605450105  1.0000
  Sr  Sr2       1.0  0.7500000017608404  0.7500000481940328  0.7499999831512134  1.0000
  Fe  Fe1       1.0  0.9999999766663895  3.195047437237279e-08  0.9999999627389962  1.0000
  Te  Te1       1.0  0.23478816516214157  0.23478801675293334  0.7652118768783556  1.0000
  Te  Te2       1.0  0.7652118659322522  0.7652120088288931  0.23478801362914306  1.0000
  Te  Te3       1.0  0.7652118054371209  0.23478814210910573  0.23478815322960078  1.0000
  Te  Te4       1.0  0.2347881712882553  0.7652118801095105  0.765211910311507  1.0000
  Te  Te5       1.0  0.23478811832891217  0.7652118958923576  0.2347880169272965  1.0000
  Te  Te6       1.0  0.7652119094682883  0.23478802543003133  0.7652120426925171  1.0000
