data_image0
_chemical_formula_structural       Sr2GeTe6
_chemical_formula_sum              "Sr2 Ge1 Te6"
_cell_length_a       7.4505529202774765
_cell_length_b       7.450552916624459
_cell_length_c       7.45055300569505
_cell_angle_alpha    60.000000444286236
_cell_angle_beta     60.00000103050959
_cell_angle_gamma    59.99999995711518

_space_group_name_H-M_alt    "P 1"
_space_group_IT_number       1

loop_
  _space_group_symop_operation_xyz
  'x, y, z'

loop_
  _atom_site_type_symbol
  _atom_site_label
  _atom_site_symmetry_multiplicity
  _atom_site_fract_x
  _atom_site_fract_y
  _atom_site_fract_z
  _atom_site_occupancy
  Sr  Sr1       1.0  0.2500000094327978  0.24999994355438235  0.2500000515336611  1.0000
  Sr  Sr2       1.0  0.749999982443022  0.7499999868270769  0.7499999826768488  1.0000
  Ge  Ge1       1.0  3.3940245510351016e-08  0.9999999539727366  1.0133844879139289e-07  1.0000
  Te  Te1       1.0  0.267714452138242  0.2677144716685468  0.732285536514815  1.0000
  Te  Te2       1.0  0.7322855203553964  0.7322855540551017  0.26771446508442065  1.0000
  Te  Te3       1.0  0.7322855270386059  0.267714496382224  0.2677144098117517  1.0000
  Te  Te4       1.0  0.2677144708000727  0.7322855276975931  0.7322855423557767  1.0000
  Te  Te5       1.0  0.2677144439339165  0.732285593146941  0.2677144224553745  1.0000
  Te  Te6       1.0  0.7322855596178447  0.2677144835354632  0.7322854884746792  1.0000
