data_image0
_chemical_formula_structural       Sr2GeO6
_chemical_formula_sum              "Sr2 Ge1 O6"
_cell_length_a       5.7518844102233055
_cell_length_b       5.751884723402009
_cell_length_c       5.7518841365059945
_cell_angle_alpha    59.99999944684269
_cell_angle_beta     60.00000084533144
_cell_angle_gamma    59.99999925217798

_space_group_name_H-M_alt    "P 1"
_space_group_IT_number       1

loop_
  _space_group_symop_operation_xyz
  'x, y, z'

loop_
  _atom_site_type_symbol
  _atom_site_label
  _atom_site_symmetry_multiplicity
  _atom_site_fract_x
  _atom_site_fract_y
  _atom_site_fract_z
  _atom_site_occupancy
  Sr  Sr1       1.0  0.2500000333180939  0.24999997369359167  0.2499999758285578  1.0000
  Sr  Sr2       1.0  0.7499999698692124  0.7500000403211919  0.7499999868033799  1.0000
  Ge  Ge1       1.0  1.4518830354112278e-08  1.0646465108043029e-08  0.9999999978487164  1.0000
  O   O1        1.0  0.2299142259435416  0.22991417960350838  0.7700858088656684  1.0000
  O   O2        1.0  0.7700857907292891  0.7700857939547026  0.22991422288573848  1.0000
  O   O3        1.0  0.770085757816339  0.2299142391155626  0.22991421341687102  1.0000
  O   O4        1.0  0.22991427586994412  0.7700857195375976  0.7700857772934382  1.0000
  O   O5        1.0  0.22991423048007237  0.7700857953382271  0.22991423459144048  1.0000
  O   O6        1.0  0.7700857367945887  0.22991424209877914  0.7700857986124556  1.0000
