data_image0
_chemical_formula_structural       Sr2HgTe6
_chemical_formula_sum              "Sr2 Hg1 Te6"
_cell_length_a       7.53808742474712
_cell_length_b       7.538087659559685
_cell_length_c       7.53808745698502
_cell_angle_alpha    60.00000030795714
_cell_angle_beta     59.99999884757421
_cell_angle_gamma    59.99999880276881

_space_group_name_H-M_alt    "P 1"
_space_group_IT_number       1

loop_
  _space_group_symop_operation_xyz
  'x, y, z'

loop_
  _atom_site_type_symbol
  _atom_site_label
  _atom_site_symmetry_multiplicity
  _atom_site_fract_x
  _atom_site_fract_y
  _atom_site_fract_z
  _atom_site_occupancy
  Sr  Sr1       1.0  0.2500000604303325  0.24999996234310515  0.2499999791724639  1.0000
  Sr  Sr2       1.0  0.7499999645129509  0.7500000088849801  0.7499999876317768  1.0000
  Hg  Hg1       1.0  6.4670836370536915e-09  3.574432700902447e-08  0.9999999682815229  1.0000
  Te  Te1       1.0  0.2751339180007663  0.2751337871777043  0.724866151133503  1.0000
  Te  Te2       1.0  0.7248661153900818  0.7248662230441921  0.2751338463405038  1.0000
  Te  Te3       1.0  0.724866111254091  0.27513380363455747  0.27513383378431433  1.0000
  Te  Te4       1.0  0.2751339203899449  0.7248661107275526  0.7248661939206419  1.0000
  Te  Te5       1.0  0.2751338409860895  0.7248661834603201  0.2751338176114512  1.0000
  Te  Te6       1.0  0.7248660591043888  0.2751338820028115  0.7248662268517021  1.0000
