data_image0
_chemical_formula_structural       Sr2HgO6
_chemical_formula_sum              "Sr2 Hg1 O6"
_cell_length_a       5.788038925245796
_cell_length_b       5.788039333609527
_cell_length_c       5.788038826690245
_cell_angle_alpha    60.00000312500751
_cell_angle_beta     60.00000344570574
_cell_angle_gamma    60.000000469022005

_space_group_name_H-M_alt    "P 1"
_space_group_IT_number       1

loop_
  _space_group_symop_operation_xyz
  'x, y, z'

loop_
  _atom_site_type_symbol
  _atom_site_label
  _atom_site_symmetry_multiplicity
  _atom_site_fract_x
  _atom_site_fract_y
  _atom_site_fract_z
  _atom_site_occupancy
  Sr  Sr1       1.0  0.2500000275556903  0.24999996114336642  0.24999994356874017  1.0000
  Sr  Sr2       1.0  0.7499999629856515  0.7500000569414939  0.7500000335754528  1.0000
  Hg  Hg1       1.0  1.8198900999074573e-07  0.9999998370685661  0.9999997969687127  1.0000
  O   O1        1.0  0.25271476700891643  0.25271491716968564  0.7472851454181707  1.0000
  O   O2        1.0  0.747285176600339  0.7472850861032275  0.25271491442906563  1.0000
  O   O3        1.0  0.7472851342920418  0.25271479753174425  0.25271492028612513  1.0000
  O   O4        1.0  0.2527147809829625  0.7472852967288509  0.7472851704316282  1.0000
  O   O5        1.0  0.2527147400603538  0.7472852267784219  0.2527148583025732  1.0000
  O   O6        1.0  0.7472851798096811  0.25271483574228465  0.7472851803349743  1.0000
