data_image0
_chemical_formula_structural       Sr2HgS6
_chemical_formula_sum              "Sr2 Hg1 S6"
_cell_length_a       6.621973360004946
_cell_length_b       6.621973526374758
_cell_length_c       6.621973786854946
_cell_angle_alpha    59.99999881763168
_cell_angle_beta     59.99999934867083
_cell_angle_gamma    60.00000016201856

_space_group_name_H-M_alt    "P 1"
_space_group_IT_number       1

loop_
  _space_group_symop_operation_xyz
  'x, y, z'

loop_
  _atom_site_type_symbol
  _atom_site_label
  _atom_site_symmetry_multiplicity
  _atom_site_fract_x
  _atom_site_fract_y
  _atom_site_fract_z
  _atom_site_occupancy
  Sr  Sr1       1.0  0.24999990162487765  0.25000007583306394  0.2499999654521473  1.0000
  Sr  Sr2       1.0  0.7500000442393737  0.7499999574697951  0.7499999447455807  1.0000
  Hg  Hg1       1.0  0.9999999929555576  0.9999999426649905  8.957442892362226e-08  1.0000
  S   S1        1.0  0.2662721223525054  0.2662721747914646  0.7337278762641015  1.0000
  S   S2        1.0  0.7337278879062367  0.7337278955017226  0.2662721538852036  1.0000
  S   S3        1.0  0.7337278553341535  0.26627212821218377  0.26627216503265827  1.0000
  S   S4        1.0  0.26627214543227  0.7337278607022808  0.7337278395763501  1.0000
  S   S5        1.0  0.26627219403516883  0.7337278090525082  0.2662721851827058  1.0000
  S   S6        1.0  0.7337278488983615  0.2662721632163087  0.7337277991149546  1.0000
