data_image0
_chemical_formula_structural       Sr2InO6
_chemical_formula_sum              "Sr2 In1 O6"
_cell_length_a       5.537957315939651
_cell_length_b       5.5379583285856215
_cell_length_c       5.537958231945643
_cell_angle_alpha    59.999986856506844
_cell_angle_beta     59.999982744522804
_cell_angle_gamma    59.99998472194516

_space_group_name_H-M_alt    "P 1"
_space_group_IT_number       1

loop_
  _space_group_symop_operation_xyz
  'x, y, z'

loop_
  _atom_site_type_symbol
  _atom_site_label
  _atom_site_symmetry_multiplicity
  _atom_site_fract_x
  _atom_site_fract_y
  _atom_site_fract_z
  _atom_site_occupancy
  Sr  Sr1       1.0  0.2500002573688939  0.25000030546692026  0.24999987516768638  1.0000
  Sr  Sr2       1.0  0.7500000632679377  0.749999708896685  0.7500001412733434  1.0000
  In  In1       1.0  0.9999996904672648  0.9999997213453264  0.9999993045593927  1.0000
  O   O1        1.0  0.2780093888767611  0.2780100231376076  0.7219903502036054  1.0000
  O   O2        1.0  0.7219909446028029  0.7219902654577489  0.2780092482307662  1.0000
  O   O3        1.0  0.7219901629501351  0.2780097732137976  0.27800993445147204  1.0000
  O   O4        1.0  0.2780093910940481  0.72199049547765  0.7219907101002504  1.0000
  O   O5        1.0  0.2780097859437218  0.7219898193782397  0.27801019991114506  1.0000
  O   O6        1.0  0.7219903337573275  0.27800961556026793  0.7219904522882751  1.0000
