data_image0
_chemical_formula_structural       Sr2InTe6
_chemical_formula_sum              "Sr2 In1 Te6"
_cell_length_a       7.584442004319254
_cell_length_b       7.584441841575642
_cell_length_c       7.584441775906819
_cell_angle_alpha    59.999999845996314
_cell_angle_beta     60.0000010981211
_cell_angle_gamma    59.99999890312238

_space_group_name_H-M_alt    "P 1"
_space_group_IT_number       1

loop_
  _space_group_symop_operation_xyz
  'x, y, z'

loop_
  _atom_site_type_symbol
  _atom_site_label
  _atom_site_symmetry_multiplicity
  _atom_site_fract_x
  _atom_site_fract_y
  _atom_site_fract_z
  _atom_site_occupancy
  Sr  Sr1       1.0  0.2500000074503667  0.24999998618540573  0.25000003445607927  1.0000
  Sr  Sr2       1.0  0.7500000155065941  0.7500000247635159  0.7499999431564701  1.0000
  In  In1       1.0  9.564828738882209e-09  3.068143076950353e-08  0.9999999719659386  1.0000
  Te  Te1       1.0  0.2708226347484172  0.2708226468389643  0.7291773485052074  1.0000
  Te  Te2       1.0  0.729177335922498  0.7291773382729635  0.2708226919016566  1.0000
  Te  Te3       1.0  0.7291773670436854  0.2708226113689987  0.2708226566993252  1.0000
  Te  Te4       1.0  0.2708226189441768  0.7291773688984926  0.7291773455090684  1.0000
  Te  Te5       1.0  0.27082261802133156  0.7291773519856593  0.2708226577050973  1.0000
  Te  Te6       1.0  0.7291773961702838  0.2708226395855168  0.729177349800861  1.0000
