data_image0
_chemical_formula_structural       Sr2InSe6
_chemical_formula_sum              "Sr2 In1 Se6"
_cell_length_a       7.039787400842825
_cell_length_b       7.039787224144208
_cell_length_c       7.039787476043919
_cell_angle_alpha    59.99999889671458
_cell_angle_beta     59.99999943895926
_cell_angle_gamma    59.999999658975185

_space_group_name_H-M_alt    "P 1"
_space_group_IT_number       1

loop_
  _space_group_symop_operation_xyz
  'x, y, z'

loop_
  _atom_site_type_symbol
  _atom_site_label
  _atom_site_symmetry_multiplicity
  _atom_site_fract_x
  _atom_site_fract_y
  _atom_site_fract_z
  _atom_site_occupancy
  Sr  Sr1       1.0  0.25000003634259393  0.24999997988994613  0.2500000047086892  1.0000
  Sr  Sr2       1.0  0.7499999719574781  0.7500000457944055  0.7499999784610286  1.0000
  In  In1       1.0  5.253383321594782e-09  0.9999999251908781  5.7505828072967816e-08  1.0000
  Se  Se1       1.0  0.27347444847358937  0.27347444491816275  0.7265255365570351  1.0000
  Se  Se2       1.0  0.726525575168641  0.7265255790264421  0.27347441424252317  1.0000
  Se  Se3       1.0  0.7265255410133721  0.27347443257037857  0.2734744585193919  1.0000
  Se  Se4       1.0  0.27347444278246036  0.7265255878947319  0.7265255565580356  1.0000
  Se  Se5       1.0  0.27347442768367  0.7265255819071209  0.2734744386611621  1.0000
  Se  Se6       1.0  0.7265255393287506  0.2734744298592543  0.7265255692703747  1.0000
