data_image0
_chemical_formula_structural       Sr2MgO6
_chemical_formula_sum              "Sr2 Mg1 O6"
_cell_length_a       5.32150250373122
_cell_length_b       5.321502339694057
_cell_length_c       5.321500748496113
_cell_angle_alpha    60.00000690042603
_cell_angle_beta     60.00000288451829
_cell_angle_gamma    60.00001050902406

_space_group_name_H-M_alt    "P 1"
_space_group_IT_number       1

loop_
  _space_group_symop_operation_xyz
  'x, y, z'

loop_
  _atom_site_type_symbol
  _atom_site_label
  _atom_site_symmetry_multiplicity
  _atom_site_fract_x
  _atom_site_fract_y
  _atom_site_fract_z
  _atom_site_occupancy
  Sr  Sr1       1.0  0.24999995676517534  0.2500002271906438  0.24999955567426516  1.0000
  Sr  Sr2       1.0  0.7500002160845506  0.7499999957244002  0.7500003159581586  1.0000
  Mg  Mg1       1.0  1.8715848630300105e-07  0.9999999332564614  0.9999998796591038  1.0000
  O   O1        1.0  0.26669327419831945  0.2666932130430816  0.73330652023092  1.0000
  O   O2        1.0  0.7333065783258556  0.7333067014706891  0.2666932861727754  1.0000
  O   O3        1.0  0.7333065557444493  0.2666930442344633  0.26669304363402546  1.0000
  O   O4        1.0  0.2666933688030968  0.7333068104402644  0.73330695962777  1.0000
  O   O5        1.0  0.266692893346685  0.733306878851936  0.2666930091069232  1.0000
  O   O6        1.0  0.7333070809763788  0.2666929827273  0.7333072664819195  1.0000
