data_image0
_chemical_formula_structural       Sr2MnO6
_chemical_formula_sum              "Sr2 Mn1 O6"
_cell_length_a       5.64333116773842
_cell_length_b       5.6433314087109
_cell_length_c       5.643331547571144
_cell_angle_alpha    60.00000379708743
_cell_angle_beta     59.99999990395779
_cell_angle_gamma    60.00000129012966

_space_group_name_H-M_alt    "P 1"
_space_group_IT_number       1

loop_
  _space_group_symop_operation_xyz
  'x, y, z'

loop_
  _atom_site_type_symbol
  _atom_site_label
  _atom_site_symmetry_multiplicity
  _atom_site_fract_x
  _atom_site_fract_y
  _atom_site_fract_z
  _atom_site_occupancy
  Sr  Sr1       1.0  0.24999998796505354  0.2500000813060629  0.24999978428251612  1.0000
  Sr  Sr2       1.0  0.7499999806615295  0.7499999726367875  0.7500001676421897  1.0000
  Mn  Mn1       1.0  0.9999998050180786  0.9999999956595047  2.0598138044950945e-07  1.0000
  O   O1        1.0  0.23259376337994675  0.2325940815334657  0.76740596401186  1.0000
  O   O2        1.0  0.7674061952039744  0.7674058552158016  0.23259394343878573  1.0000
  O   O3        1.0  0.7674062003434452  0.2325939055767345  0.2325939352930212  1.0000
  O   O4        1.0  0.23259402500375795  0.7674059552137358  0.7674060468676643  1.0000
  O   O5        1.0  0.23259395276653716  0.7674059901602786  0.23259407997602338  1.0000
  O   O6        1.0  0.7674061374896566  0.23259415927363777  0.7674058519884956  1.0000
