data_image0
_chemical_formula_structural       Sr2MgS6
_chemical_formula_sum              "Sr2 Mg1 S6"
_cell_length_a       6.449507603310037
_cell_length_b       6.449506337536983
_cell_length_c       6.449507814815414
_cell_angle_alpha    59.99999571730354
_cell_angle_beta     59.99999965083283
_cell_angle_gamma    59.99999555688135

_space_group_name_H-M_alt    "P 1"
_space_group_IT_number       1

loop_
  _space_group_symop_operation_xyz
  'x, y, z'

loop_
  _atom_site_type_symbol
  _atom_site_label
  _atom_site_symmetry_multiplicity
  _atom_site_fract_x
  _atom_site_fract_y
  _atom_site_fract_z
  _atom_site_occupancy
  Sr  Sr1       1.0  0.2500000374775857  0.25000003575785934  0.24999994348922228  1.0000
  Sr  Sr2       1.0  0.74999979125219  0.7500000503043354  0.7500001032698878  1.0000
  Mg  Mg1       1.0  3.276968439948182e-08  0.9999999715153781  0.9999999590948204  1.0000
  S   S1        1.0  0.2631023705093259  0.26310242432714137  0.7368977990100216  1.0000
  S   S2        1.0  0.7368976585433233  0.7368976408463433  0.2631024371230713  1.0000
  S   S3        1.0  0.7368974974251874  0.26310255065356647  0.26310225135663023  1.0000
  S   S4        1.0  0.26310252289282243  0.7368975031260555  0.7368975855071528  1.0000
  S   S5        1.0  0.2631025071530944  0.7368974753553226  0.2631023320662615  1.0000
  S   S6        1.0  0.7368975840599692  0.26310236573913187  0.7368976129047153  1.0000
