data_image0
_chemical_formula_structural       Sr2MnTe6
_chemical_formula_sum              "Sr2 Mn1 Te6"
_cell_length_a       7.216893254987579
_cell_length_b       7.216894721455413
_cell_length_c       7.216893895233909
_cell_angle_alpha    59.99999822461815
_cell_angle_beta     60.00000341478296
_cell_angle_gamma    59.99999948485909

_space_group_name_H-M_alt    "P 1"
_space_group_IT_number       1

loop_
  _space_group_symop_operation_xyz
  'x, y, z'

loop_
  _atom_site_type_symbol
  _atom_site_label
  _atom_site_symmetry_multiplicity
  _atom_site_fract_x
  _atom_site_fract_y
  _atom_site_fract_z
  _atom_site_occupancy
  Sr  Sr1       1.0  0.24999982379173427  0.2500000536673888  0.24999996055030144  1.0000
  Sr  Sr2       1.0  0.750000208735336  0.7499999217177141  0.7499999443815839  1.0000
  Mn  Mn1       1.0  5.032637353100366e-08  4.5820428950072176e-08  0.9999997814931666  1.0000
  Te  Te1       1.0  0.25451895834343496  0.25451952197951305  0.7454807384568047  1.0000
  Te  Te2       1.0  0.7454811513079472  0.7454803804323307  0.25451917132774915  1.0000
  Te  Te3       1.0  0.7454810781093965  0.2545189923716923  0.25451922054973525  1.0000
  Te  Te4       1.0  0.2545188744316598  0.745481122171694  0.7454808917400463  1.0000
  Te  Te5       1.0  0.25451876020067815  0.7454810970281837  0.25451939105696786  1.0000
  Te  Te6       1.0  0.7454810604641179  0.25451888514511334  0.7454808963107552  1.0000
