data_image0
_chemical_formula_structural       Sr2MnSe6
_chemical_formula_sum              "Sr2 Mn1 Se6"
_cell_length_a       6.7547403631351015
_cell_length_b       6.754740295717847
_cell_length_c       6.754740447866368
_cell_angle_alpha    59.99999926698743
_cell_angle_beta     59.99999922900428
_cell_angle_gamma    59.99999851678646

_space_group_name_H-M_alt    "P 1"
_space_group_IT_number       1

loop_
  _space_group_symop_operation_xyz
  'x, y, z'

loop_
  _atom_site_type_symbol
  _atom_site_label
  _atom_site_symmetry_multiplicity
  _atom_site_fract_x
  _atom_site_fract_y
  _atom_site_fract_z
  _atom_site_occupancy
  Sr  Sr1       1.0  0.24999999800939426  0.25000004138047294  0.2499999983186807  1.0000
  Sr  Sr2       1.0  0.7500000035443715  0.7500000135384424  0.7499999744382303  1.0000
  Mn  Mn1       1.0  9.983937639328096e-08  2.357112520911961e-08  0.9999999797471189  1.0000
  Se  Se1       1.0  0.24736039512061245  0.2473604622293405  0.7526395280651009  1.0000
  Se  Se2       1.0  0.7526395532856601  0.7526395110972156  0.24736043063743804  1.0000
  Se  Se3       1.0  0.7526395965938942  0.24736045351360691  0.24736039322369932  1.0000
  Se  Se4       1.0  0.24736034243547006  0.7526395633288745  0.7526396401967217  1.0000
  Se  Se5       1.0  0.2473604229616542  0.752639511811186  0.24736046414037002  1.0000
  Se  Se6       1.0  0.7526396079316108  0.24736040893362668  0.7526395906426783  1.0000
