data_image0
_chemical_formula_structural       Sr2MgTe6
_chemical_formula_sum              "Sr2 Mg1 Te6"
_cell_length_a       7.510485143908629
_cell_length_b       7.510484984477636
_cell_length_c       7.51048450924176
_cell_angle_alpha    60.00000234690323
_cell_angle_beta     59.99999927177896
_cell_angle_gamma    59.999996733228265

_space_group_name_H-M_alt    "P 1"
_space_group_IT_number       1

loop_
  _space_group_symop_operation_xyz
  'x, y, z'

loop_
  _atom_site_type_symbol
  _atom_site_label
  _atom_site_symmetry_multiplicity
  _atom_site_fract_x
  _atom_site_fract_y
  _atom_site_fract_z
  _atom_site_occupancy
  Sr  Sr1       1.0  0.24999985688593215  0.24999989690860452  0.25000034399121396  1.0000
  Sr  Sr2       1.0  0.7500000874065098  0.7500000315448789  0.7499997084405401  1.0000
  Mg  Mg1       1.0  6.533505743879158e-08  0.9999999331407473  1.1413871917193822e-08  1.0000
  Te  Te1       1.0  0.27328923327042964  0.2732890680037088  0.7267108120865301  1.0000
  Te  Te2       1.0  0.726710733942511  0.7267109485082988  0.27328924344048106  1.0000
  Te  Te3       1.0  0.7267108822963049  0.2732891434118819  0.2732893350497136  1.0000
  Te  Te4       1.0  0.2732890956467931  0.7267109285443804  0.7267106274738504  1.0000
  Te  Te5       1.0  0.2732891545106956  0.7267107956379929  0.2732891301307517  1.0000
  Te  Te6       1.0  0.7267108956153576  0.273289253488278  0.7267107890757202  1.0000
