data_image0
_chemical_formula_structural       Sr2MgSe6
_chemical_formula_sum              "Sr2 Mg1 Se6"
_cell_length_a       6.85887485670362
_cell_length_b       6.858874419044253
_cell_length_c       6.858874690418034
_cell_angle_alpha    59.99999751870083
_cell_angle_beta     60.00000143199899
_cell_angle_gamma    60.00000555564413

_space_group_name_H-M_alt    "P 1"
_space_group_IT_number       1

loop_
  _space_group_symop_operation_xyz
  'x, y, z'

loop_
  _atom_site_type_symbol
  _atom_site_label
  _atom_site_symmetry_multiplicity
  _atom_site_fract_x
  _atom_site_fract_y
  _atom_site_fract_z
  _atom_site_occupancy
  Sr  Sr1       1.0  0.24999997718857095  0.25000005922996626  0.2500000426988447  1.0000
  Sr  Sr2       1.0  0.7500000653481701  0.7500000187683643  0.7499999700841569  1.0000
  Mg  Mg1       1.0  2.2948589595136987e-07  0.9999999428596872  0.9999999444444774  1.0000
  Se  Se1       1.0  0.2713767385043708  0.271376785398192  0.7286232120897955  1.0000
  Se  Se2       1.0  0.7286231777193319  0.7286232068896323  0.2713767157115488  1.0000
  Se  Se3       1.0  0.7286232518439337  0.2713766659502148  0.27137663800925627  1.0000
  Se  Se4       1.0  0.2713764864700441  0.7286234156193635  0.728623323900316  1.0000
  Se  Se5       1.0  0.27137668459775127  0.7286232317224858  0.27137690515686835  1.0000
  Se  Se6       1.0  0.7286233957787295  0.2713766569984966  0.7286232547852296  1.0000
