data_image0
_chemical_formula_structural       Sr2NiS6
_chemical_formula_sum              "Sr2 Ni1 S6"
_cell_length_a       6.289876919909693
_cell_length_b       6.289877276719016
_cell_length_c       6.289877184095874
_cell_angle_alpha    59.99999904517945
_cell_angle_beta     59.99999765238108
_cell_angle_gamma    60.00000040640613

_space_group_name_H-M_alt    "P 1"
_space_group_IT_number       1

loop_
  _space_group_symop_operation_xyz
  'x, y, z'

loop_
  _atom_site_type_symbol
  _atom_site_label
  _atom_site_symmetry_multiplicity
  _atom_site_fract_x
  _atom_site_fract_y
  _atom_site_fract_z
  _atom_site_occupancy
  Sr  Sr1       1.0  0.25000005162313743  0.2499999744656168  0.2499999661966764  1.0000
  Sr  Sr2       1.0  0.749999960012845  0.7500000012835751  0.7500000127199169  1.0000
  Ni  Ni1       1.0  0.9999999626538912  0.9999999688453085  1.0738378416562866e-07  1.0000
  S   S1        1.0  0.24964332295176786  0.24964332673015968  0.7503567192650699  1.0000
  S   S2        1.0  0.750356712419251  0.7503566879623946  0.24964328077757666  1.0000
  S   S3        1.0  0.7503566418105729  0.24964339413729142  0.2496433090265867  1.0000
  S   S4        1.0  0.24964335890281678  0.750356608872255  0.7503566331037145  1.0000
  S   S5        1.0  0.249643381918805  0.7503566094025254  0.24964338992387206  1.0000
  S   S6        1.0  0.7503565967457848  0.24964342670887912  0.7503565641683175  1.0000
