data_image0
_chemical_formula_structural       Sr2NiSe6
_chemical_formula_sum              "Sr2 Ni1 Se6"
_cell_length_a       6.628152946927861
_cell_length_b       6.628152535185277
_cell_length_c       6.6281527976984265
_cell_angle_alpha    59.99999853022597
_cell_angle_beta     59.999998491356784
_cell_angle_gamma    60.00000012172175

_space_group_name_H-M_alt    "P 1"
_space_group_IT_number       1

loop_
  _space_group_symop_operation_xyz
  'x, y, z'

loop_
  _atom_site_type_symbol
  _atom_site_label
  _atom_site_symmetry_multiplicity
  _atom_site_fract_x
  _atom_site_fract_y
  _atom_site_fract_z
  _atom_site_occupancy
  Sr  Sr1       1.0  0.2500000302686142  0.25000000364873487  0.2500000012865453  1.0000
  Sr  Sr2       1.0  0.7499999508388359  0.7499999813815247  0.7499999950850914  1.0000
  Ni  Ni1       1.0  0.9999999751182663  0.9999999648919465  1.1890302360251046e-08  1.0000
  Se  Se1       1.0  0.2537671254888253  0.25376714734901545  0.7462328472307544  1.0000
  Se  Se2       1.0  0.7462328816084125  0.7462329060495576  0.2537670914008194  1.0000
  Se  Se3       1.0  0.7462328382342873  0.25376718348891936  0.2537671526642494  1.0000
  Se  Se4       1.0  0.2537671274748937  0.7462328477361464  0.7462328856403257  1.0000
  Se  Se5       1.0  0.25376719050884744  0.7462328019346726  0.2537671328527305  1.0000
  Se  Se6       1.0  0.7462328692051357  0.2537671720088358  0.7462328885989371  1.0000
