data_image0
_chemical_formula_structural       Sr2NbS6
_chemical_formula_sum              "Sr2 Nb1 S6"
_cell_length_a       6.537263428944116
_cell_length_b       6.537263308724706
_cell_length_c       6.537263054698579
_cell_angle_alpha    60.00000130466342
_cell_angle_beta     60.000001476748835
_cell_angle_gamma    59.99999978960414

_space_group_name_H-M_alt    "P 1"
_space_group_IT_number       1

loop_
  _space_group_symop_operation_xyz
  'x, y, z'

loop_
  _atom_site_type_symbol
  _atom_site_label
  _atom_site_symmetry_multiplicity
  _atom_site_fract_x
  _atom_site_fract_y
  _atom_site_fract_z
  _atom_site_occupancy
  Sr  Sr1       1.0  0.24999995161719082  0.250000059471207  0.25000003541145543  1.0000
  Sr  Sr2       1.0  0.750000041605791  0.7499999254934772  0.7499999802293446  1.0000
  Nb  Nb1       1.0  6.174563196872633e-09  0.9999999231872162  8.579895134021238e-08  1.0000
  S   S1        1.0  0.25710713813608177  0.25710718748369754  0.7428928525251107  1.0000
  S   S2        1.0  0.7428928221693898  0.7428927637583014  0.2571072086733245  1.0000
  S   S3        1.0  0.74289288436752  0.2571071320325419  0.2571070997022556  1.0000
  S   S4        1.0  0.25710711558098387  0.742892901642688  0.7428928316219008  1.0000
  S   S5        1.0  0.2571071409822496  0.7428928951507797  0.25710714497659753  1.0000
  S   S6        1.0  0.7428928746122196  0.25710721346375137  0.7428927716487685  1.0000
