data_image0
_chemical_formula_structural       Sr2NbSe6
_chemical_formula_sum              "Sr2 Nb1 Se6"
_cell_length_a       6.894960547406003
_cell_length_b       6.894960639681614
_cell_length_c       6.894960487319904
_cell_angle_alpha    60.00000110184721
_cell_angle_beta     59.9999991051044
_cell_angle_gamma    60.000000925873024

_space_group_name_H-M_alt    "P 1"
_space_group_IT_number       1

loop_
  _space_group_symop_operation_xyz
  'x, y, z'

loop_
  _atom_site_type_symbol
  _atom_site_label
  _atom_site_symmetry_multiplicity
  _atom_site_fract_x
  _atom_site_fract_y
  _atom_site_fract_z
  _atom_site_occupancy
  Sr  Sr1       1.0  0.24999998811332363  0.2500000069516486  0.2499999946006138  1.0000
  Sr  Sr2       1.0  0.7500000422064016  0.7499999480270627  0.7499999856335706  1.0000
  Nb  Nb1       1.0  8.596704884478277e-08  5.8617565289761335e-08  0.9999999697673967  1.0000
  Se  Se1       1.0  0.25943545644841737  0.2594354764267296  0.7405645381597984  1.0000
  Se  Se2       1.0  0.7405644645077272  0.7405645051963294  0.2594355254937078  1.0000
  Se  Se3       1.0  0.7405645182863008  0.25943548664877314  0.25943547493441177  1.0000
  Se  Se4       1.0  0.2594355110524058  0.7405644612247793  0.7405645470515617  1.0000
  Se  Se5       1.0  0.2594354993518199  0.7405644783664022  0.2594354956438517  1.0000
  Se  Se6       1.0  0.7405644502251502  0.259435583189699  0.7405644644213432  1.0000
