data_image0
_chemical_formula_structural       Sr2NiTe6
_chemical_formula_sum              "Sr2 Ni1 Te6"
_cell_length_a       7.200737400225117
_cell_length_b       7.200737533315152
_cell_length_c       7.2007376631265645
_cell_angle_alpha    60.00000056493329
_cell_angle_beta     59.99999947072198
_cell_angle_gamma    59.99999767143107

_space_group_name_H-M_alt    "P 1"
_space_group_IT_number       1

loop_
  _space_group_symop_operation_xyz
  'x, y, z'

loop_
  _atom_site_type_symbol
  _atom_site_label
  _atom_site_symmetry_multiplicity
  _atom_site_fract_x
  _atom_site_fract_y
  _atom_site_fract_z
  _atom_site_occupancy
  Sr  Sr1       1.0  0.2499999458027016  0.25000000372935305  0.2500000437690665  1.0000
  Sr  Sr2       1.0  0.7500000264534584  0.7499999924785888  0.7499999669807019  1.0000
  Ni  Ni1       1.0  0.9999999353534784  5.4427531803562544e-08  0.9999999634470969  1.0000
  Te  Te1       1.0  0.25812655655002076  0.2581266037095079  0.7418734632986598  1.0000
  Te  Te2       1.0  0.7418735041618407  0.7418734350199399  0.2581265777860216  1.0000
  Te  Te3       1.0  0.74187357705959  0.25812641044556695  0.2581264842691117  1.0000
  Te  Te4       1.0  0.2581264675858925  0.7418735177279596  0.7418734937507775  1.0000
  Te  Te5       1.0  0.25812649252083997  0.7418734666766461  0.25812652935171826  1.0000
  Te  Te6       1.0  0.74187348190586  0.25812652783043527  0.7418734714419841  1.0000
