data_image0
_chemical_formula_structural       Sr2NbO6
_chemical_formula_sum              "Sr2 Nb1 O6"
_cell_length_a       5.686617008396878
_cell_length_b       5.686617216527802
_cell_length_c       5.686616736118063
_cell_angle_alpha    60.00000335357165
_cell_angle_beta     60.000003583495754
_cell_angle_gamma    60.00000126107536

_space_group_name_H-M_alt    "P 1"
_space_group_IT_number       1

loop_
  _space_group_symop_operation_xyz
  'x, y, z'

loop_
  _atom_site_type_symbol
  _atom_site_label
  _atom_site_symmetry_multiplicity
  _atom_site_fract_x
  _atom_site_fract_y
  _atom_site_fract_z
  _atom_site_occupancy
  Sr  Sr1       1.0  0.24999999069052425  0.24999995481191756  0.2500000165975973  1.0000
  Sr  Sr2       1.0  0.7499999868977212  0.7500000453492235  0.7499999642325871  1.0000
  Nb  Nb1       1.0  0.9999999865462716  0.9999999246193874  3.971328348349021e-09  1.0000
  O   O1        1.0  0.2462201754739628  0.24622032941828995  0.7537797512390452  1.0000
  O   O2        1.0  0.753779719885442  0.7537797590458563  0.24622026348286818  1.0000
  O   O3        1.0  0.7537797642784463  0.24622024288188005  0.24622021796918278  1.0000
  O   O4        1.0  0.24622031266282823  0.7537798003538951  0.7537796846131125  1.0000
  O   O5        1.0  0.24622030620967686  0.7537797342071347  0.24622025032875097  1.0000
  O   O6        1.0  0.7537797694612184  0.2462202336480276  0.7537797327833963  1.0000
