data_image0
_chemical_formula_structural       Sr2NiO6
_chemical_formula_sum              "Sr2 Ni1 O6"
_cell_length_a       5.608576784857173
_cell_length_b       5.60857673255917
_cell_length_c       5.6085767350771585
_cell_angle_alpha    59.999999581698205
_cell_angle_beta     59.999999504102846
_cell_angle_gamma    59.99999974371193

_space_group_name_H-M_alt    "P 1"
_space_group_IT_number       1

loop_
  _space_group_symop_operation_xyz
  'x, y, z'

loop_
  _atom_site_type_symbol
  _atom_site_label
  _atom_site_symmetry_multiplicity
  _atom_site_fract_x
  _atom_site_fract_y
  _atom_site_fract_z
  _atom_site_occupancy
  Sr  Sr1       1.0  0.25000000451637044  0.25000000055623395  0.2500000027805642  1.0000
  Sr  Sr2       1.0  0.7500000032550512  0.7500000016687018  0.7499999938759039  1.0000
  Ni  Ni1       1.0  0.9999999990223243  1.5285899711219638e-08  0.9999999839309702  1.0000
  O   O1        1.0  0.22984523075197325  0.229845222144223  0.7701547741403953  1.0000
  O   O2        1.0  0.7701547765413245  0.7701547691622129  0.229845224648418  1.0000
  O   O3        1.0  0.770154770096672  0.22984521718492387  0.2298452351310015  1.0000
  O   O4        1.0  0.2298452239909654  0.7701547828563119  0.7701547712421924  1.0000
  O   O5        1.0  0.2298452260690876  0.7701547771644578  0.22984522694844495  1.0000
  O   O6        1.0  0.7701547729889617  0.22984521414197814  0.7701547848729101  1.0000
