data_image0
_chemical_formula_structural       Sr2PdSe6
_chemical_formula_sum              "Sr2 Pd1 Se6"
_cell_length_a       6.792177153974939
_cell_length_b       6.792177047253899
_cell_length_c       6.79217705755917
_cell_angle_alpha    60.00000011029597
_cell_angle_beta     60.00000002218467
_cell_angle_gamma    60.0000001855254

_space_group_name_H-M_alt    "P 1"
_space_group_IT_number       1

loop_
  _space_group_symop_operation_xyz
  'x, y, z'

loop_
  _atom_site_type_symbol
  _atom_site_label
  _atom_site_symmetry_multiplicity
  _atom_site_fract_x
  _atom_site_fract_y
  _atom_site_fract_z
  _atom_site_occupancy
  Sr  Sr1       1.0  0.2500000366905323  0.25000001636854663  0.24999996721895035  1.0000
  Sr  Sr2       1.0  0.7499999805087734  0.7499999787820162  0.7500000384071251  1.0000
  Pd  Pd1       1.0  0.9999999644552647  0.9999999026288293  1.0326500286351622e-07  1.0000
  Se  Se1       1.0  0.2606641304928571  0.2606641556577451  0.7393358567188739  1.0000
  Se  Se2       1.0  0.7393359258752168  0.7393358953910825  0.26066408076173686  1.0000
  Se  Se3       1.0  0.7393358728274855  0.2606641497026364  0.2606640897124644  1.0000
  Se  Se4       1.0  0.2606641186648983  0.7393358562669453  0.7393359130515887  1.0000
  Se  Se5       1.0  0.2606641289726488  0.7393358726185686  0.2606640920749501  1.0000
  Se  Se6       1.0  0.73933584970899  0.26066415138271143  0.7393358712715763  1.0000
