data_image0
_chemical_formula_structural       Sr2PbTe6
_chemical_formula_sum              "Sr2 Pb1 Te6"
_cell_length_a       7.710966368955425
_cell_length_b       7.7109665027450704
_cell_length_c       7.710966460665208
_cell_angle_alpha    59.99999898407082
_cell_angle_beta     59.999999186191445
_cell_angle_gamma    60.00000028721328

_space_group_name_H-M_alt    "P 1"
_space_group_IT_number       1

loop_
  _space_group_symop_operation_xyz
  'x, y, z'

loop_
  _atom_site_type_symbol
  _atom_site_label
  _atom_site_symmetry_multiplicity
  _atom_site_fract_x
  _atom_site_fract_y
  _atom_site_fract_z
  _atom_site_occupancy
  Sr  Sr1       1.0  0.24999996051312343  0.25000001537135835  0.25000003360006495  1.0000
  Sr  Sr2       1.0  0.7500000544008297  0.7499999857580821  0.7499999861890182  1.0000
  Pb  Pb1       1.0  0.9999999926190302  0.999999968233687  1.4386224537903326e-08  1.0000
  Te  Te1       1.0  0.2800858773887909  0.280085935504198  0.7199140939353837  1.0000
  Te  Te2       1.0  0.719914124138694  0.719914060860296  0.2800858947269234  1.0000
  Te  Te3       1.0  0.7199140896125746  0.2800859556426247  0.28008592814388755  1.0000
  Te  Te4       1.0  0.28008589789258137  0.7199140693115507  0.7199140830623922  1.0000
  Te  Te5       1.0  0.28008589033101855  0.7199140841082757  0.2800859272539605  1.0000
  Te  Te6       1.0  0.7199141178819081  0.280085928139375  0.7199140345617958  1.0000
