data_image0
_chemical_formula_structural       Sr2PtS6
_chemical_formula_sum              "Sr2 Pt1 S6"
_cell_length_a       6.440657114906889
_cell_length_b       6.4406570279304605
_cell_length_c       6.440657281431594
_cell_angle_alpha    59.999999363698585
_cell_angle_beta     59.99999823947718
_cell_angle_gamma    59.99999591964548

_space_group_name_H-M_alt    "P 1"
_space_group_IT_number       1

loop_
  _space_group_symop_operation_xyz
  'x, y, z'

loop_
  _atom_site_type_symbol
  _atom_site_label
  _atom_site_symmetry_multiplicity
  _atom_site_fract_x
  _atom_site_fract_y
  _atom_site_fract_z
  _atom_site_occupancy
  Sr  Sr1       1.0  0.2500000307146174  0.24999999521180247  0.24999997405198457  1.0000
  Sr  Sr2       1.0  0.7499999909313025  0.7499999342926497  0.7500000527758877  1.0000
  Pt  Pt1       1.0  1.04307211111854e-08  1.7114253921434625e-08  1.1069697543936901e-08  1.0000
  S   S1        1.0  0.2549821082628017  0.2549821119877454  0.7450179155856789  1.0000
  S   S2        1.0  0.7450178140876049  0.7450179163990674  0.2549821331856827  1.0000
  S   S3        1.0  0.7450179576085516  0.2549820361257777  0.25498204036271915  1.0000
  S   S4        1.0  0.2549820971223631  0.7450179447214352  0.7450179395933657  1.0000
  S   S5        1.0  0.2549820647555851  0.7450179906898726  0.25498202774613904  1.0000
  S   S6        1.0  0.7450179300319917  0.2549820624175261  0.7450179212093374  1.0000
