data_image0
_chemical_formula_structural       Sr2PbSe6
_chemical_formula_sum              "Sr2 Pb1 Se6"
_cell_length_a       7.1042636621944055
_cell_length_b       7.104263683483693
_cell_length_c       7.1042637523222405
_cell_angle_alpha    60.00000005048598
_cell_angle_beta     59.99999860678285
_cell_angle_gamma    60.00000042710438

_space_group_name_H-M_alt    "P 1"
_space_group_IT_number       1

loop_
  _space_group_symop_operation_xyz
  'x, y, z'

loop_
  _atom_site_type_symbol
  _atom_site_label
  _atom_site_symmetry_multiplicity
  _atom_site_fract_x
  _atom_site_fract_y
  _atom_site_fract_z
  _atom_site_occupancy
  Sr  Sr1       1.0  0.2500000477598532  0.24999989026368508  0.2499999937924429  1.0000
  Sr  Sr2       1.0  0.7499999712472586  0.7500000552335772  0.7500000131175495  1.0000
  Pb  Pb1       1.0  0.9999999758815113  4.309893731028591e-08  0.9999999891021706  1.0000
  Se  Se1       1.0  0.2773224411671433  0.2773224416679179  0.7226775598079741  1.0000
  Se  Se2       1.0  0.7226775230198617  0.7226775658918138  0.27732241110591355  1.0000
  Se  Se3       1.0  0.7226775211426629  0.27732244803495865  0.2773224896710288  1.0000
  Se  Se4       1.0  0.2773224558500536  0.7226775698685187  0.7226775428636109  1.0000
  Se  Se5       1.0  0.2773224889221435  0.7226775715288599  0.27732245278267786  1.0000
  Se  Se6       1.0  0.7226775575020294  0.27732241361942556  0.7226775501529857  1.0000
