data_image0
_chemical_formula_structural       Sr2SnO6
_chemical_formula_sum              "Sr2 Sn1 O6"
_cell_length_a       5.816562190683867
_cell_length_b       5.816561718617228
_cell_length_c       5.816561768012822
_cell_angle_alpha    60.00000093296043
_cell_angle_beta     60.00000119573809
_cell_angle_gamma    59.99999819688026

_space_group_name_H-M_alt    "P 1"
_space_group_IT_number       1

loop_
  _space_group_symop_operation_xyz
  'x, y, z'

loop_
  _atom_site_type_symbol
  _atom_site_label
  _atom_site_symmetry_multiplicity
  _atom_site_fract_x
  _atom_site_fract_y
  _atom_site_fract_z
  _atom_site_occupancy
  Sr  Sr1       1.0  0.25000002075962385  0.2500000875268275  0.24999995205589345  1.0000
  Sr  Sr2       1.0  0.7499998953265966  0.7499999951671794  0.7500000802273832  1.0000
  Sn  Sn1       1.0  0.9999999703425086  0.9999999936831521  9.70716906193256e-08  1.0000
  O   O1        1.0  0.24596210209821764  0.2459621368799331  0.7540378843018434  1.0000
  O   O2        1.0  0.7540379313966298  0.7540378615894083  0.24596207637413192  1.0000
  O   O3        1.0  0.7540379302991335  0.24596208994055846  0.24596211254563097  1.0000
  O   O4        1.0  0.24596213953132043  0.7540378769445346  0.7540378887353825  1.0000
  O   O5        1.0  0.2459621249975436  0.7540378676336327  0.24596205656509781  1.0000
  O   O6        1.0  0.7540378859789598  0.2459620971458424  0.7540378600073764  1.0000
