data_image0
_chemical_formula_structural       Sr2SnTe6
_chemical_formula_sum              "Sr2 Sn1 Te6"
_cell_length_a       7.59752008858536
_cell_length_b       7.597519772126245
_cell_length_c       7.597519910341698
_cell_angle_alpha    60.000000508377326
_cell_angle_beta     59.99999962435752
_cell_angle_gamma    60.00000004032363

_space_group_name_H-M_alt    "P 1"
_space_group_IT_number       1

loop_
  _space_group_symop_operation_xyz
  'x, y, z'

loop_
  _atom_site_type_symbol
  _atom_site_label
  _atom_site_symmetry_multiplicity
  _atom_site_fract_x
  _atom_site_fract_y
  _atom_site_fract_z
  _atom_site_occupancy
  Sr  Sr1       1.0  0.2500000005945366  0.24999998676050067  0.24999998976875604  1.0000
  Sr  Sr2       1.0  0.7499999916504451  0.7500000134785757  0.7500000385934248  1.0000
  Sn  Sn1       1.0  0.9999999786142448  3.224065050154781e-08  4.985375048589182e-08  1.0000
  Te  Te1       1.0  0.2697519339759543  0.2697520278814408  0.7302480321038158  1.0000
  Te  Te2       1.0  0.7302480407526943  0.7302479610734075  0.26975198565048464  1.0000
  Te  Te3       1.0  0.7302480107772663  0.26975197520347244  0.2697520034398723  1.0000
  Te  Te4       1.0  0.26975205508115063  0.7302479637783684  0.730247933189973  1.0000
  Te  Te5       1.0  0.26975203895279015  0.7302479962796642  0.269751980104738  1.0000
  Te  Te6       1.0  0.7302479454005992  0.2697520458722558  0.7302479878115906  1.0000
