data_image0
_chemical_formula_structural       Sr2ScTe6
_chemical_formula_sum              "Sr2 Sc1 Te6"
_cell_length_a       7.51744912691023
_cell_length_b       7.517449301539497
_cell_length_c       7.51744903214543
_cell_angle_alpha    60.0000002813252
_cell_angle_beta     60.00000019212691
_cell_angle_gamma    59.99999943397833

_space_group_name_H-M_alt    "P 1"
_space_group_IT_number       1

loop_
  _space_group_symop_operation_xyz
  'x, y, z'

loop_
  _atom_site_type_symbol
  _atom_site_label
  _atom_site_symmetry_multiplicity
  _atom_site_fract_x
  _atom_site_fract_y
  _atom_site_fract_z
  _atom_site_occupancy
  Sr  Sr1       1.0  0.24999996942113356  0.25000004173223367  0.25000001010575396  1.0000
  Sr  Sr2       1.0  0.7500000043224175  0.7499999476136059  0.7500000218604782  1.0000
  Sc  Sc1       1.0  5.255240728558035e-08  0.9999999022478369  8.113037179780435e-08  1.0000
  Te  Te1       1.0  0.2685356359801662  0.2685357007368954  0.7314643170926917  1.0000
  Te  Te2       1.0  0.7314644509475237  0.7314643407434295  0.26853558831635804  1.0000
  Te  Te3       1.0  0.7314643777845817  0.26853567909835807  0.2685355655022356  1.0000
  Te  Te4       1.0  0.26853558616776624  0.7314643672695761  0.7314644295461655  1.0000
  Te  Te5       1.0  0.26853555830418946  0.7314643618456673  0.26853562218073274  1.0000
  Te  Te6       1.0  0.7314643614760761  0.2685356649718356  0.7314643634915327  1.0000
