data_image0
_chemical_formula_structural       Sr2ScS6
_chemical_formula_sum              "Sr2 Sc1 S6"
_cell_length_a       6.598345418805754
_cell_length_b       6.598344955784556
_cell_length_c       6.59834622762345
_cell_angle_alpha    59.99999524234048
_cell_angle_beta     59.99999933518202
_cell_angle_gamma    60.00000168577919

_space_group_name_H-M_alt    "P 1"
_space_group_IT_number       1

loop_
  _space_group_symop_operation_xyz
  'x, y, z'

loop_
  _atom_site_type_symbol
  _atom_site_label
  _atom_site_symmetry_multiplicity
  _atom_site_fract_x
  _atom_site_fract_y
  _atom_site_fract_z
  _atom_site_occupancy
  Sr  Sr1       1.0  0.24999997729900086  0.24999989763702843  0.25000004565331224  1.0000
  Sr  Sr2       1.0  0.7499999697899243  0.7500000307284903  0.7499998278622771  1.0000
  Sc  Sc1       1.0  0.9999999198706808  7.238944035730537e-08  3.0091406603117345e-07  1.0000
  S   S1        1.0  0.2635141235928281  0.26351403586255  0.73648591696728  1.0000
  S   S2        1.0  0.7364860010573931  0.736485911064376  0.2635140479283705  1.0000
  S   S3        1.0  0.7364859075277931  0.26351409286168664  0.2635140368046563  1.0000
  S   S4        1.0  0.26351414889122504  0.7364858225108621  0.7364859067538129  1.0000
  S   S5        1.0  0.2635140566230609  0.7364859720952119  0.26351400418360404  1.0000
  S   S6        1.0  0.7364858985757473  0.26351417343863864  0.7364859218857887  1.0000
