data_image0
_chemical_formula_structural       Sr2SeS6
_chemical_formula_sum              "Sr2 Se1 S6"
_cell_length_a       6.608528700281531
_cell_length_b       6.608528646864995
_cell_length_c       6.60852862111751
_cell_angle_alpha    59.99999937066273
_cell_angle_beta     59.99999983246675
_cell_angle_gamma    59.99999843034991

_space_group_name_H-M_alt    "P 1"
_space_group_IT_number       1

loop_
  _space_group_symop_operation_xyz
  'x, y, z'

loop_
  _atom_site_type_symbol
  _atom_site_label
  _atom_site_symmetry_multiplicity
  _atom_site_fract_x
  _atom_site_fract_y
  _atom_site_fract_z
  _atom_site_occupancy
  Sr  Sr1       1.0  0.2499999966273764  0.24999998347462793  0.25000002401181987  1.0000
  Sr  Sr2       1.0  0.749999990445332  0.7500000430878457  0.7499999754864043  1.0000
  Se  Se1       1.0  0.9999999650360469  3.15057478973879e-08  0.9999999079109418  1.0000
  S   S1        1.0  0.24283938797945642  0.2428394060769756  0.7571605912972637  1.0000
  S   S2        1.0  0.7571606537891468  0.7571605926863089  0.24283938718662698  1.0000
  S   S3        1.0  0.7571606461249893  0.24283936059249855  0.2428393033814579  1.0000
  S   S4        1.0  0.24283932686342105  0.7571606715298126  0.7571607185373501  1.0000
  S   S5        1.0  0.24283936953698726  0.7571605784843316  0.2428393713169277  1.0000
  S   S6        1.0  0.7571606645732685  0.24283933317482861  0.7571607423135753  1.0000
