data_image0
_chemical_formula_structural       Sr2ScO6
_chemical_formula_sum              "Sr2 Sc1 O6"
_cell_length_a       5.736668411086468
_cell_length_b       5.736668480585524
_cell_length_c       5.73666843152638
_cell_angle_alpha    60.000000168821984
_cell_angle_beta     59.99999988536401
_cell_angle_gamma    60.00000003766599

_space_group_name_H-M_alt    "P 1"
_space_group_IT_number       1

loop_
  _space_group_symop_operation_xyz
  'x, y, z'

loop_
  _atom_site_type_symbol
  _atom_site_label
  _atom_site_symmetry_multiplicity
  _atom_site_fract_x
  _atom_site_fract_y
  _atom_site_fract_z
  _atom_site_occupancy
  Sr  Sr1       1.0  0.24999999993435082  0.2500000022765079  0.2499999976805235  1.0000
  Sr  Sr2       1.0  0.7499999891492963  0.7500000025596418  0.7500000109624216  1.0000
  Sc  Sc1       1.0  2.01284170747949e-09  0.0  1.1195783421515353e-08  1.0000
  O   O1        1.0  0.2482083565186901  0.24820835061056215  0.7517916477045485  1.0000
  O   O2        1.0  0.7517916402709748  0.7517916371460597  0.24820836388197987  1.0000
  O   O3        1.0  0.7517916610137082  0.24820833682789503  0.2482083471096906  1.0000
  O   O4        1.0  0.24820834998794788  0.7517916445239038  0.7517916448847053  1.0000
  O   O5        1.0  0.24820834678376505  0.7517916601258356  0.24820834561561578  1.0000
  O   O6        1.0  0.751791650696598  0.24820836178984196  0.7517916363438313  1.0000
