data_image0
_chemical_formula_structural       Sr2SO6
_chemical_formula_sum              "Sr2 S1 O6"
_cell_length_a       5.510614273546005
_cell_length_b       5.510613741224814
_cell_length_c       5.510614340511139
_cell_angle_alpha    59.99999437202354
_cell_angle_beta     59.99999567578684
_cell_angle_gamma    59.99999779778353

_space_group_name_H-M_alt    "P 1"
_space_group_IT_number       1

loop_
  _space_group_symop_operation_xyz
  'x, y, z'

loop_
  _atom_site_type_symbol
  _atom_site_label
  _atom_site_symmetry_multiplicity
  _atom_site_fract_x
  _atom_site_fract_y
  _atom_site_fract_z
  _atom_site_occupancy
  Sr  Sr1       1.0  0.24999999504072795  0.24999997912139738  0.2500000342898397  1.0000
  Sr  Sr2       1.0  0.750000020805869  0.7500000440451555  0.7499999355091677  1.0000
  S   S1        1.0  0.9999999807599749  2.000268069552662e-08  0.999999874405773  1.0000
  O   O1        1.0  0.21911109335292014  0.21911100161972213  0.780888977042509  1.0000
  O   O2        1.0  0.7808889425835895  0.7808888104074284  0.21911108283720684  1.0000
  O   O3        1.0  0.7808889119202523  0.21911116926948884  0.2191110238074038  1.0000
  O   O4        1.0  0.21911108606269078  0.7808888383394225  0.7808890788417534  1.0000
  O   O5        1.0  0.2191111170589505  0.7808888873948748  0.2191109595114283  1.0000
  O   O6        1.0  0.7808889149153942  0.21911116910947798  0.7808891379878998  1.0000
