data_image0
_chemical_formula_structural       Sr2SnSe6
_chemical_formula_sum              "Sr2 Sn1 Se6"
_cell_length_a       7.019033271875984
_cell_length_b       7.019033253316819
_cell_length_c       7.019033292173655
_cell_angle_alpha    60.00000000221229
_cell_angle_beta     60.00000022635722
_cell_angle_gamma    59.99999979834073

_space_group_name_H-M_alt    "P 1"
_space_group_IT_number       1

loop_
  _space_group_symop_operation_xyz
  'x, y, z'

loop_
  _atom_site_type_symbol
  _atom_site_label
  _atom_site_symmetry_multiplicity
  _atom_site_fract_x
  _atom_site_fract_y
  _atom_site_fract_z
  _atom_site_occupancy
  Sr  Sr1       1.0  0.2500000249169397  0.24999997348839867  0.2499999966146357  1.0000
  Sr  Sr2       1.0  0.7499999858641022  0.7500000094546427  0.7500000197111921  1.0000
  Sn  Sn1       1.0  0.9999999610821302  2.7918257871246077e-08  1.8322084490802667e-08  1.0000
  Se  Se1       1.0  0.2663588996657834  0.2663589213209279  0.7336411144381358  1.0000
  Se  Se2       1.0  0.7336410605990245  0.733641065111896  0.26635893394910315  1.0000
  Se  Se3       1.0  0.7336410657387187  0.2663589619494511  0.2663589107030391  1.0000
  Se  Se4       1.0  0.266358964084968  0.7336410576363037  0.733641009394624  1.0000
  Se  Se5       1.0  0.2663589376307757  0.7336410781618142  0.26635893896331503  1.0000
  Se  Se6       1.0  0.7336411025624658  0.26635891525057404  0.7336410488735539  1.0000
