data_image0
_chemical_formula_structural       Sr2SeO6
_chemical_formula_sum              "Sr2 Se1 O6"
_cell_length_a       5.60030393471736
_cell_length_b       5.600304716168621
_cell_length_c       5.6003042967950405
_cell_angle_alpha    60.00000009694419
_cell_angle_beta     60.00000291397716
_cell_angle_gamma    60.0000044016362

_space_group_name_H-M_alt    "P 1"
_space_group_IT_number       1

loop_
  _space_group_symop_operation_xyz
  'x, y, z'

loop_
  _atom_site_type_symbol
  _atom_site_label
  _atom_site_symmetry_multiplicity
  _atom_site_fract_x
  _atom_site_fract_y
  _atom_site_fract_z
  _atom_site_occupancy
  Sr  Sr1       1.0  0.24999996741241345  0.2499999820464566  0.2500000377485047  1.0000
  Sr  Sr2       1.0  0.7500000572085345  0.7500000008125093  0.7499999566404019  1.0000
  Se  Se1       1.0  0.9999997724205848  2.9304799398200126e-07  0.9999999994068073  1.0000
  O   O1        1.0  0.2320641925235369  0.23206406741629657  0.7679358735038271  1.0000
  O   O2        1.0  0.767935888914551  0.7679358192179558  0.2320640995196731  1.0000
  O   O3        1.0  0.7679358213545874  0.23206413734795317  0.23206413066364356  1.0000
  O   O4        1.0  0.23206426808077435  0.7679357624078486  0.7679358978682838  1.0000
  O   O5        1.0  0.23206420378331907  0.7679358548930265  0.23206409878633238  1.0000
  O   O6        1.0  0.7679357952627996  0.2320640995359087  0.7679359261762381  1.0000
