data_image0
_chemical_formula_structural       Sr2TiO6
_chemical_formula_sum              "Sr2 Ti1 O6"
_cell_length_a       5.638552753025293
_cell_length_b       5.638552827430866
_cell_length_c       5.638552594712469
_cell_angle_alpha    60.00000218838223
_cell_angle_beta     60.00000044217694
_cell_angle_gamma    60.00000202402706

_space_group_name_H-M_alt    "P 1"
_space_group_IT_number       1

loop_
  _space_group_symop_operation_xyz
  'x, y, z'

loop_
  _atom_site_type_symbol
  _atom_site_label
  _atom_site_symmetry_multiplicity
  _atom_site_fract_x
  _atom_site_fract_y
  _atom_site_fract_z
  _atom_site_occupancy
  Sr  Sr1       1.0  0.2499999734119631  0.2499999837538252  0.24999998882515204  1.0000
  Sr  Sr2       1.0  0.7500000350193428  0.7499999816707488  0.7500000800970948  1.0000
  Ti  Ti1       1.0  0.9999998680669551  4.5613903614096934e-08  0.9999999615783514  1.0000
  O   O1        1.0  0.2394433030553476  0.23944326336862673  0.7605566881850951  1.0000
  O   O2        1.0  0.7605567135674262  0.760556702055947  0.2394433553593606  1.0000
  O   O3        1.0  0.7605567482426077  0.23944321209643202  0.23944321958668302  1.0000
  O   O4        1.0  0.23944327077939195  0.760556770704867  0.7605567537706345  1.0000
  O   O5        1.0  0.23944330901309785  0.7605567496796581  0.23944322345242608  1.0000
  O   O6        1.0  0.7605567399815613  0.23944327221927506  0.7605567827629265  1.0000
