data_image0
_chemical_formula_structural       Sr2VS6
_chemical_formula_sum              "Sr2 V1 S6"
_cell_length_a       6.427042940928096
_cell_length_b       6.427043648083091
_cell_length_c       6.4270432258698085
_cell_angle_alpha    59.999999718944736
_cell_angle_beta     60.000001240541025
_cell_angle_gamma    60.00000155609294

_space_group_name_H-M_alt    "P 1"
_space_group_IT_number       1

loop_
  _space_group_symop_operation_xyz
  'x, y, z'

loop_
  _atom_site_type_symbol
  _atom_site_label
  _atom_site_symmetry_multiplicity
  _atom_site_fract_x
  _atom_site_fract_y
  _atom_site_fract_z
  _atom_site_occupancy
  Sr  Sr1       1.0  0.2500000134184193  0.2500000255434029  0.249999982096293  1.0000
  Sr  Sr2       1.0  0.7500000297121558  0.7500000328011421  0.7499999999256962  1.0000
  V   V1        1.0  4.649436193732551e-08  1.1433667892836889e-08  3.710419870946328e-09  1.0000
  S   S1        1.0  0.24876925675435393  0.24876919488880753  0.7512307830762502  1.0000
  S   S2        1.0  0.7512307347847327  0.751230711006815  0.24876926206781064  1.0000
  S   S3        1.0  0.7512307090826007  0.2487692635482624  0.24876920660914864  1.0000
  S   S4        1.0  0.24876922616000388  0.7512307681177262  0.7512307151102172  1.0000
  S   S5        1.0  0.24876927417177022  0.7512307338795727  0.2487692813262939  1.0000
  S   S6        1.0  0.7512307155145965  0.24876926920223807  0.7512307394899124  1.0000
