data_image0
_chemical_formula_structural       Sr2VO6
_chemical_formula_sum              "Sr2 V1 O6"
_cell_length_a       5.688950815079101
_cell_length_b       5.688951145792435
_cell_length_c       5.688950872029752
_cell_angle_alpha    60.00000140788806
_cell_angle_beta     60.000001146534984
_cell_angle_gamma    60.000000674203875

_space_group_name_H-M_alt    "P 1"
_space_group_IT_number       1

loop_
  _space_group_symop_operation_xyz
  'x, y, z'

loop_
  _atom_site_type_symbol
  _atom_site_label
  _atom_site_symmetry_multiplicity
  _atom_site_fract_x
  _atom_site_fract_y
  _atom_site_fract_z
  _atom_site_occupancy
  Sr  Sr1       1.0  0.25000002389729614  0.2500000444811655  0.2499999654400056  1.0000
  Sr  Sr2       1.0  0.7499999242220827  0.7499999547570938  0.7500000629137062  1.0000
  V   V1        1.0  6.880665013837244e-08  0.9999999397202478  3.4408005507520196e-08  1.0000
  O   O1        1.0  0.23069206262901173  0.23069212237047573  0.7693078918210756  1.0000
  O   O2        1.0  0.7693079475711001  0.7693078854791758  0.23069207481967383  1.0000
  O   O3        1.0  0.7693079621345374  0.23069212367523798  0.23069201799665467  1.0000
  O   O4        1.0  0.23069203967930355  0.7693079336899235  0.7693079228060952  1.0000
  O   O5        1.0  0.23069206804857106  0.7693078732352969  0.23069213095610747  1.0000
  O   O6        1.0  0.769307914351009  0.2306921023216313  0.7693078762780292  1.0000
