data_image0
_chemical_formula_structural       Sr2VTe6
_chemical_formula_sum              "Sr2 V1 Te6"
_cell_length_a       7.322332675139448
_cell_length_b       7.322332509840739
_cell_length_c       7.322332503054352
_cell_angle_alpha    60.000002449986866
_cell_angle_beta     59.999999068939964
_cell_angle_gamma    60.000001027858616

_space_group_name_H-M_alt    "P 1"
_space_group_IT_number       1

loop_
  _space_group_symop_operation_xyz
  'x, y, z'

loop_
  _atom_site_type_symbol
  _atom_site_label
  _atom_site_symmetry_multiplicity
  _atom_site_fract_x
  _atom_site_fract_y
  _atom_site_fract_z
  _atom_site_occupancy
  Sr  Sr1       1.0  0.24999999713897247  0.25000000858144195  0.24999989448222293  1.0000
  Sr  Sr2       1.0  0.7499999889954344  0.7500000424704971  0.7500000969253192  1.0000
  V   V1        1.0  1.841518234574002e-08  0.9999999163692175  1.1728027114434834e-07  1.0000
  Te  Te1       1.0  0.2625761531563451  0.26257616048104165  0.7374238195924675  1.0000
  Te  Te2       1.0  0.7374238114746136  0.7374238604638119  0.2625761156792386  1.0000
  Te  Te3       1.0  0.7374238844181223  0.26257618265515503  0.2625761022924142  1.0000
  Te  Te4       1.0  0.2625762061152614  0.7374237964743092  0.7374238783396145  1.0000
  Te  Te5       1.0  0.26257619738434834  0.7374237904212045  0.26257616356800284  1.0000
  Te  Te6       1.0  0.7374237511900616  0.2625762455771916  0.737423806347333  1.0000
