data_image0
_chemical_formula_structural       Sr2VSe6
_chemical_formula_sum              "Sr2 V1 Se6"
_cell_length_a       6.758156005324621
_cell_length_b       6.758156010098846
_cell_length_c       6.7581560651825345
_cell_angle_alpha    59.99999962369782
_cell_angle_beta     59.99999774705699
_cell_angle_gamma    60.00000017945881

_space_group_name_H-M_alt    "P 1"
_space_group_IT_number       1

loop_
  _space_group_symop_operation_xyz
  'x, y, z'

loop_
  _atom_site_type_symbol
  _atom_site_label
  _atom_site_symmetry_multiplicity
  _atom_site_fract_x
  _atom_site_fract_y
  _atom_site_fract_z
  _atom_site_occupancy
  Sr  Sr1       1.0  0.2499999989157923  0.24999999957689248  0.2500000304985419  1.0000
  Sr  Sr2       1.0  0.7499999704106083  0.7500000059796649  0.7499999737858707  1.0000
  V   V1        1.0  0.9999999775661376  0.9999998622692199  1.4666853186032143e-07  1.0000
  Se  Se1       1.0  0.25471091152825087  0.25471092095366055  0.7452890553388741  1.0000
  Se  Se2       1.0  0.7452890890000958  0.7452891806519938  0.25471088975909717  1.0000
  Se  Se3       1.0  0.7452890543222574  0.2547109379992663  0.25471092273660667  1.0000
  Se  Se4       1.0  0.25471099430760735  0.7452890603083033  0.745289044040873  1.0000
  Se  Se5       1.0  0.254710977275309  0.7452890482070439  0.2547109263445207  1.0000
  Se  Se6       1.0  0.7452890232886025  0.25471099178220863  0.7452890155109172  1.0000
