data_image0
_chemical_formula_structural       Sr2YSe6
_chemical_formula_sum              "Sr2 Y1 Se6"
_cell_length_a       7.188303666322591
_cell_length_b       7.188303743893373
_cell_length_c       7.188303587092818
_cell_angle_alpha    60.00000074703582
_cell_angle_beta     60.00000212739481
_cell_angle_gamma    60.00000142042897

_space_group_name_H-M_alt    "P 1"
_space_group_IT_number       1

loop_
  _space_group_symop_operation_xyz
  'x, y, z'

loop_
  _atom_site_type_symbol
  _atom_site_label
  _atom_site_symmetry_multiplicity
  _atom_site_fract_x
  _atom_site_fract_y
  _atom_site_fract_z
  _atom_site_occupancy
  Sr  Sr1       1.0  0.24999998286288433  0.24999995044221873  0.2500000153655235  1.0000
  Sr  Sr2       1.0  0.7500000493967124  0.7500000404487139  0.749999941474829  1.0000
  Y   Y1        1.0  5.7433484576914255e-09  3.577984813562703e-08  7.940111629601747e-08  1.0000
  Se  Se1       1.0  0.2753364059495129  0.2753364522685457  0.7246635402377614  1.0000
  Se  Se2       1.0  0.7246635703798028  0.7246635232881656  0.275336485622413  1.0000
  Se  Se3       1.0  0.7246635391553056  0.2753364273530184  0.2753364382327165  1.0000
  Se  Se4       1.0  0.27533645692082426  0.724663551611298  0.7246635398803795  1.0000
  Se  Se5       1.0  0.27533645204122587  0.7246635664012652  0.27533642445095924  1.0000
  Se  Se6       1.0  0.7246635292686171  0.27533645686191155  0.724663530548957  1.0000
