data_image0
_chemical_formula_structural       Sr2YS6
_chemical_formula_sum              "Sr2 Y1 S6"
_cell_length_a       6.896711966590839
_cell_length_b       6.896711789579156
_cell_length_c       6.896711914457946
_cell_angle_alpha    60.00000005051295
_cell_angle_beta     59.9999936835572
_cell_angle_gamma    60.00000102663886

_space_group_name_H-M_alt    "P 1"
_space_group_IT_number       1

loop_
  _space_group_symop_operation_xyz
  'x, y, z'

loop_
  _atom_site_type_symbol
  _atom_site_label
  _atom_site_symmetry_multiplicity
  _atom_site_fract_x
  _atom_site_fract_y
  _atom_site_fract_z
  _atom_site_occupancy
  Sr  Sr1       1.0  0.24999996818967277  0.24999995036808345  0.24999997629471674  1.0000
  Sr  Sr2       1.0  0.7500000797064341  0.7499999736371439  0.7500000888918138  1.0000
  Y   Y1        1.0  0.9999999660559266  1.1187785116866842e-07  1.5967849931233288e-07  1.0000
  S   S1        1.0  0.2720812973431193  0.27208118738637194  0.7279187520718308  1.0000
  S   S2        1.0  0.7279187109971385  0.727918674464494  0.272081314670952  1.0000
  S   S3        1.0  0.727918776335629  0.27208129585986135  0.2720813899673088  1.0000
  S   S4        1.0  0.2720813704792356  0.7279185624393295  0.7279185701649105  1.0000
  S   S5        1.0  0.2720812151326368  0.7279187573213365  0.2720812733015114  1.0000
  S   S6        1.0  0.7279186183659351  0.2720814934382199  0.7279184877623938  1.0000
