data_image0
_chemical_formula_structural       Sr2YTe6
_chemical_formula_sum              "Sr2 Y1 Te6"
_cell_length_a       7.686855531044
_cell_length_b       7.686855491617219
_cell_length_c       7.686855881927568
_cell_angle_alpha    60.00000050552128
_cell_angle_beta     60.00000012083891
_cell_angle_gamma    60.00000204114902

_space_group_name_H-M_alt    "P 1"
_space_group_IT_number       1

loop_
  _space_group_symop_operation_xyz
  'x, y, z'

loop_
  _atom_site_type_symbol
  _atom_site_label
  _atom_site_symmetry_multiplicity
  _atom_site_fract_x
  _atom_site_fract_y
  _atom_site_fract_z
  _atom_site_occupancy
  Sr  Sr1       1.0  0.2500000329407822  0.25000005351540444  0.24999990401401564  1.0000
  Sr  Sr2       1.0  0.7499999840843763  0.7499999279247613  0.7500000496379259  1.0000
  Y   Y1        1.0  0.9999999522636085  3.505254651371792e-08  0.9999999985363904  1.0000
  Te  Te1       1.0  0.274358305072699  0.2743583431893295  0.7256416848315318  1.0000
  Te  Te2       1.0  0.725641706657102  0.7256416270977541  0.27435834339165194  1.0000
  Te  Te3       1.0  0.725641664902883  0.27435837714976335  0.27435831416386464  1.0000
  Te  Te4       1.0  0.2743584068384453  0.7256415708311541  0.7256416678872767  1.0000
  Te  Te5       1.0  0.2743583135308045  0.725641670777316  0.27435834232494094  1.0000
  Te  Te6       1.0  0.7256416389450343  0.27435838714113603  0.7256416977279807  1.0000
