data_image0
_chemical_formula_structural       Sr2YO6
_chemical_formula_sum              "Sr2 Y1 O6"
_cell_length_a       5.604809348620525
_cell_length_b       5.604809056281796
_cell_length_c       5.604809125603788
_cell_angle_alpha    60.000003128470205
_cell_angle_beta     60.000002190660844
_cell_angle_gamma    59.999999673729675

_space_group_name_H-M_alt    "P 1"
_space_group_IT_number       1

loop_
  _space_group_symop_operation_xyz
  'x, y, z'

loop_
  _atom_site_type_symbol
  _atom_site_label
  _atom_site_symmetry_multiplicity
  _atom_site_fract_x
  _atom_site_fract_y
  _atom_site_fract_z
  _atom_site_occupancy
  Sr  Sr1       1.0  0.2500000304537531  0.2500001036638676  0.2499999175828735  1.0000
  Sr  Sr2       1.0  0.7499999476725635  0.7500000312901229  0.7499999787171562  1.0000
  Y   Y1        1.0  1.0199226160823956e-07  0.999999873260257  0.9999998178978914  1.0000
  O   O1        1.0  0.27625258123724206  0.2762525881390083  0.7237474520702888  1.0000
  O   O2        1.0  0.7237474180552504  0.7237474091494094  0.27625252924216687  1.0000
  O   O3        1.0  0.723747382378484  0.2762525138396229  0.27625265223860573  1.0000
  O   O4        1.0  0.2762525545047141  0.7237474790784646  0.7237474855722256  1.0000
  O   O5        1.0  0.27625257303236067  0.7237474363890646  0.2762527134788393  1.0000
  O   O6        1.0  0.7237474080718412  0.2762525783807035  0.723747469799662  1.0000
