data_image0
_chemical_formula_structural       Sr2ZnTe6
_chemical_formula_sum              "Sr2 Zn1 Te6"
_cell_length_a       7.363902823452909
_cell_length_b       7.363902700114677
_cell_length_c       7.363902854027473
_cell_angle_alpha    59.999999181192436
_cell_angle_beta     59.99999888314322
_cell_angle_gamma    60.00000197038338

_space_group_name_H-M_alt    "P 1"
_space_group_IT_number       1

loop_
  _space_group_symop_operation_xyz
  'x, y, z'

loop_
  _atom_site_type_symbol
  _atom_site_label
  _atom_site_symmetry_multiplicity
  _atom_site_fract_x
  _atom_site_fract_y
  _atom_site_fract_z
  _atom_site_occupancy
  Sr  Sr1       1.0  0.25000004358759487  0.24999993011915445  0.24999998565923173  1.0000
  Sr  Sr2       1.0  0.7499999796233504  0.750000041496675  0.7499999911722912  1.0000
  Zn  Zn1       1.0  1.9544969953040005e-08  1.663173685153902e-08  0.999999995491402  1.0000
  Te  Te1       1.0  0.2661558372661387  0.2661558472922812  0.7338441318617472  1.0000
  Te  Te2       1.0  0.7338441933094907  0.7338441492711527  0.26615580301209596  1.0000
  Te  Te3       1.0  0.7338441273978091  0.2661558319002375  0.26615587410772795  1.0000
  Te  Te4       1.0  0.2661558107413677  0.7338441879476244  0.7338441822525633  1.0000
  Te  Te5       1.0  0.2661558442197572  0.73384417192349  0.266155822895389  1.0000
  Te  Te6       1.0  0.7338441444776564  0.26615582796629006  0.7338442005111421  1.0000
