data_image0
_chemical_formula_structural       Sr2ZnO6
_chemical_formula_sum              "Sr2 Zn1 O6"
_cell_length_a       5.350034524472516
_cell_length_b       5.350034849680901
_cell_length_c       5.350034822262122
_cell_angle_alpha    59.999997473476675
_cell_angle_beta     60.000000199942335
_cell_angle_gamma    59.99999551692474

_space_group_name_H-M_alt    "P 1"
_space_group_IT_number       1

loop_
  _space_group_symop_operation_xyz
  'x, y, z'

loop_
  _atom_site_type_symbol
  _atom_site_label
  _atom_site_symmetry_multiplicity
  _atom_site_fract_x
  _atom_site_fract_y
  _atom_site_fract_z
  _atom_site_occupancy
  Sr  Sr1       1.0  0.25000008316268296  0.24999998256873912  0.24999996194731988  1.0000
  Sr  Sr2       1.0  0.7500000193984974  0.7500000163830682  0.7499999086047567  1.0000
  Zn  Zn1       1.0  2.0034817787239951e-07  2.0831973898798625e-07  0.9999995975364889  1.0000
  O   O1        1.0  0.2585998024675478  0.2585997247081756  0.741400273961571  1.0000
  O   O2        1.0  0.7414000895411518  0.7414001483361018  0.25859987883846003  1.0000
  O   O3        1.0  0.741400199435427  0.25859966027751985  0.25859966955382946  1.0000
  O   O4        1.0  0.2585994777638486  0.7414004233757349  0.7414005376825252  1.0000
  O   O5        1.0  0.2585997237036974  0.7414002449819669  0.25859975665980484  1.0000
  O   O6        1.0  0.7414004217431406  0.25859957998850575  0.7414004542046816  1.0000
