data_image0
_chemical_formula_structural       Sr2ZnS6
_chemical_formula_sum              "Sr2 Zn1 S6"
_cell_length_a       6.387746090969072
_cell_length_b       6.387745774856951
_cell_length_c       6.387745750308365
_cell_angle_alpha    60.000000467279
_cell_angle_beta     60.00000207691639
_cell_angle_gamma    60.000000203518425

_space_group_name_H-M_alt    "P 1"
_space_group_IT_number       1

loop_
  _space_group_symop_operation_xyz
  'x, y, z'

loop_
  _atom_site_type_symbol
  _atom_site_label
  _atom_site_symmetry_multiplicity
  _atom_site_fract_x
  _atom_site_fract_y
  _atom_site_fract_z
  _atom_site_occupancy
  Sr  Sr1       1.0  0.24999994710364817  0.24999999801553677  0.2499999887296819  1.0000
  Sr  Sr2       1.0  0.7500000393350265  0.7499999422785657  0.7499999619429175  1.0000
  Zn  Zn1       1.0  0.9999999852284059  0.9999999846613197  1.6620634585771898e-08  1.0000
  S   S1        1.0  0.2583904161525545  0.25839044154979834  0.7416096130784837  1.0000
  S   S2        1.0  0.7416095990993566  0.7416095044963096  0.258390431461817  1.0000
  S   S3        1.0  0.7416096310011561  0.258390477838258  0.25839038953409443  1.0000
  S   S4        1.0  0.25839035340729793  0.7416096637760229  0.7416095804713363  1.0000
  S   S5        1.0  0.25839043170901843  0.7416095436090336  0.2583904720497705  1.0000
  S   S6        1.0  0.7416095958676945  0.2583904196930896  0.741609557700122  1.0000
