data_image0
_chemical_formula_structural       Sr2ZnSe6
_chemical_formula_sum              "Sr2 Zn1 Se6"
_cell_length_a       6.714595630402677
_cell_length_b       6.714595688625651
_cell_length_c       6.714595976951604
_cell_angle_alpha    59.99999766262858
_cell_angle_beta     59.99999664655972
_cell_angle_gamma    60.00000155435586

_space_group_name_H-M_alt    "P 1"
_space_group_IT_number       1

loop_
  _space_group_symop_operation_xyz
  'x, y, z'

loop_
  _atom_site_type_symbol
  _atom_site_label
  _atom_site_symmetry_multiplicity
  _atom_site_fract_x
  _atom_site_fract_y
  _atom_site_fract_z
  _atom_site_occupancy
  Sr  Sr1       1.0  0.24999994843085574  0.25000000813351353  0.2500000349737211  1.0000
  Sr  Sr2       1.0  0.7500000085764534  0.7499999988644918  0.7499999779648203  1.0000
  Zn  Zn1       1.0  1.7319085256440788e-08  0.9999999635199218  1.287239271380686e-07  1.0000
  Se  Se1       1.0  0.2644378506773006  0.2644378584825361  0.7355620841586731  1.0000
  Se  Se2       1.0  0.7355621424971341  0.7355620554912711  0.2644379393368902  1.0000
  Se  Se3       1.0  0.7355621543658654  0.26443792730009213  0.2644378321037908  1.0000
  Se  Se4       1.0  0.26443793021126233  0.7355620632818827  0.7355620895148259  1.0000
  Se  Se5       1.0  0.2644378962888824  0.7355620853124191  0.2644378728182154  1.0000
  Se  Se6       1.0  0.7355620492170302  0.2644380438938483  0.735562038598813  1.0000
