data_image0
_chemical_formula_structural       Ta2CN6
_chemical_formula_sum              "Ta2 C1 N6"
_cell_length_a       4.7375744838315805
_cell_length_b       4.737574375146778
_cell_length_c       4.737574448393861
_cell_angle_alpha    59.99999895625976
_cell_angle_beta     59.99999876399213
_cell_angle_gamma    59.99999971893613

_space_group_name_H-M_alt    "P 1"
_space_group_IT_number       1

loop_
  _space_group_symop_operation_xyz
  'x, y, z'

loop_
  _atom_site_type_symbol
  _atom_site_label
  _atom_site_symmetry_multiplicity
  _atom_site_fract_x
  _atom_site_fract_y
  _atom_site_fract_z
  _atom_site_occupancy
  Ta  Ta1       1.0  0.2500001793451136  0.24999988835151377  0.24999993612788463  1.0000
  Ta  Ta2       1.0  0.7499999760396542  0.7500001226301374  0.750000208873191  1.0000
  C   C1        1.0  0.9999996014362487  0.9999999819037865  0.9999991761562337  1.0000
  N   N1        1.0  0.2381869527224508  0.23818712664037667  0.7618128050525622  1.0000
  N   N2        1.0  0.7618132102149109  0.7618132126582318  0.23818653455673533  1.0000
  N   N3        1.0  0.7618126226572393  0.23818724540479166  0.2381871980326167  1.0000
  N   N4        1.0  0.23818642747449964  0.7618135075214684  0.7618133481442945  1.0000
  N   N5        1.0  0.2381874783684314  0.7618125719133625  0.23818731543284122  1.0000
  N   N6        1.0  0.761813565993969  0.23818632227360859  0.7618134901700083  1.0000
