data_image0
_chemical_formula_structural       Ta2CrN6
_chemical_formula_sum              "Ta2 Cr1 N6"
_cell_length_a       4.873715126107704
_cell_length_b       4.873714990691136
_cell_length_c       4.873715015048662
_cell_angle_alpha    60.00000061424763
_cell_angle_beta     60.0000003030844
_cell_angle_gamma    60.00000015141436

_space_group_name_H-M_alt    "P 1"
_space_group_IT_number       1

loop_
  _space_group_symop_operation_xyz
  'x, y, z'

loop_
  _atom_site_type_symbol
  _atom_site_label
  _atom_site_symmetry_multiplicity
  _atom_site_fract_x
  _atom_site_fract_y
  _atom_site_fract_z
  _atom_site_occupancy
  Ta  Ta1       1.0  0.249999952351237  0.24999998572787172  0.2500000915926055  1.0000
  Ta  Ta2       1.0  0.7500000249823819  0.7499999722613697  0.7499998816566393  1.0000
  Cr  Cr1       1.0  0.9999999715691089  0.9999999999999998  6.008154165012833e-09  1.0000
  N   N1        1.0  0.2647813010425222  0.2647813045957019  0.7352187337358732  1.0000
  N   N2        1.0  0.735218674447412  0.7352187086786516  0.26478138719760375  1.0000
  N   N3        1.0  0.7352186651540872  0.26478133110997215  0.2647813039934476  1.0000
  N   N4        1.0  0.26478130698523544  0.735218692216218  0.7352186617545232  1.0000
  N   N5        1.0  0.264781325421313  0.7352186646409133  0.26478130941661376  1.0000
  N   N6        1.0  0.7352187518022633  0.2647813561723177  0.7352186091493552  1.0000
