data_image0
_chemical_formula_structural       Ta2CoN6
_chemical_formula_sum              "Ta2 Co1 N6"
_cell_length_a       4.835537119276118
_cell_length_b       4.835537173173735
_cell_length_c       4.835537112031794
_cell_angle_alpha    60.00000088701097
_cell_angle_beta     60.000001471794235
_cell_angle_gamma    60.0000004070877

_space_group_name_H-M_alt    "P 1"
_space_group_IT_number       1

loop_
  _space_group_symop_operation_xyz
  'x, y, z'

loop_
  _atom_site_type_symbol
  _atom_site_label
  _atom_site_symmetry_multiplicity
  _atom_site_fract_x
  _atom_site_fract_y
  _atom_site_fract_z
  _atom_site_occupancy
  Ta  Ta1       1.0  0.25000002345445427  0.2499999480071785  0.25000005382225315  1.0000
  Ta  Ta2       1.0  0.7499999483338103  0.7500000238503373  0.7500000105538012  1.0000
  Co  Co1       1.0  0.9999999675330127  3.29264003460773e-08  3.699469991611241e-08  1.0000
  N   N1        1.0  0.26144323704745215  0.26144332073950693  0.7385566437697598  1.0000
  N   N2        1.0  0.7385566811671547  0.7385567473644096  0.26144319660370846  1.0000
  N   N3        1.0  0.7385567407470321  0.2614432042571048  0.26144333928711344  1.0000
  N   N4        1.0  0.2614433270185166  0.73855670174761  0.7385567369109937  1.0000
  N   N5        1.0  0.261443272387404  0.7385567448340792  0.26144326044791466  1.0000
  N   N6        1.0  0.7385567728229437  0.2614433004746365  0.7385566953351148  1.0000
