data_image0
_chemical_formula_structural       Ta2GeN6
_chemical_formula_sum              "Ta2 Ge1 N6"
_cell_length_a       4.844414330571577
_cell_length_b       4.844414267517545
_cell_length_c       4.844414374243301
_cell_angle_alpha    60.000000179629595
_cell_angle_beta     60.0000000825997
_cell_angle_gamma    59.999998865014824

_space_group_name_H-M_alt    "P 1"
_space_group_IT_number       1

loop_
  _space_group_symop_operation_xyz
  'x, y, z'

loop_
  _atom_site_type_symbol
  _atom_site_label
  _atom_site_symmetry_multiplicity
  _atom_site_fract_x
  _atom_site_fract_y
  _atom_site_fract_z
  _atom_site_occupancy
  Ta  Ta1       1.0  0.2500000508423632  0.24999993125043873  0.2500000346901163  1.0000
  Ta  Ta2       1.0  0.7500000428580165  0.7499998367300171  0.7500000507177492  1.0000
  Ge  Ge1       1.0  0.9999999872394255  2.5281591531196925e-09  2.3694304638492673e-08  1.0000
  N   N1        1.0  0.270645419401626  0.27064546200853906  0.7293545548632508  1.0000
  N   N2        1.0  0.7293544325169004  0.7293546523296808  0.2706454906420587  1.0000
  N   N3        1.0  0.7293546184910832  0.2706455330285138  0.27064535643508164  1.0000
  N   N4        1.0  0.2706454703882779  0.7293545711970674  0.7293544910125777  1.0000
  N   N5        1.0  0.2706454219518673  0.7293544609507618  0.27064549876525495  1.0000
  N   N6        1.0  0.7293545785206158  0.2706455295076728  0.7293545075679394  1.0000
