data_image0
_chemical_formula_structural       Ta2MnN6
_chemical_formula_sum              "Ta2 Mn1 N6"
_cell_length_a       4.832604141588205
_cell_length_b       4.832603877627381
_cell_length_c       4.83260415860626
_cell_angle_alpha    60.00000022378245
_cell_angle_beta     59.99999989593862
_cell_angle_gamma    60.00000055899268

_space_group_name_H-M_alt    "P 1"
_space_group_IT_number       1

loop_
  _space_group_symop_operation_xyz
  'x, y, z'

loop_
  _atom_site_type_symbol
  _atom_site_label
  _atom_site_symmetry_multiplicity
  _atom_site_fract_x
  _atom_site_fract_y
  _atom_site_fract_z
  _atom_site_occupancy
  Ta  Ta1       1.0  0.24999999184683822  0.24999996362311458  0.24999997268819257  1.0000
  Ta  Ta2       1.0  0.7499999692874413  0.7500000099832046  0.7500000064836246  1.0000
  Mn  Mn1       1.0  0.9999999907322982  0.9999999847939752  1.8904745322558408e-09  1.0000
  N   N1        1.0  0.2682273723982637  0.26822730057962824  0.7317726764542396  1.0000
  N   N2        1.0  0.7317726127251805  0.7317727515911533  0.26822736111248313  1.0000
  N   N3        1.0  0.7317726783441642  0.2682273350834491  0.2682272925890781  1.0000
  N   N4        1.0  0.2682273013255185  0.7317726689349209  0.7317727345337319  1.0000
  N   N5        1.0  0.2682273528090594  0.7317726576738915  0.26822732430178736  1.0000
  N   N6        1.0  0.7317727196371144  0.26822732606978067  0.7317726645008478  1.0000
