data_image0
_chemical_formula_structural       Ta2MoN6
_chemical_formula_sum              "Ta2 Mo1 N6"
_cell_length_a       5.054408409161666
_cell_length_b       5.054408457943243
_cell_length_c       5.05440850875205
_cell_angle_alpha    59.99999947019382
_cell_angle_beta     60.00000018292227
_cell_angle_gamma    60.00000114921534

_space_group_name_H-M_alt    "P 1"
_space_group_IT_number       1

loop_
  _space_group_symop_operation_xyz
  'x, y, z'

loop_
  _atom_site_type_symbol
  _atom_site_label
  _atom_site_symmetry_multiplicity
  _atom_site_fract_x
  _atom_site_fract_y
  _atom_site_fract_z
  _atom_site_occupancy
  Ta  Ta1       1.0  0.2500001553902652  0.24999990488751797  0.24999995832885943  1.0000
  Ta  Ta2       1.0  0.7500000326343982  0.7499999666672438  0.7499999736663123  1.0000
  Mo  Mo1       1.0  0.9999999795777081  0.9999999927306333  3.758747957980387e-08  1.0000
  N   N1        1.0  0.27167884592867597  0.2716787930444493  0.728321166241369  1.0000
  N   N2        1.0  0.7283211008530346  0.7283213498999813  0.271678794206802  1.0000
  N   N3        1.0  0.7283211309945251  0.27167883695822753  0.2716788869382809  1.0000
  N   N4        1.0  0.27167879315168  0.7283211751376107  0.7283211443165265  1.0000
  N   N5        1.0  0.27167878542180973  0.7283211388292093  0.2716788933568471  1.0000
  N   N6        1.0  0.7283211426243515  0.2716788684203845  0.7283211403495752  1.0000
