data_image0
_chemical_formula_structural       Ta2NiN6
_chemical_formula_sum              "Ta2 Ni1 N6"
_cell_length_a       4.830028698020339
_cell_length_b       4.83002867775828
_cell_length_c       4.830028746083023
_cell_angle_alpha    59.999999411553986
_cell_angle_beta     59.99999982826241
_cell_angle_gamma    59.99999987878841

_space_group_name_H-M_alt    "P 1"
_space_group_IT_number       1

loop_
  _space_group_symop_operation_xyz
  'x, y, z'

loop_
  _atom_site_type_symbol
  _atom_site_label
  _atom_site_symmetry_multiplicity
  _atom_site_fract_x
  _atom_site_fract_y
  _atom_site_fract_z
  _atom_site_occupancy
  Ta  Ta1       1.0  0.2500000569751311  0.24999998979134727  0.24999996570491514  1.0000
  Ta  Ta2       1.0  0.7499999651329803  0.7500000631945203  0.7499999820860471  1.0000
  Ni  Ni1       1.0  0.9999999812848129  2.0285508987865194e-08  0.9999999847221716  1.0000
  N   N1        1.0  0.2649605847093881  0.2649604807575348  0.7350394888552558  1.0000
  N   N2        1.0  0.7350394512373141  0.7350394733364763  0.26496053458843616  1.0000
  N   N3        1.0  0.7350394611163632  0.2649605004125079  0.2649605354757432  1.0000
  N   N4        1.0  0.2649605187096591  0.7350394714313234  0.7350394678161384  1.0000
  N   N5        1.0  0.2649605034576541  0.7350394647460744  0.2649605477139539  1.0000
  N   N6        1.0  0.7350394767785424  0.2649605273832659  0.7350395052711367  1.0000
