data_image0
_chemical_formula_structural       Ta2OsN6
_chemical_formula_sum              "Ta2 Os1 N6"
_cell_length_a       4.9608193636877225
_cell_length_b       4.960819390523328
_cell_length_c       4.960819394871047
_cell_angle_alpha    59.99999987080469
_cell_angle_beta     60.00000050457141
_cell_angle_gamma    60.00000004814008

_space_group_name_H-M_alt    "P 1"
_space_group_IT_number       1

loop_
  _space_group_symop_operation_xyz
  'x, y, z'

loop_
  _atom_site_type_symbol
  _atom_site_label
  _atom_site_symmetry_multiplicity
  _atom_site_fract_x
  _atom_site_fract_y
  _atom_site_fract_z
  _atom_site_occupancy
  Ta  Ta1       1.0  0.24999994504197118  0.2500000112288908  0.2500000295857744  1.0000
  Ta  Ta2       1.0  0.7500000087348297  0.7500000435620156  0.7499999990309906  1.0000
  Os  Os1       1.0  0.9999999887853812  0.9999999777804776  0.9999999804327422  1.0000
  N   N1        1.0  0.2631287983198488  0.26312875246978984  0.7368712187935138  1.0000
  N   N2        1.0  0.7368711902788183  0.7368712257872055  0.26312878028437336  1.0000
  N   N3        1.0  0.7368712313129285  0.2631287802071181  0.26312873716690216  1.0000
  N   N4        1.0  0.2631287430132789  0.7368712548331017  0.7368712729083389  1.0000
  N   N5        1.0  0.2631288070979885  0.7368711850505021  0.26312875805349456  1.0000
  N   N6        1.0  0.7368712848810127  0.26312878333114975  0.7368712305562263  1.0000
