data_image0
_chemical_formula_structural       Ta2PN6
_chemical_formula_sum              "Ta2 P1 N6"
_cell_length_a       4.6768783881772595
_cell_length_b       4.676878780984242
_cell_length_c       4.676878052435308
_cell_angle_alpha    59.9999998041914
_cell_angle_beta     60.000005006200034
_cell_angle_gamma    60.000004288804895

_space_group_name_H-M_alt    "P 1"
_space_group_IT_number       1

loop_
  _space_group_symop_operation_xyz
  'x, y, z'

loop_
  _atom_site_type_symbol
  _atom_site_label
  _atom_site_symmetry_multiplicity
  _atom_site_fract_x
  _atom_site_fract_y
  _atom_site_fract_z
  _atom_site_occupancy
  Ta  Ta1       1.0  0.2499996770147794  0.24999968717829196  0.2500003862761296  1.0000
  Ta  Ta2       1.0  0.7500002963557886  0.7499999911814739  0.7499998988477877  1.0000
  P   P1        1.0  0.9999999865811577  9.951146391369119e-08  0.9999999291573647  1.0000
  N   N1        1.0  0.25237011673001786  0.2523700490215055  0.7476297168464717  1.0000
  N   N2        1.0  0.7476296405617875  0.7476300849960236  0.25237016197200646  1.0000
  N   N3        1.0  0.7476299565766897  0.2523701336372032  0.2523701048893798  1.0000
  N   N4        1.0  0.2523697998679101  0.7476299584807522  0.7476299449749833  1.0000
  N   N5        1.0  0.2523702385240497  0.7476299881986086  0.2523700110415145  1.0000
  N   N6        1.0  0.7476301721423716  0.25237019295593743  0.7476296265682607  1.0000
