data_image0
_chemical_formula_structural       Ta2RuN6
_chemical_formula_sum              "Ta2 Ru1 N6"
_cell_length_a       4.954427698367514
_cell_length_b       4.954427623545477
_cell_length_c       4.954427605280906
_cell_angle_alpha    59.99999931644126
_cell_angle_beta     59.999999166049044
_cell_angle_gamma    59.99999906946287

_space_group_name_H-M_alt    "P 1"
_space_group_IT_number       1

loop_
  _space_group_symop_operation_xyz
  'x, y, z'

loop_
  _atom_site_type_symbol
  _atom_site_label
  _atom_site_symmetry_multiplicity
  _atom_site_fract_x
  _atom_site_fract_y
  _atom_site_fract_z
  _atom_site_occupancy
  Ta  Ta1       1.0  0.24999991909881497  0.2500000509335208  0.25000000614225487  1.0000
  Ta  Ta2       1.0  0.7499999661617587  0.7500000366155772  0.7500000810800167  1.0000
  Ru  Ru1       1.0  0.9999999992002502  0.999999960447665  0.9999999899000931  1.0000
  N   N1        1.0  0.2656146276158753  0.2656145149618318  0.7343854271433952  1.0000
  N   N2        1.0  0.7343854908303499  0.7343853624654864  0.26561452340634806  1.0000
  N   N3        1.0  0.7343854144836051  0.26561457160678675  0.2656145509888506  1.0000
  N   N4        1.0  0.2656145551285298  0.734385451669767  0.734385465642013  1.0000
  N   N5        1.0  0.2656145575989256  0.7343854509001211  0.26561456227114  1.0000
  N   N6        1.0  0.7343854760230926  0.2656145970966419  0.7343854200866597  1.0000
