data_image0
_chemical_formula_structural       Ta2RhN6
_chemical_formula_sum              "Ta2 Rh1 N6"
_cell_length_a       4.913944957822683
_cell_length_b       4.913945082472116
_cell_length_c       4.913944980398159
_cell_angle_alpha    60.00000043758811
_cell_angle_beta     59.999999986173194
_cell_angle_gamma    60.00000111571743

_space_group_name_H-M_alt    "P 1"
_space_group_IT_number       1

loop_
  _space_group_symop_operation_xyz
  'x, y, z'

loop_
  _atom_site_type_symbol
  _atom_site_label
  _atom_site_symmetry_multiplicity
  _atom_site_fract_x
  _atom_site_fract_y
  _atom_site_fract_z
  _atom_site_occupancy
  Ta  Ta1       1.0  0.24999998781693736  0.2500000620762778  0.24999996666228982  1.0000
  Ta  Ta2       1.0  0.749999963809263  0.7500000441628233  0.7500000603817415  1.0000
  Rh  Rh1       1.0  0.999999995988565  4.984772220994722e-09  7.653430642284651e-09  1.0000
  N   N1        1.0  0.27436735238734233  0.2743672997805373  0.7256326736040277  1.0000
  N   N2        1.0  0.7256326855682089  0.7256326743620992  0.2743673010276423  1.0000
  N   N3        1.0  0.725632706368284  0.2743673154523953  0.2743673245724618  1.0000
  N   N4        1.0  0.27436730908661744  0.7256326063501322  0.7256326895146126  1.0000
  N   N5        1.0  0.274367349538848  0.7256326452481282  0.27436729810161203  1.0000
  N   N6        1.0  0.7256326653214304  0.27436734883359726  0.7256326618279513  1.0000
