data_image0
_chemical_formula_structural       Ta2SiN6
_chemical_formula_sum              "Ta2 Si1 N6"
_cell_length_a       4.7169183251006155
_cell_length_b       4.716918042335955
_cell_length_c       4.7169181520332915
_cell_angle_alpha    59.99999867402055
_cell_angle_beta     59.99999823878285
_cell_angle_gamma    59.999998136792804

_space_group_name_H-M_alt    "P 1"
_space_group_IT_number       1

loop_
  _space_group_symop_operation_xyz
  'x, y, z'

loop_
  _atom_site_type_symbol
  _atom_site_label
  _atom_site_symmetry_multiplicity
  _atom_site_fract_x
  _atom_site_fract_y
  _atom_site_fract_z
  _atom_site_occupancy
  Ta  Ta1       1.0  0.2500000414619451  0.2499999574548284  0.2500000328740716  1.0000
  Ta  Ta2       1.0  0.7500000028259699  0.7499999139083869  0.7499999987083307  1.0000
  Si  Si1       1.0  0.9999999825670237  1.5578963364992858e-08  0.999999988206837  1.0000
  N   N1        1.0  0.2654089344813887  0.2654089387129742  0.7345910876883803  1.0000
  N   N2        1.0  0.7345910144532548  0.7345912260540525  0.26540881730838484  1.0000
  N   N3        1.0  0.7345910585563806  0.26540890684949076  0.26540887122700335  1.0000
  N   N4        1.0  0.2654089576155901  0.7345910268295782  0.7345911390153881  1.0000
  N   N5        1.0  0.2654087722333774  0.734591125779319  0.2654090216198273  1.0000
  N   N6        1.0  0.734591284786594  0.26540889098755566  0.7345909966155938  1.0000
