data_image0
_chemical_formula_structural       Ta2SN6
_chemical_formula_sum              "Ta2 S1 N6"
_cell_length_a       4.726934897326161
_cell_length_b       4.726934473641703
_cell_length_c       4.726934645579921
_cell_angle_alpha    59.99999937917614
_cell_angle_beta     60.000002157657505
_cell_angle_gamma    60.000001250098734

_space_group_name_H-M_alt    "P 1"
_space_group_IT_number       1

loop_
  _space_group_symop_operation_xyz
  'x, y, z'

loop_
  _atom_site_type_symbol
  _atom_site_label
  _atom_site_symmetry_multiplicity
  _atom_site_fract_x
  _atom_site_fract_y
  _atom_site_fract_z
  _atom_site_occupancy
  Ta  Ta1       1.0  0.2500000029981781  0.25000003385025155  0.24999998283398406  1.0000
  Ta  Ta2       1.0  0.7499999236443567  0.7500000937777762  0.7499999675615631  1.0000
  S   S1        1.0  1.8852424065448977e-08  0.999999950771155  4.2690177191869394e-08  1.0000
  N   N1        1.0  0.24823269389617217  0.24823272078723566  0.7517673017753455  1.0000
  N   N2        1.0  0.7517672509087288  0.7517673083831014  0.24823271838536634  1.0000
  N   N3        1.0  0.7517673638154274  0.2482327011360744  0.2482326745502364  1.0000
  N   N4        1.0  0.24823269957799796  0.7517672580774851  0.7517672874460275  1.0000
  N   N5        1.0  0.24823269455252686  0.7517672451422308  0.24823275481269078  1.0000
  N   N6        1.0  0.7517673365170642  0.24823270111636864  0.7517672869424397  1.0000
