data_image0
_chemical_formula_structural       Ta2SeN6
_chemical_formula_sum              "Ta2 Se1 N6"
_cell_length_a       4.9602535563253785
_cell_length_b       4.9602534292833855
_cell_length_c       4.960253501322085
_cell_angle_alpha    59.999999703920686
_cell_angle_beta     59.99999987627784
_cell_angle_gamma    60.00000005501391

_space_group_name_H-M_alt    "P 1"
_space_group_IT_number       1

loop_
  _space_group_symop_operation_xyz
  'x, y, z'

loop_
  _atom_site_type_symbol
  _atom_site_label
  _atom_site_symmetry_multiplicity
  _atom_site_fract_x
  _atom_site_fract_y
  _atom_site_fract_z
  _atom_site_occupancy
  Ta  Ta1       1.0  0.2500000411066572  0.24999995013233134  0.2500000419732184  1.0000
  Ta  Ta2       1.0  0.7499999400002918  0.7500000232352205  0.7500000847917849  1.0000
  Se  Se1       1.0  4.039744588146261e-08  0.9999999975308828  0.9999999689396796  1.0000
  N   N1        1.0  0.25539130852352804  0.25539127770713255  0.7446086979630411  1.0000
  N   N2        1.0  0.7446086469764525  0.7446086956604185  0.25539128637144515  1.0000
  N   N3        1.0  0.7446087057475463  0.255391319838242  0.2553912423261695  1.0000
  N   N4        1.0  0.25539127514550775  0.7446087868616568  0.7446086888539443  1.0000
  N   N5        1.0  0.25539131822902333  0.7446087207354289  0.2553912381320471  1.0000
  N   N6        1.0  0.7446087110821301  0.2553912476938877  0.7446087278941775  1.0000
