data_image0
_chemical_formula_structural       Ta2TiN6
_chemical_formula_sum              "Ta2 Ti1 N6"
_cell_length_a       4.9871379215286264
_cell_length_b       4.98713791985156
_cell_length_c       4.987137891847259
_cell_angle_alpha    60.00000020630553
_cell_angle_beta     60.000000609034934
_cell_angle_gamma    60.00000027916122

_space_group_name_H-M_alt    "P 1"
_space_group_IT_number       1

loop_
  _space_group_symop_operation_xyz
  'x, y, z'

loop_
  _atom_site_type_symbol
  _atom_site_label
  _atom_site_symmetry_multiplicity
  _atom_site_fract_x
  _atom_site_fract_y
  _atom_site_fract_z
  _atom_site_occupancy
  Ta  Ta1       1.0  0.24999985127676885  0.25000014767231293  0.25000002020681134  1.0000
  Ta  Ta2       1.0  0.7500000403444712  0.7499999420322919  0.7500000097060914  1.0000
  Ti  Ti1       1.0  2.2475418813661598e-08  0.9999999950883859  0.9999999872077815  1.0000
  N   N1        1.0  0.2704991109053653  0.270499198623866  0.7295008497598854  1.0000
  N   N2        1.0  0.7295009123662707  0.7295007461881202  0.27049921885665884  1.0000
  N   N3        1.0  0.7295008200339911  0.2704992189908905  0.27049912345762733  1.0000
  N   N4        1.0  0.2704991468022766  0.7295008117743441  0.7295008902968145  1.0000
  N   N5        1.0  0.2704992072320582  0.7295007706335491  0.27049911658597736  1.0000
  N   N6        1.0  0.7295008860379935  0.2704991864574728  0.7295007845668804  1.0000
