data_image0
_chemical_formula_structural       Ta2VN6
_chemical_formula_sum              "Ta2 V1 N6"
_cell_length_a       4.9104731485599045
_cell_length_b       4.9104728956736166
_cell_length_c       4.91047289731151
_cell_angle_alpha    60.00000059049619
_cell_angle_beta     60.00000029714827
_cell_angle_gamma    59.99999989221999

_space_group_name_H-M_alt    "P 1"
_space_group_IT_number       1

loop_
  _space_group_symop_operation_xyz
  'x, y, z'

loop_
  _atom_site_type_symbol
  _atom_site_label
  _atom_site_symmetry_multiplicity
  _atom_site_fract_x
  _atom_site_fract_y
  _atom_site_fract_z
  _atom_site_occupancy
  Ta  Ta1       1.0  0.2500001404531834  0.24999996879048053  0.24999996044370273  1.0000
  Ta  Ta2       1.0  0.7499999929086462  0.7500000136198258  0.7500000297135908  1.0000
  V   V1        1.0  0.9999999224247883  0.9999999575994746  3.9623231800159826e-08  1.0000
  N   N1        1.0  0.26802007249508364  0.26802012313825957  0.7319799011227908  1.0000
  N   N2        1.0  0.731979850131842  0.7319799764970254  0.26802006654970095  1.0000
  N   N3        1.0  0.7319798458980383  0.26802015236277543  0.2680200789648378  1.0000
  N   N4        1.0  0.26802010749005123  0.7319798549890149  0.731979954088702  1.0000
  N   N5        1.0  0.2680201619399453  0.7319798593554208  0.2680200764860219  1.0000
  N   N6        1.0  0.7319799227534812  0.2680200856426566  0.7319798711801108  1.0000
