data_image0
_chemical_formula_structural       Ta2WN6
_chemical_formula_sum              "Ta2 W1 N6"
_cell_length_a       2.2300841375511222
_cell_length_b       4.533806462346306
_cell_length_c       4.445630199312065
_cell_angle_alpha    36.074286117981686
_cell_angle_beta     80.46091478207295
_cell_angle_gamma    96.50325866927874

_space_group_name_H-M_alt    "P 1"
_space_group_IT_number       1

loop_
  _space_group_symop_operation_xyz
  'x, y, z'

loop_
  _atom_site_type_symbol
  _atom_site_label
  _atom_site_symmetry_multiplicity
  _atom_site_fract_x
  _atom_site_fract_y
  _atom_site_fract_z
  _atom_site_occupancy
  Ta  Ta1       1.0  0.8046070344100407  0.4383398681940808  0.9719755161204633  1.0000
  Ta  Ta2       1.0  0.7997497292911849  0.3696298218604507  0.9959601290223972  1.0000
  W   W1        1.0  0.30455247270961994  0.43086101923566356  0.9686664754938744  1.0000
  N   N1        1.0  0.6482623370243189  0.59985161976046  0.5217716569676638  1.0000
  N   N2        1.0  0.3589834648770713  0.45369411918269703  0.40853844383794113  1.0000
  N   N3        1.0  0.9129725703589135  0.15217054953913647  0.729796323059136  1.0000
  N   N4        1.0  0.8860953071855172  0.26235066411327734  0.9038299615163654  1.0000
  N   N5        1.0  0.5202523748082178  0.24314837035386988  0.3054556155921604  1.0000
  N   N6        1.0  0.38287302369360665  0.8299853386934939  0.6746790352187716  1.0000
