data_image0
_chemical_formula_structural       Te2CrN6
_chemical_formula_sum              "Te2 Cr1 N6"
_cell_length_a       5.287684733763554
_cell_length_b       5.287684661987986
_cell_length_c       5.287684726048612
_cell_angle_alpha    59.999999468314115
_cell_angle_beta     59.99999969967108
_cell_angle_gamma    59.999998792785426

_space_group_name_H-M_alt    "P 1"
_space_group_IT_number       1

loop_
  _space_group_symop_operation_xyz
  'x, y, z'

loop_
  _atom_site_type_symbol
  _atom_site_label
  _atom_site_symmetry_multiplicity
  _atom_site_fract_x
  _atom_site_fract_y
  _atom_site_fract_z
  _atom_site_occupancy
  Te  Te1       1.0  0.24999986203330765  0.24999982865631298  0.2500001569596252  1.0000
  Te  Te2       1.0  0.7499998027149655  0.7500005329010501  0.7499997937168117  1.0000
  Cr  Cr1       1.0  3.546994036542581e-08  0.9999999722053419  1.3183040768477445e-08  1.0000
  N   N1        1.0  0.2502874192271827  0.2502870099242827  0.74971274365841  1.0000
  N   N2        1.0  0.7497127681540181  0.7497127795263689  0.250287182584059  1.0000
  N   N3        1.0  0.7497128908376638  0.25028700850701  0.25028740742041783  1.0000
  N   N4        1.0  0.25028719617783896  0.7497128527465085  0.7497126938543521  1.0000
  N   N5        1.0  0.25028714816241915  0.7497129037867486  0.25028728276888984  1.0000
  N   N6        1.0  0.7497128564191057  0.25028711960227457  0.7497127351578184  1.0000
