data_image0
_chemical_formula_structural       Te2CoN6
_chemical_formula_sum              "Te2 Co1 N6"
_cell_length_a       5.315192637394338
_cell_length_b       5.3151929898893036
_cell_length_c       5.315192692659085
_cell_angle_alpha    60.00000168524533
_cell_angle_beta     60.00000107664236
_cell_angle_gamma    59.99999715547004

_space_group_name_H-M_alt    "P 1"
_space_group_IT_number       1

loop_
  _space_group_symop_operation_xyz
  'x, y, z'

loop_
  _atom_site_type_symbol
  _atom_site_label
  _atom_site_symmetry_multiplicity
  _atom_site_fract_x
  _atom_site_fract_y
  _atom_site_fract_z
  _atom_site_occupancy
  Te  Te1       1.0  0.25000075564720387  0.25000110823287225  0.2499993627404549  1.0000
  Te  Te2       1.0  0.7499996290252438  0.7499987577068997  0.7500010208972212  1.0000
  Co  Co1       1.0  0.9999999051801547  0.9999999976957702  2.0471818140938165e-07  1.0000
  N   N1        1.0  0.24636520989509633  0.2463656963391994  0.753634300376387  1.0000
  N   N2        1.0  0.7536346259296789  0.7536345843627373  0.24636526228355027  1.0000
  N   N3        1.0  0.7536340631678181  0.24636610282732743  0.2463648450050817  1.0000
  N   N4        1.0  0.24636588319237976  0.7536339635808356  0.7536349821321574  1.0000
  N   N5        1.0  0.24636585096512617  0.7536339211657558  0.24636514498126094  1.0000
  N   N6        1.0  0.7536340874998361  0.24636587564702464  0.7536348566478751  1.0000
