data_image0
_chemical_formula_structural       Te2CN6
_chemical_formula_sum              "Te2 C1 N6"
_cell_length_a       5.209445268367976
_cell_length_b       5.209444997214472
_cell_length_c       5.209445418685116
_cell_angle_alpha    60.00000067798111
_cell_angle_beta     59.99999826564994
_cell_angle_gamma    60.000001423874

_space_group_name_H-M_alt    "P 1"
_space_group_IT_number       1

loop_
  _space_group_symop_operation_xyz
  'x, y, z'

loop_
  _atom_site_type_symbol
  _atom_site_label
  _atom_site_symmetry_multiplicity
  _atom_site_fract_x
  _atom_site_fract_y
  _atom_site_fract_z
  _atom_site_occupancy
  Te  Te1       1.0  0.24999944079254202  0.2500009461235441  0.24999986336123212  1.0000
  Te  Te2       1.0  0.7499997706283111  0.7500007013040889  0.7499996772664856  1.0000
  C   C1        1.0  0.9999996126794768  3.573532645948883e-07  2.261385547758474e-07  1.0000
  N   N1        1.0  0.22627487184121747  0.22627447241852822  0.7737253593992888  1.0000
  N   N2        1.0  0.7737256626508281  0.7737250543996312  0.22627467789660458  1.0000
  N   N3        1.0  0.7737255203667278  0.22627416944191378  0.2262748258227735  1.0000
  N   N4        1.0  0.2262749535257309  0.7737248542604536  0.7737252879346533  1.0000
  N   N5        1.0  0.22627474349172505  0.7737248788504643  0.22627476340460834  1.0000
  N   N6        1.0  0.7737254306666386  0.22627455862936005  0.7737252664568879  1.0000
