data_image0
_chemical_formula_structural       Te2FeN6
_chemical_formula_sum              "Te2 Fe1 N6"
_cell_length_a       5.361134589517453
_cell_length_b       5.361134583338178
_cell_length_c       5.361134570749595
_cell_angle_alpha    60.00000020739488
_cell_angle_beta     59.999999812051236
_cell_angle_gamma    59.999999816347824

_space_group_name_H-M_alt    "P 1"
_space_group_IT_number       1

loop_
  _space_group_symop_operation_xyz
  'x, y, z'

loop_
  _atom_site_type_symbol
  _atom_site_label
  _atom_site_symmetry_multiplicity
  _atom_site_fract_x
  _atom_site_fract_y
  _atom_site_fract_z
  _atom_site_occupancy
  Te  Te1       1.0  0.2499999458968576  0.25000010663976896  0.24999993322951344  1.0000
  Te  Te2       1.0  0.749999901790741  0.7499998950045016  0.7500000528416539  1.0000
  Fe  Fe1       1.0  0.9999999948001795  9.137952809609993e-09  0.999999996165657  1.0000
  N   N1        1.0  0.2458490624620295  0.24584909238296832  0.7541509239796053  1.0000
  N   N2        1.0  0.7541510062233756  0.754150840726656  0.24584909404603644  1.0000
  N   N3        1.0  0.7541509267191888  0.24584910862799697  0.24584905200415033  1.0000
  N   N4        1.0  0.24584917107470547  0.7541508793093441  0.7541509408408799  1.0000
  N   N5        1.0  0.24584912540603787  0.7541509305216669  0.24584905457072795  1.0000
  N   N6        1.0  0.754150871112725  0.2458491350882731  0.7541509500755688  1.0000
