data_image0
_chemical_formula_structural       Te2HfN6
_chemical_formula_sum              "Te2 Hf1 N6"
_cell_length_a       5.297223711620523
_cell_length_b       5.297223920013566
_cell_length_c       5.297223544193634
_cell_angle_alpha    60.0000023209783
_cell_angle_beta     60.000001877641
_cell_angle_gamma    60.000002955460765

_space_group_name_H-M_alt    "P 1"
_space_group_IT_number       1

loop_
  _space_group_symop_operation_xyz
  'x, y, z'

loop_
  _atom_site_type_symbol
  _atom_site_label
  _atom_site_symmetry_multiplicity
  _atom_site_fract_x
  _atom_site_fract_y
  _atom_site_fract_z
  _atom_site_occupancy
  Te  Te1       1.0  0.2499996650941543  0.25000004470894555  0.25000018586921785  1.0000
  Te  Te2       1.0  0.7500002140940317  0.7499998520567057  0.7500007140925807  1.0000
  Hf  Hf1       1.0  0.9999999284625569  0.9999999791915462  9.525526401792273e-08  1.0000
  N   N1        1.0  0.28284978979255637  0.2828498925550168  0.717150206952422  1.0000
  N   N2        1.0  0.7171502366791207  0.7171498631755701  0.28284936277485045  1.0000
  N   N3        1.0  0.7171503806635057  0.2828502210816762  0.2828496617539598  1.0000
  N   N4        1.0  0.28284959301993023  0.7171501311578947  0.7171499815769343  1.0000
  N   N5        1.0  0.2828500390874984  0.7171503384235459  0.2828497427380906  1.0000
  N   N6        1.0  0.7171501449432544  0.2828496901289802  0.7171500327739242  1.0000
