data_image0
_chemical_formula_structural       Te2IrN6
_chemical_formula_sum              "Te2 Ir1 N6"
_cell_length_a       5.37317327958419
_cell_length_b       5.373173276765235
_cell_length_c       5.373173472366892
_cell_angle_alpha    59.99999887781954
_cell_angle_beta     59.999999623492585
_cell_angle_gamma    60.00000019977318

_space_group_name_H-M_alt    "P 1"
_space_group_IT_number       1

loop_
  _space_group_symop_operation_xyz
  'x, y, z'

loop_
  _atom_site_type_symbol
  _atom_site_label
  _atom_site_symmetry_multiplicity
  _atom_site_fract_x
  _atom_site_fract_y
  _atom_site_fract_z
  _atom_site_occupancy
  Te  Te1       1.0  0.25000025129632203  0.25000053871161027  0.2499999107512845  1.0000
  Te  Te2       1.0  0.7500001986333762  0.7499995168352535  0.7500003374255817  1.0000
  Ir  Ir1       1.0  0.9999999790313326  0.9999999726475625  0.9999999906607964  1.0000
  N   N1        1.0  0.2623648698814668  0.2623654829113057  0.7376347895716998  1.0000
  N   N2        1.0  0.7376349203205562  0.7376347595438754  0.262365144129966  1.0000
  N   N3        1.0  0.7376345440156408  0.26236533974314685  0.2623649950081859  1.0000
  N   N4        1.0  0.2623651399985569  0.7376346861719038  0.7376349623362382  1.0000
  N   N5        1.0  0.2623653288259499  0.7376344432926908  0.2623650314623743  1.0000
  N   N6        1.0  0.7376347563643406  0.2623652429962655  0.7376348634683944  1.0000
