data_image0
_chemical_formula_structural       Te2NbN6
_chemical_formula_sum              "Te2 Nb1 N6"
_cell_length_a       5.335156070082714
_cell_length_b       5.335156211629607
_cell_length_c       5.335156100199588
_cell_angle_alpha    60.000000986440774
_cell_angle_beta     59.99999940056169
_cell_angle_gamma    60.000000321957636

_space_group_name_H-M_alt    "P 1"
_space_group_IT_number       1

loop_
  _space_group_symop_operation_xyz
  'x, y, z'

loop_
  _atom_site_type_symbol
  _atom_site_label
  _atom_site_symmetry_multiplicity
  _atom_site_fract_x
  _atom_site_fract_y
  _atom_site_fract_z
  _atom_site_occupancy
  Te  Te1       1.0  0.2500000387084844  0.2500004404143386  0.24999976582159217  1.0000
  Te  Te2       1.0  0.7500001158899152  0.74999974415758  0.7499998874431631  1.0000
  Nb  Nb1       1.0  0.9999999846096818  0.9999999747482683  2.7818462562022146e-08  1.0000
  N   N1        1.0  0.2736182185282066  0.27361846099570425  0.7263816730788671  1.0000
  N   N2        1.0  0.7263817818819087  0.7263815238579736  0.27361839705715435  1.0000
  N   N3        1.0  0.7263815476937173  0.27361830116405844  0.2736183359663072  1.0000
  N   N4        1.0  0.27361844895795334  0.7263815780914679  0.7263817663556993  1.0000
  N   N5        1.0  0.2736182878809586  0.7263815345474782  0.2736183703480012  1.0000
  N   N6        1.0  0.7263815662516275  0.27361844112375244  0.7263817906385245  1.0000
