data_image0
_chemical_formula_structural       Te2NiN6
_chemical_formula_sum              "Te2 Ni1 N6"
_cell_length_a       5.362172007698311
_cell_length_b       5.362172061838829
_cell_length_c       5.362171916330401
_cell_angle_alpha    60.00000134815259
_cell_angle_beta     60.00000055947375
_cell_angle_gamma    60.000000231194754

_space_group_name_H-M_alt    "P 1"
_space_group_IT_number       1

loop_
  _space_group_symop_operation_xyz
  'x, y, z'

loop_
  _atom_site_type_symbol
  _atom_site_label
  _atom_site_symmetry_multiplicity
  _atom_site_fract_x
  _atom_site_fract_y
  _atom_site_fract_z
  _atom_site_occupancy
  Te  Te1       1.0  0.24999992216256436  0.2500001346103712  0.25000022829244967  1.0000
  Te  Te2       1.0  0.750000154435526  0.7500000475199036  0.7499997515203825  1.0000
  Ni  Ni1       1.0  7.874741050103297e-09  0.9999999634552611  0.9999999919560072  1.0000
  N   N1        1.0  0.24545245162477428  0.24545253276521353  0.7545474160714741  1.0000
  N   N2        1.0  0.7545475978746847  0.7545474141083063  0.24545270610854644  1.0000
  N   N3        1.0  0.754547428502714  0.2454524885745453  0.24545249369991087  1.0000
  N   N4        1.0  0.24545235923494185  0.7545475587970069  0.7545474927817436  1.0000
  N   N5        1.0  0.2454524014140109  0.7545473483408326  0.2454525511367555  1.0000
  N   N6        1.0  0.7545477000735923  0.2454525071708388  0.7545473706700333  1.0000
