data_image0
_chemical_formula_structural       Te2OsN6
_chemical_formula_sum              "Te2 Os1 N6"
_cell_length_a       5.358412645749684
_cell_length_b       5.358412718207157
_cell_length_c       5.35841247637191
_cell_angle_alpha    60.00000172427092
_cell_angle_beta     60.00000135541798
_cell_angle_gamma    60.000000652570584

_space_group_name_H-M_alt    "P 1"
_space_group_IT_number       1

loop_
  _space_group_symop_operation_xyz
  'x, y, z'

loop_
  _atom_site_type_symbol
  _atom_site_label
  _atom_site_symmetry_multiplicity
  _atom_site_fract_x
  _atom_site_fract_y
  _atom_site_fract_z
  _atom_site_occupancy
  Te  Te1       1.0  0.2500004672584325  0.2500002058139735  0.24999934756653217  1.0000
  Te  Te2       1.0  0.7500000136196363  0.7499999591751357  0.7499993570418181  1.0000
  Os  Os1       1.0  0.9999999881796015  5.485556640170948e-08  0.999999987813538  1.0000
  N   N1        1.0  0.257710845167966  0.2577108923045184  0.7422892039112363  1.0000
  N   N2        1.0  0.7422889020105171  0.7422892886841383  0.257711184566441  1.0000
  N   N3        1.0  0.7422890812482787  0.25771059805464885  0.2577110961208885  1.0000
  N   N4        1.0  0.2577109262102852  0.7422888538121037  0.7422894316002565  1.0000
  N   N5        1.0  0.2577108277398644  0.7422890153896773  0.25771100645535777  1.0000
  N   N6        1.0  0.7422889053549993  0.25771118845546553  0.7422893571074181  1.0000
