data_image0
_chemical_formula_structural       Te2PbN6
_chemical_formula_sum              "Te2 Pb1 N6"
_cell_length_a       10.631716859711931
_cell_length_b       11.438942989747874
_cell_length_c       9.183542478718222
_cell_angle_alpha    33.66873981102273
_cell_angle_beta     38.65784102095147
_cell_angle_gamma    23.760680294567887

_space_group_name_H-M_alt    "P 1"
_space_group_IT_number       1

loop_
  _space_group_symop_operation_xyz
  'x, y, z'

loop_
  _atom_site_type_symbol
  _atom_site_label
  _atom_site_symmetry_multiplicity
  _atom_site_fract_x
  _atom_site_fract_y
  _atom_site_fract_z
  _atom_site_occupancy
  Te  Te1       1.0  0.07726823700650368  0.03427652692737704  0.35819826162937285  1.0000
  Te  Te2       1.0  0.6837705764745079  0.6805078754732792  0.12521166108117665  1.0000
  Pb  Pb1       1.0  0.15219484727311744  0.06392648228897853  0.8962413918874854  1.0000
  N   N1        1.0  0.45571722705561396  0.15789746146851624  0.5010141596650377  1.0000
  N   N2        1.0  0.5217588407487164  0.774500824951244  0.5790935578925702  1.0000
  N   N3        1.0  0.5064139205910435  0.297106303940351  0.2975056799476502  1.0000
  N   N4        1.0  0.2476899617232139  0.9654076350620576  0.6354974201666344  1.0000
  N   N5        1.0  0.5607799046682564  0.4372703153856371  0.08789992582098181  1.0000
  N   N6        1.0  0.7944123651633387  0.5891151818522478  0.5192911494508827  1.0000
