data_image0
_chemical_formula_structural       Te2PtN6
_chemical_formula_sum              "Te2 Pt1 N6"
_cell_length_a       5.315880985456269
_cell_length_b       5.315881134804756
_cell_length_c       5.315881067735709
_cell_angle_alpha    59.99999937185697
_cell_angle_beta     60.000000144753734
_cell_angle_gamma    60.000000011528286

_space_group_name_H-M_alt    "P 1"
_space_group_IT_number       1

loop_
  _space_group_symop_operation_xyz
  'x, y, z'

loop_
  _atom_site_type_symbol
  _atom_site_label
  _atom_site_symmetry_multiplicity
  _atom_site_fract_x
  _atom_site_fract_y
  _atom_site_fract_z
  _atom_site_occupancy
  Te  Te1       1.0  0.24999975895381954  0.25000017714310135  0.2500001076168463  1.0000
  Te  Te2       1.0  0.749999844265219  0.7500001651035159  0.7500000454829222  1.0000
  Pt  Pt1       1.0  3.952927119773077e-10  0.9999999792645781  4.5265976796699095e-09  1.0000
  N   N1        1.0  0.2637333031156607  0.26373294507238515  0.7362668812005779  1.0000
  N   N2        1.0  0.7362668857429175  0.7362668718768742  0.2637331044037404  1.0000
  N   N3        1.0  0.7362669081034712  0.26373309734053874  0.26373314266200754  1.0000
  N   N4        1.0  0.26373310693617064  0.7362667979425371  0.7362669264268277  1.0000
  N   N5        1.0  0.2637331656848548  0.7362668208432929  0.2637331140612117  1.0000
  N   N6        1.0  0.7362670146581368  0.2637331389499864  0.7362667027964807  1.0000
