data_image0
_chemical_formula_structural       Te2PN6
_chemical_formula_sum              "Te2 P1 N6"
_cell_length_a       5.271843983058834
_cell_length_b       5.271843742769429
_cell_length_c       5.271843976597342
_cell_angle_alpha    59.99999864344241
_cell_angle_beta     59.99999981326506
_cell_angle_gamma    59.999998093083846

_space_group_name_H-M_alt    "P 1"
_space_group_IT_number       1

loop_
  _space_group_symop_operation_xyz
  'x, y, z'

loop_
  _atom_site_type_symbol
  _atom_site_label
  _atom_site_symmetry_multiplicity
  _atom_site_fract_x
  _atom_site_fract_y
  _atom_site_fract_z
  _atom_site_occupancy
  Te  Te1       1.0  0.24999995510871126  0.2500000105886144  0.25000005139737774  1.0000
  Te  Te2       1.0  0.750000075038317  0.7500003291330529  0.7499997223467043  1.0000
  P   P1        1.0  2.8606976305434974e-08  0.9999999930304557  0.9999999208939823  1.0000
  N   N1        1.0  0.24075121188158252  0.24075098771177844  0.759248912017797  1.0000
  N   N2        1.0  0.7592489270602915  0.759248815355  0.24075120654030088  1.0000
  N   N3        1.0  0.7592487811152795  0.24075109142265091  0.24075119777859652  1.0000
  N   N4        1.0  0.24075108637912743  0.7592488951754544  0.7592489362845294  1.0000
  N   N5        1.0  0.24075098874889317  0.7592488499392416  0.2407512406870471  1.0000
  N   N6        1.0  0.7592489498112837  0.2407510088838897  0.7592488230934674  1.0000
