data_image0
_chemical_formula_structural       Te2RuN6
_chemical_formula_sum              "Te2 Ru1 N6"
_cell_length_a       5.34900465972157
_cell_length_b       5.349004883539893
_cell_length_c       5.3490049766097
_cell_angle_alpha    59.99999807593376
_cell_angle_beta     60.000000006093224
_cell_angle_gamma    60.000000431311314

_space_group_name_H-M_alt    "P 1"
_space_group_IT_number       1

loop_
  _space_group_symop_operation_xyz
  'x, y, z'

loop_
  _atom_site_type_symbol
  _atom_site_label
  _atom_site_symmetry_multiplicity
  _atom_site_fract_x
  _atom_site_fract_y
  _atom_site_fract_z
  _atom_site_occupancy
  Te  Te1       1.0  0.2500007063075724  0.24999815557879876  0.2500007201006299  1.0000
  Te  Te2       1.0  0.7499992069180054  0.7500008778086904  0.7499982944865413  1.0000
  Ru  Ru1       1.0  8.896779924146917e-09  0.9999999862619865  7.346186712286198e-08  1.0000
  N   N1        1.0  0.2566617885417201  0.2566608900542882  0.7433385559713792  1.0000
  N   N2        1.0  0.7433379386629467  0.7433394461546219  0.25666207819068654  1.0000
  N   N3        1.0  0.7433384842612409  0.2566605239394563  0.2566621690106446  1.0000
  N   N4        1.0  0.2566619663843414  0.7433393451770591  0.743337991118459  1.0000
  N   N5        1.0  0.2566611312860345  0.7433392440382619  0.2566615162572266  1.0000
  N   N6        1.0  0.7433387651628174  0.25666157529074424  0.7433385337307882  1.0000
