data_image0
_chemical_formula_structural       Te2ReN6
_chemical_formula_sum              "Te2 Re1 N6"
_cell_length_a       5.367640601162076
_cell_length_b       5.367640459666251
_cell_length_c       5.36764063387274
_cell_angle_alpha    59.99999859024811
_cell_angle_beta     59.999999982167196
_cell_angle_gamma    59.99999837031066

_space_group_name_H-M_alt    "P 1"
_space_group_IT_number       1

loop_
  _space_group_symop_operation_xyz
  'x, y, z'

loop_
  _atom_site_type_symbol
  _atom_site_label
  _atom_site_symmetry_multiplicity
  _atom_site_fract_x
  _atom_site_fract_y
  _atom_site_fract_z
  _atom_site_occupancy
  Te  Te1       1.0  0.2499996949115493  0.2500000220092719  0.24999997415098457  1.0000
  Te  Te2       1.0  0.7499997315786694  0.7500001390428288  0.7499999369896387  1.0000
  Re  Re1       1.0  0.9999999613003309  0.9999999612107715  7.786778336139017e-08  1.0000
  N   N1        1.0  0.2600351944031838  0.2600348456051351  0.7399650553585092  1.0000
  N   N2        1.0  0.7399650831970686  0.7399649047374801  0.260035086431697  1.0000
  N   N3        1.0  0.7399650617113644  0.2600350288622185  0.2600350949618884  1.0000
  N   N4        1.0  0.26003507829232275  0.7399650181039101  0.7399649021092851  1.0000
  N   N5        1.0  0.26003513594048727  0.7399649586596007  0.2600349643778121  1.0000
  N   N6        1.0  0.7399650486088561  0.2600350837430894  0.739964951222727  1.0000
