data_image0
_chemical_formula_structural       Te2RhN6
_chemical_formula_sum              "Te2 Rh1 N6"
_cell_length_a       5.284957676367759
_cell_length_b       5.284957625504041
_cell_length_c       5.28495781659758
_cell_angle_alpha    60.00000016307908
_cell_angle_beta     60.00000015386373
_cell_angle_gamma    60.00000023401151

_space_group_name_H-M_alt    "P 1"
_space_group_IT_number       1

loop_
  _space_group_symop_operation_xyz
  'x, y, z'

loop_
  _atom_site_type_symbol
  _atom_site_label
  _atom_site_symmetry_multiplicity
  _atom_site_fract_x
  _atom_site_fract_y
  _atom_site_fract_z
  _atom_site_occupancy
  Te  Te1       1.0  0.24999997440097474  0.2500003102521892  0.2499999325223967  1.0000
  Te  Te2       1.0  0.7499997635519882  0.7499996399555144  0.7500014594137018  1.0000
  Rh  Rh1       1.0  0.9999999862507738  0.9999999953651645  0.9999998161914363  1.0000
  N   N1        1.0  0.2654118542794961  0.26541179479913124  0.7345882319883962  1.0000
  N   N2        1.0  0.7345882493211088  0.7345881530911353  0.26541109368856336  1.0000
  N   N3        1.0  0.7345881062089618  0.26541234516542594  0.2654112619828936  1.0000
  N   N4        1.0  0.26541168289346667  0.734588054621088  0.7345884737121929  1.0000
  N   N5        1.0  0.2654121475362912  0.7345880028726146  0.2654114893136808  1.0000
  N   N6        1.0  0.734588259656927  0.26541168314957875  0.734588262051403  1.0000
