data_image0
_chemical_formula_structural       Te2SeN6
_chemical_formula_sum              "Te2 Se1 N6"
_cell_length_a       5.317666748446643
_cell_length_b       5.31766675843509
_cell_length_c       5.317666496302742
_cell_angle_alpha    60.00000319362812
_cell_angle_beta     60.00000226020903
_cell_angle_gamma    60.00000176406864

_space_group_name_H-M_alt    "P 1"
_space_group_IT_number       1

loop_
  _space_group_symop_operation_xyz
  'x, y, z'

loop_
  _atom_site_type_symbol
  _atom_site_label
  _atom_site_symmetry_multiplicity
  _atom_site_fract_x
  _atom_site_fract_y
  _atom_site_fract_z
  _atom_site_occupancy
  Te  Te1       1.0  0.2500002616008751  0.250000019038285  0.24999975897862106  1.0000
  Te  Te2       1.0  0.7500003012483719  0.7500002114267063  0.7499989056076952  1.0000
  Se  Se1       1.0  0.9999999174400034  7.830751018763744e-08  2.126243684347609e-09  1.0000
  N   N1        1.0  0.24893419678832301  0.24893429132398098  0.7510657759250694  1.0000
  N   N2        1.0  0.7510656382139608  0.7510657710102028  0.24893469814957458  1.0000
  N   N3        1.0  0.751065777321422  0.24893389692828552  0.24893462299658867  1.0000
  N   N4        1.0  0.24893429472575906  0.7510657669588588  0.7510657531293334  1.0000
  N   N5        1.0  0.24893394981200223  0.7510656902795344  0.24893462269630942  1.0000
  N   N6        1.0  0.7510656518826208  0.24893427071551694  0.7510658550961319  1.0000
