data_image0
_chemical_formula_structural       Te2SnN6
_chemical_formula_sum              "Te2 Sn1 N6"
_cell_length_a       5.4161362992272775
_cell_length_b       5.416136043180653
_cell_length_c       5.416136325837242
_cell_angle_alpha    60.00000051709777
_cell_angle_beta     60.00000147865744
_cell_angle_gamma    60.0000008062882

_space_group_name_H-M_alt    "P 1"
_space_group_IT_number       1

loop_
  _space_group_symop_operation_xyz
  'x, y, z'

loop_
  _atom_site_type_symbol
  _atom_site_label
  _atom_site_symmetry_multiplicity
  _atom_site_fract_x
  _atom_site_fract_y
  _atom_site_fract_z
  _atom_site_occupancy
  Te  Te1       1.0  0.2500002363738016  0.24999966383898398  0.25000007515761435  1.0000
  Te  Te2       1.0  0.7499999602252777  0.7499999910066554  0.7499995075026499  1.0000
  Sn  Sn1       1.0  0.9999999590419566  0.9999999118097262  0.9999998817870294  1.0000
  N   N1        1.0  0.27306069118169124  0.27306068532030126  0.7269393131488079  1.0000
  N   N2        1.0  0.7269391588233781  0.7269395551991937  0.2730610380584907  1.0000
  N   N3        1.0  0.7269392313016564  0.2730606096456984  0.2730607766759597  1.0000
  N   N4        1.0  0.27306076914916416  0.7269394929351655  0.726939256247228  1.0000
  N   N5        1.0  0.27306057373264175  0.7269393914938722  0.27306078307035175  1.0000
  N   N6        1.0  0.726939407789159  0.27306069751925977  0.7269393824202922  1.0000
