data_image0
_chemical_formula_structural       Te2SN6
_chemical_formula_sum              "Te2 S1 N6"
_cell_length_a       5.176329856263136
_cell_length_b       5.176330905101957
_cell_length_c       5.17633038886011
_cell_angle_alpha    59.99999967989266
_cell_angle_beta     60.00000133328663
_cell_angle_gamma    59.99999880552644

_space_group_name_H-M_alt    "P 1"
_space_group_IT_number       1

loop_
  _space_group_symop_operation_xyz
  'x, y, z'

loop_
  _atom_site_type_symbol
  _atom_site_label
  _atom_site_symmetry_multiplicity
  _atom_site_fract_x
  _atom_site_fract_y
  _atom_site_fract_z
  _atom_site_occupancy
  Te  Te1       1.0  0.24999940214296681  0.2500000582241954  0.2499999233356284  1.0000
  Te  Te2       1.0  0.7499995223791686  0.7500002622162611  0.7499997772564337  1.0000
  S   S1        1.0  1.0288431718202622e-07  0.9999999858037004  3.486268593903401e-08  1.0000
  N   N1        1.0  0.23811379661325677  0.2381136512680253  0.7618862686315729  1.0000
  N   N2        1.0  0.7618863837958776  0.7618862409175834  0.23811385078065764  1.0000
  N   N3        1.0  0.7618865626184584  0.23811351867147748  0.238113785260159  1.0000
  N   N4        1.0  0.2381139017934704  0.7618862978005609  0.7618864231945223  1.0000
  N   N5        1.0  0.23811377110108622  0.7618863404954465  0.23811372930258248  1.0000
  N   N6        1.0  0.7618865407394984  0.23811363923393902  0.7618863057363536  1.0000
