data_image0
_chemical_formula_structural       Te2TiN6
_chemical_formula_sum              "Te2 Ti1 N6"
_cell_length_a       5.246806473633619
_cell_length_b       5.246806397973178
_cell_length_c       5.246806462403192
_cell_angle_alpha    60.000002085549035
_cell_angle_beta     59.99999959683601
_cell_angle_gamma    59.999999664146245

_space_group_name_H-M_alt    "P 1"
_space_group_IT_number       1

loop_
  _space_group_symop_operation_xyz
  'x, y, z'

loop_
  _atom_site_type_symbol
  _atom_site_label
  _atom_site_symmetry_multiplicity
  _atom_site_fract_x
  _atom_site_fract_y
  _atom_site_fract_z
  _atom_site_occupancy
  Te  Te1       1.0  0.25000032204685435  0.2499997060082819  0.24999992856629893  1.0000
  Te  Te2       1.0  0.7500003840389677  0.7499996759147274  0.7499996358014589  1.0000
  Ti  Ti1       1.0  0.9999999251738768  1.3108592500931847e-15  5.075451002258939e-08  1.0000
  N   N1        1.0  0.26764626821302695  0.26764657368623096  0.7323535674264426  1.0000
  N   N2        1.0  0.7323533952687504  0.7323538563228147  0.2676465240464539  1.0000
  N   N3        1.0  0.732353588523233  0.26764635797327774  0.26764647446082995  1.0000
  N   N4        1.0  0.2676463426362457  0.7323536915501947  0.7323535495311123  1.0000
  N   N5        1.0  0.26764623524804976  0.7323535912233203  0.26764662493781555  1.0000
  N   N6        1.0  0.7323535226495078  0.26764654233378327  0.7323536761906682  1.0000
