data_image0
_chemical_formula_structural       Te2TaN6
_chemical_formula_sum              "Te2 Ta1 N6"
_cell_length_a       5.323642081228927
_cell_length_b       5.323642111423705
_cell_length_c       5.323641950835532
_cell_angle_alpha    60.00000088182738
_cell_angle_beta     59.999999457636
_cell_angle_gamma    60.00000114445222

_space_group_name_H-M_alt    "P 1"
_space_group_IT_number       1

loop_
  _space_group_symop_operation_xyz
  'x, y, z'

loop_
  _atom_site_type_symbol
  _atom_site_label
  _atom_site_symmetry_multiplicity
  _atom_site_fract_x
  _atom_site_fract_y
  _atom_site_fract_z
  _atom_site_occupancy
  Te  Te1       1.0  0.24999980356112672  0.2500005052316636  0.24999979860764482  1.0000
  Te  Te2       1.0  0.7500000780274054  0.7499994290716681  0.7500004510906308  1.0000
  Ta  Ta1       1.0  1.224716958674359e-08  2.3005772008139245e-09  2.2780739745195427e-08  1.0000
  N   N1        1.0  0.26981724348618175  0.26981740370600316  0.7301826770090585  1.0000
  N   N2        1.0  0.7301827568261855  0.7301826364238698  0.26981713920534844  1.0000
  N   N3        1.0  0.7301827418507989  0.2698175721276192  0.2698171178861363  1.0000
  N   N4        1.0  0.2698172917860707  0.730182426591869  0.7301828902125446  1.0000
  N   N5        1.0  0.2698173727389091  0.730182482358831  0.26981730091159867  1.0000
  N   N6        1.0  0.7301827271071083  0.26981753246469636  0.7301825965291948  1.0000
