data_image0
_chemical_formula_structural       Te2VN6
_chemical_formula_sum              "Te2 V1 N6"
_cell_length_a       5.303886236763058
_cell_length_b       5.303886239648001
_cell_length_c       5.303886322554394
_cell_angle_alpha    60.00000012098037
_cell_angle_beta     59.999999828394564
_cell_angle_gamma    60.00000073672718

_space_group_name_H-M_alt    "P 1"
_space_group_IT_number       1

loop_
  _space_group_symop_operation_xyz
  'x, y, z'

loop_
  _atom_site_type_symbol
  _atom_site_label
  _atom_site_symmetry_multiplicity
  _atom_site_fract_x
  _atom_site_fract_y
  _atom_site_fract_z
  _atom_site_occupancy
  Te  Te1       1.0  0.2500002285519022  0.25000051990740374  0.24999996868099808  1.0000
  Te  Te2       1.0  0.7500005290836961  0.7500001419064467  0.7499994677204123  1.0000
  V   V1        1.0  0.999999967739928  0.9999999792176841  3.971906327394417e-08  1.0000
  N   N1        1.0  0.2579841460908427  0.2579844974278536  0.7420155854412329  1.0000
  N   N2        1.0  0.7420156407504819  0.7420156217366356  0.25798446062001434  1.0000
  N   N3        1.0  0.7420153467672913  0.25798418347482754  0.2579845642777214  1.0000
  N   N4        1.0  0.2579842871803394  0.7420154669329853  0.7420157737546089  1.0000
  N   N5        1.0  0.25798414007341797  0.7420152955290149  0.25798462768532093  1.0000
  N   N6        1.0  0.7420156998407221  0.25798428560441355  0.7420155477304502  1.0000
