data_image0
_chemical_formula_structural       Te2WN6
_chemical_formula_sum              "Te2 W1 N6"
_cell_length_a       5.413578857624571
_cell_length_b       5.413578897135958
_cell_length_c       5.413578966629728
_cell_angle_alpha    59.999999228007034
_cell_angle_beta     59.99999947255618
_cell_angle_gamma    60.00000008190382

_space_group_name_H-M_alt    "P 1"
_space_group_IT_number       1

loop_
  _space_group_symop_operation_xyz
  'x, y, z'

loop_
  _atom_site_type_symbol
  _atom_site_label
  _atom_site_symmetry_multiplicity
  _atom_site_fract_x
  _atom_site_fract_y
  _atom_site_fract_z
  _atom_site_occupancy
  Te  Te1       1.0  0.24999947065322553  0.25000027073135583  0.250000200342105  1.0000
  Te  Te2       1.0  0.7499999333817846  0.7500001832587969  0.7499996671202982  1.0000
  W   W1        1.0  0.9999999710219147  0.9999999909505712  4.6721859329656936e-08  1.0000
  N   N1        1.0  0.25879576327817627  0.2587956863672955  0.7412042587667426  1.0000
  N   N2        1.0  0.7412044859422241  0.7412040685545086  0.2587958829120254  1.0000
  N   N3        1.0  0.7412043848651593  0.2587956196897383  0.25879590258465507  1.0000
  N   N4        1.0  0.2587958232446545  0.7412042777605645  0.7412041643714675  1.0000
  N   N5        1.0  0.2587957288233267  0.7412041622702636  0.2587958153085818  1.0000
  N   N6        1.0  0.7412044211787303  0.2587957623283253  0.7412040639345254  1.0000
