data_image0
_chemical_formula_structural       Te2ZrN6
_chemical_formula_sum              "Te2 Zr1 N6"
_cell_length_a       5.315521782642064
_cell_length_b       5.315529551875414
_cell_length_c       5.3155265156402685
_cell_angle_alpha    60.00012502187613
_cell_angle_beta     60.0000747071296
_cell_angle_gamma    60.00008774145463

_space_group_name_H-M_alt    "P 1"
_space_group_IT_number       1

loop_
  _space_group_symop_operation_xyz
  'x, y, z'

loop_
  _atom_site_type_symbol
  _atom_site_label
  _atom_site_symmetry_multiplicity
  _atom_site_fract_x
  _atom_site_fract_y
  _atom_site_fract_z
  _atom_site_occupancy
  Te  Te1       1.0  0.2500006284658672  0.25000005829676053  0.2499993639129135  1.0000
  Te  Te2       1.0  0.7499998433834167  0.750001126478746  0.7500000968249528  1.0000
  Zr  Zr1       1.0  0.9999986232817311  1.0737032885569052e-06  0.9999996548490359  1.0000
  N   N1        1.0  0.3023871038865211  0.3023742873948298  0.6976237928686573  1.0000
  N   N2        1.0  0.697615213314547  0.69762528451806  0.3023718154003592  1.0000
  N   N3        1.0  0.6976210461742837  0.30237829284083356  0.3023808633916765  1.0000
  N   N4        1.0  0.30237727675320497  0.6976210947453458  0.6976162867213693  1.0000
  N   N5        1.0  0.30238441063497856  0.6976274750942139  0.3023804974936535  1.0000
  N   N6        1.0  0.6976158267149973  0.3023713111350234  0.6976276525058408  1.0000
