data_image0
_chemical_formula_structural       Ti2BeSe6
_chemical_formula_sum              "Ti2 Be1 Se6"
_cell_length_a       6.1607674007041595
_cell_length_b       6.160767447184797
_cell_length_c       6.160767475888018
_cell_angle_alpha    60.00000100854045
_cell_angle_beta     60.00000122039459
_cell_angle_gamma    60.00000052777283

_space_group_name_H-M_alt    "P 1"
_space_group_IT_number       1

loop_
  _space_group_symop_operation_xyz
  'x, y, z'

loop_
  _atom_site_type_symbol
  _atom_site_label
  _atom_site_symmetry_multiplicity
  _atom_site_fract_x
  _atom_site_fract_y
  _atom_site_fract_z
  _atom_site_occupancy
  Ti  Ti1       1.0  0.2499999615797382  0.25000013161559886  0.24999991355238346  1.0000
  Ti  Ti2       1.0  0.7500000031471482  0.7500000171316417  0.7499999855561411  1.0000
  Be  Be1       1.0  1.355523197015524e-08  9.939872323973887e-09  0.9999999687743554  1.0000
  Se  Se1       1.0  0.23226961113273448  0.23226957152437178  0.7677304337087797  1.0000
  Se  Se2       1.0  0.7677303861424307  0.7677303446298525  0.23226963521861035  1.0000
  Se  Se3       1.0  0.7677304173391449  0.23226955983733696  0.23226962526813233  1.0000
  Se  Se4       1.0  0.23226960935603458  0.7677303861365044  0.7677303864454782  1.0000
  Se  Se5       1.0  0.2322696327091517  0.7677304022449035  0.23226957828032122  1.0000
  Se  Se6       1.0  0.7677303746747542  0.2322695735485558  0.7677304801206977  1.0000
