data_image0
_chemical_formula_structural       Ti2BeO6
_chemical_formula_sum              "Ti2 Be1 O6"
_cell_length_a       4.516565990341074
_cell_length_b       4.5165659885403295
_cell_length_c       4.516565642775129
_cell_angle_alpha    59.99999894291294
_cell_angle_beta     59.99999684243093
_cell_angle_gamma    59.9999983857637

_space_group_name_H-M_alt    "P 1"
_space_group_IT_number       1

loop_
  _space_group_symop_operation_xyz
  'x, y, z'

loop_
  _atom_site_type_symbol
  _atom_site_label
  _atom_site_symmetry_multiplicity
  _atom_site_fract_x
  _atom_site_fract_y
  _atom_site_fract_z
  _atom_site_occupancy
  Ti  Ti1       1.0  0.2499990817972481  0.25000028377324895  0.2500006292469004  1.0000
  Ti  Ti2       1.0  0.7499999209452936  0.7499997964790385  0.750000993249471  1.0000
  Be  Be1       1.0  4.4365913850721786e-08  0.9999999972883267  0.9999999946713796  1.0000
  O   O1        1.0  0.25597174525956545  0.25597105212297894  0.7440283502400534  1.0000
  O   O2        1.0  0.7440286711266019  0.7440287678087466  0.2559711568149267  1.0000
  O   O3        1.0  0.7440288635278095  0.2559716638614994  0.25597087319289874  1.0000
  O   O4        1.0  0.25597124753404193  0.744028481470955  0.7440286813897427  1.0000
  O   O5        1.0  0.25597144876653066  0.7440286752064165  0.2559712088994324  1.0000
  O   O6        1.0  0.7440289933892635  0.25597131284901703  0.7440282787013831  1.0000
