data_image0
_chemical_formula_structural       Ti2BeS6
_chemical_formula_sum              "Ti2 Be1 S6"
_cell_length_a       5.588584207423763
_cell_length_b       5.58858396571448
_cell_length_c       5.588584328885549
_cell_angle_alpha    59.99999702088817
_cell_angle_beta     59.99999910381762
_cell_angle_gamma    60.000000788579676

_space_group_name_H-M_alt    "P 1"
_space_group_IT_number       1

loop_
  _space_group_symop_operation_xyz
  'x, y, z'

loop_
  _atom_site_type_symbol
  _atom_site_label
  _atom_site_symmetry_multiplicity
  _atom_site_fract_x
  _atom_site_fract_y
  _atom_site_fract_z
  _atom_site_occupancy
  Ti  Ti1       1.0  0.25000018569584004  0.25000006914615214  0.24999990030120003  1.0000
  Ti  Ti2       1.0  0.7499995946071252  0.7500000080108271  0.7500002389129283  1.0000
  Be  Be1       1.0  2.1141606990692986e-08  1.0957560254088215e-08  6.268234088014654e-08  1.0000
  S   S1        1.0  0.25368702535231  0.2536871874878494  0.7463129097429207  1.0000
  S   S2        1.0  0.7463128644150402  0.746312964180544  0.2536870283322301  1.0000
  S   S3        1.0  0.7463129023694509  0.2536869946136248  0.2536871263828023  1.0000
  S   S4        1.0  0.2536872897116363  0.7463128699667019  0.7463128667071823  1.0000
  S   S5        1.0  0.25368718232132415  0.7463128786518564  0.25368700438294695  1.0000
  S   S6        1.0  0.7463129109162531  0.25368704071626885  0.7463128819008344  1.0000
