data_image0
_chemical_formula_structural       Ti2CO6
_chemical_formula_sum              "Ti2 C1 O6"
_cell_length_a       4.637256286908597
_cell_length_b       4.637256457659635
_cell_length_c       4.637256498449152
_cell_angle_alpha    60.00000145376325
_cell_angle_beta     60.00000296026195
_cell_angle_gamma    60.00000334641428

_space_group_name_H-M_alt    "P 1"
_space_group_IT_number       1

loop_
  _space_group_symop_operation_xyz
  'x, y, z'

loop_
  _atom_site_type_symbol
  _atom_site_label
  _atom_site_symmetry_multiplicity
  _atom_site_fract_x
  _atom_site_fract_y
  _atom_site_fract_z
  _atom_site_occupancy
  Ti  Ti1       1.0  0.25000000168524567  0.2500000420613659  0.24999996847003508  1.0000
  Ti  Ti2       1.0  0.7500000621025636  0.750000007334692  0.7499999859096869  1.0000
  C   C1        1.0  0.999999962826197  0.9999999471780409  8.812682830928282e-08  1.0000
  O   O1        1.0  0.23072338556947905  0.23072358056284878  0.769276484974645  1.0000
  O   O2        1.0  0.7692765424479745  0.7692764503455208  0.23072340420856194  1.0000
  O   O3        1.0  0.7692764542998863  0.23072347019745912  0.23072349799842043  1.0000
  O   O4        1.0  0.23072352017409387  0.769276518453345  0.7692765680704461  1.0000
  O   O5        1.0  0.23072347739896523  0.7692765142555852  0.2307234813644257  1.0000
  O   O6        1.0  0.7692765070093053  0.23072351929388393  0.769276565913754  1.0000
