data_image0
_chemical_formula_structural       Ti2CoO6
_chemical_formula_sum              "Ti2 Co1 O6"
_cell_length_a       4.82037060915014
_cell_length_b       4.8203705834759205
_cell_length_c       4.820370750751175
_cell_angle_alpha    59.99999575694618
_cell_angle_beta     59.99999722378071
_cell_angle_gamma    59.99999649983904

_space_group_name_H-M_alt    "P 1"
_space_group_IT_number       1

loop_
  _space_group_symop_operation_xyz
  'x, y, z'

loop_
  _atom_site_type_symbol
  _atom_site_label
  _atom_site_symmetry_multiplicity
  _atom_site_fract_x
  _atom_site_fract_y
  _atom_site_fract_z
  _atom_site_occupancy
  Ti  Ti1       1.0  0.250000182371558  0.24999988254124153  0.2499998700409877  1.0000
  Ti  Ti2       1.0  0.7499998118451496  0.7500001430737276  0.7499999354111156  1.0000
  Co  Co1       1.0  0.9999999974592306  7.622307569632947e-09  3.6828184312381696e-09  1.0000
  O   O1        1.0  0.25771480087892806  0.2577146549751494  0.7422853453554265  1.0000
  O   O2        1.0  0.742285264645277  0.7422853579359648  0.25771471293082937  1.0000
  O   O3        1.0  0.7422853066984192  0.25771472333670337  0.25771472955396696  1.0000
  O   O4        1.0  0.2577147504313506  0.7422851854028731  0.7422853518228105  1.0000
  O   O5        1.0  0.25771469575715933  0.7422852321309354  0.2577147717518976  1.0000
  O   O6        1.0  0.7422852449124997  0.2577147960247971  0.7422852791034469  1.0000
