data_image0
_chemical_formula_structural       Ti2CoSe6
_chemical_formula_sum              "Ti2 Co1 Se6"
_cell_length_a       6.28499805204957
_cell_length_b       6.284998111763292
_cell_length_c       6.284998129839424
_cell_angle_alpha    59.99999883830637
_cell_angle_beta     59.999998938035496
_cell_angle_gamma    59.99999871631907

_space_group_name_H-M_alt    "P 1"
_space_group_IT_number       1

loop_
  _space_group_symop_operation_xyz
  'x, y, z'

loop_
  _atom_site_type_symbol
  _atom_site_label
  _atom_site_symmetry_multiplicity
  _atom_site_fract_x
  _atom_site_fract_y
  _atom_site_fract_z
  _atom_site_occupancy
  Ti  Ti1       1.0  0.2500000355702579  0.24999998343414412  0.24999982099362728  1.0000
  Ti  Ti2       1.0  0.7499999892551485  0.7500001042481299  0.7500002466453913  1.0000
  Co  Co1       1.0  4.6392452818758746e-09  1.364075902206315e-08  0.9999999447183769  1.0000
  Se  Se1       1.0  0.25881566782753934  0.25881563059639723  0.7411843347223221  1.0000
  Se  Se2       1.0  0.7411843587078142  0.7411843031401749  0.2588155512779348  1.0000
  Se  Se3       1.0  0.7411843533028932  0.25881561359361094  0.25881566062855405  1.0000
  Se  Se4       1.0  0.25881560796452713  0.7411843065022015  0.7411844334816292  1.0000
  Se  Se5       1.0  0.2588156828709515  0.7411844826287968  0.2588155884572477  1.0000
  Se  Se6       1.0  0.7411842965808659  0.25881557582328146  0.7411844242004222  1.0000
