data_image0
_chemical_formula_structural       Ti2CrN6
_chemical_formula_sum              "Ti2 Cr1 N6"
_cell_length_a       4.845363541948143
_cell_length_b       4.845363799454043
_cell_length_c       4.845363991858371
_cell_angle_alpha    59.999998819339844
_cell_angle_beta     59.99999876470066
_cell_angle_gamma    59.999999855140985

_space_group_name_H-M_alt    "P 1"
_space_group_IT_number       1

loop_
  _space_group_symop_operation_xyz
  'x, y, z'

loop_
  _atom_site_type_symbol
  _atom_site_label
  _atom_site_symmetry_multiplicity
  _atom_site_fract_x
  _atom_site_fract_y
  _atom_site_fract_z
  _atom_site_occupancy
  Ti  Ti1       1.0  0.2500000209927787  0.25000000221926855  0.25000000327378363  1.0000
  Ti  Ti2       1.0  0.7500000006087535  0.7499999864364989  0.7500000160317112  1.0000
  Cr  Cr1       1.0  0.9999999789609404  2.0221307172631106e-08  3.136630249353515e-08  1.0000
  N   N1        1.0  0.2668538846125301  0.2668539434396219  0.7331460317745312  1.0000
  N   N2        1.0  0.733146154129208  0.7331459794968974  0.26685390656523456  1.0000
  N   N3        1.0  0.7331461392875664  0.2668538398685475  0.2668539592358229  1.0000
  N   N4        1.0  0.2668539338997003  0.7331461513148833  0.7331460185661746  1.0000
  N   N5        1.0  0.26685390885244475  0.7331461791245244  0.26685391946097603  1.0000
  N   N6        1.0  0.7331459885137557  0.26685386766750185  0.7331461473408526  1.0000
