data_image0
_chemical_formula_structural       Ti2CN6
_chemical_formula_sum              "Ti2 C1 N6"
_cell_length_a       4.727367831426636
_cell_length_b       4.7273681531641305
_cell_length_c       4.727367943282817
_cell_angle_alpha    59.99999905454041
_cell_angle_beta     59.999999826847215
_cell_angle_gamma    59.999997843308385

_space_group_name_H-M_alt    "P 1"
_space_group_IT_number       1

loop_
  _space_group_symop_operation_xyz
  'x, y, z'

loop_
  _atom_site_type_symbol
  _atom_site_label
  _atom_site_symmetry_multiplicity
  _atom_site_fract_x
  _atom_site_fract_y
  _atom_site_fract_z
  _atom_site_occupancy
  Ti  Ti1       1.0  0.24999996620097578  0.2500002049079646  0.2499998662666733  1.0000
  Ti  Ti2       1.0  0.7499998853615502  0.7500001561603971  0.7499999975838001  1.0000
  C   C1        1.0  0.9999965880367377  8.140149783964388e-06  0.9999976210991809  1.0000
  N   N1        1.0  0.24060342740746143  0.24060362594865536  0.7593964503081245  1.0000
  N   N2        1.0  0.7593940392521739  0.7593938801086585  0.24060609272893543  1.0000
  N   N3        1.0  0.7593967406466495  0.24060330899103152  0.24060310102013885  1.0000
  N   N4        1.0  0.24060630281520806  0.7593937929085466  0.7593936805663563  1.0000
  N   N5        1.0  0.24060622637627904  0.7593938367993944  0.24060624483239373  1.0000
  N   N6        1.0  0.7593968531361714  0.24060303970438154  0.7593968991850812  1.0000
