data_image0
_chemical_formula_structural       Ti2CuTe6
_chemical_formula_sum              "Ti2 Cu1 Te6"
_cell_length_a       6.892097342417526
_cell_length_b       6.892097067146584
_cell_length_c       6.892097111461566
_cell_angle_alpha    60.0000004049478
_cell_angle_beta     60.00000138019548
_cell_angle_gamma    60.00000087833899

_space_group_name_H-M_alt    "P 1"
_space_group_IT_number       1

loop_
  _space_group_symop_operation_xyz
  'x, y, z'

loop_
  _atom_site_type_symbol
  _atom_site_label
  _atom_site_symmetry_multiplicity
  _atom_site_fract_x
  _atom_site_fract_y
  _atom_site_fract_z
  _atom_site_occupancy
  Ti  Ti1       1.0  0.2500000921577123  0.25000002468299815  0.2499999221152999  1.0000
  Ti  Ti2       1.0  0.750000010476952  0.7499999070083699  0.7500000467055393  1.0000
  Cu  Cu1       1.0  0.9999999605686167  1.7770278887929692e-08  9.643584628488905e-08  1.0000
  Te  Te1       1.0  0.26126535350735003  0.2612654179129164  0.7387346013244228  1.0000
  Te  Te2       1.0  0.7387346314080696  0.738734595521733  0.261265368073152  1.0000
  Te  Te3       1.0  0.7387345903190619  0.26126541181309115  0.26126537346469736  1.0000
  Te  Te4       1.0  0.26126541106288365  0.7387345874053354  0.7387346006114746  1.0000
  Te  Te5       1.0  0.26126540970784523  0.7387346076537503  0.2612653641964875  1.0000
  Te  Te6       1.0  0.738734532814478  0.2612654324363169  0.7387346261283614  1.0000
