data_image0
_chemical_formula_structural       Ti2CrO6
_chemical_formula_sum              "Ti2 Cr1 O6"
_cell_length_a       4.768444512658014
_cell_length_b       4.768444336786847
_cell_length_c       4.768444345502357
_cell_angle_alpha    59.99999824356247
_cell_angle_beta     59.99999867973639
_cell_angle_gamma    60.000000737990774

_space_group_name_H-M_alt    "P 1"
_space_group_IT_number       1

loop_
  _space_group_symop_operation_xyz
  'x, y, z'

loop_
  _atom_site_type_symbol
  _atom_site_label
  _atom_site_symmetry_multiplicity
  _atom_site_fract_x
  _atom_site_fract_y
  _atom_site_fract_z
  _atom_site_occupancy
  Ti  Ti1       1.0  0.24999996593577067  0.24999956509345458  0.2500001819792047  1.0000
  Ti  Ti2       1.0  0.7499993493499373  0.7499995197486289  0.7500001772489688  1.0000
  Cr  Cr1       1.0  8.53625392471988e-09  1.7979059256716933e-08  0.999999986742343  1.0000
  O   O1        1.0  0.26128902830791273  0.261288508900073  0.7387109242050812  1.0000
  O   O2        1.0  0.7387109241164328  0.7387118319077174  0.2612889980710517  1.0000
  O   O3        1.0  0.7387116258664169  0.2612895159090293  0.26128804128559635  1.0000
  O   O4        1.0  0.261288858613886  0.738710776098471  0.7387118218121335  1.0000
  O   O5        1.0  0.2612886943385463  0.7387117696518293  0.2612887290312847  1.0000
  O   O6        1.0  0.7387114218947469  0.26128857372440195  0.738711200232311  1.0000
