data_image0
_chemical_formula_structural       Ti2CuSe6
_chemical_formula_sum              "Ti2 Cu1 Se6"
_cell_length_a       6.232371600260686
_cell_length_b       6.232371428372912
_cell_length_c       6.232371550690885
_cell_angle_alpha    59.999999073700934
_cell_angle_beta     59.999999949476006
_cell_angle_gamma    59.999997216523035

_space_group_name_H-M_alt    "P 1"
_space_group_IT_number       1

loop_
  _space_group_symop_operation_xyz
  'x, y, z'

loop_
  _atom_site_type_symbol
  _atom_site_label
  _atom_site_symmetry_multiplicity
  _atom_site_fract_x
  _atom_site_fract_y
  _atom_site_fract_z
  _atom_site_occupancy
  Ti  Ti1       1.0  0.24999993517343036  0.2500004705045056  0.2499997887691943  1.0000
  Ti  Ti2       1.0  0.7500000728563612  0.7499993422267375  0.7500002720965181  1.0000
  Cu  Cu1       1.0  0.9999999880229832  0.9999999803486541  0.9999999195426426  1.0000
  Se  Se1       1.0  0.27565236293064216  0.2756527352182634  0.724347436747926  1.0000
  Se  Se2       1.0  0.7243476192312018  0.7243473329804829  0.2756525381994698  1.0000
  Se  Se3       1.0  0.7243474237643672  0.2756526652986132  0.27565240115214207  1.0000
  Se  Se4       1.0  0.27565258759187006  0.7243474264817482  0.7243475971475445  1.0000
  Se  Se5       1.0  0.2756525779187691  0.7243474430803838  0.2756524930709499  1.0000
  Se  Se6       1.0  0.7243474190650477  0.2756526251183622  0.7243475370419598  1.0000
