data_image0
_chemical_formula_structural       Ti2CS6
_chemical_formula_sum              "Ti2 C1 S6"
_cell_length_a       6.030254731089713
_cell_length_b       6.030254745306768
_cell_length_c       6.030254604772648
_cell_angle_alpha    60.00000181098099
_cell_angle_beta     60.00000023250279
_cell_angle_gamma    60.000000936581955

_space_group_name_H-M_alt    "P 1"
_space_group_IT_number       1

loop_
  _space_group_symop_operation_xyz
  'x, y, z'

loop_
  _atom_site_type_symbol
  _atom_site_label
  _atom_site_symmetry_multiplicity
  _atom_site_fract_x
  _atom_site_fract_y
  _atom_site_fract_z
  _atom_site_occupancy
  Ti  Ti1       1.0  0.24999992764561352  0.2500000085679805  0.24999986676215288  1.0000
  Ti  Ti2       1.0  0.7499999714246941  0.7499999485259424  0.7500001084551534  1.0000
  C   C1        1.0  0.9999996895758334  3.7979703306547357e-07  0.9999999288308659  1.0000
  S   S1        1.0  0.2331558318616933  0.23315575084992474  0.7668442022408855  1.0000
  S   S2        1.0  0.7668441909766349  0.7668442428020009  0.2331556546723991  1.0000
  S   S3        1.0  0.7668444182698293  0.23315566977919222  0.23315559611404238  1.0000
  S   S4        1.0  0.23315583201375398  0.7668440781217123  0.7668443180429609  1.0000
  S   S5        1.0  0.23315582782363925  0.766844178543789  0.23315593652678004  1.0000
  S   S6        1.0  0.7668443269664921  0.23315572371313523  0.7668443942829252  1.0000
