data_image0
_chemical_formula_structural       Ti2CoS6
_chemical_formula_sum              "Ti2 Co1 S6"
_cell_length_a       5.803525762307395
_cell_length_b       5.803526335922824
_cell_length_c       5.8035261245383865
_cell_angle_alpha    60.00000297443781
_cell_angle_beta     59.999999632149525
_cell_angle_gamma    60.00000400718944

_space_group_name_H-M_alt    "P 1"
_space_group_IT_number       1

loop_
  _space_group_symop_operation_xyz
  'x, y, z'

loop_
  _atom_site_type_symbol
  _atom_site_label
  _atom_site_symmetry_multiplicity
  _atom_site_fract_x
  _atom_site_fract_y
  _atom_site_fract_z
  _atom_site_occupancy
  Ti  Ti1       1.0  0.24999979297954847  0.2500002095635178  0.24999996697881366  1.0000
  Ti  Ti2       1.0  0.7499999189280943  0.7500000652281974  0.7499997403638569  1.0000
  Co  Co1       1.0  9.648961398021183e-08  0.9999999134758201  1.1391051883534252e-07  1.0000
  S   S1        1.0  0.2613547933680359  0.26135483985410457  0.7386451222532037  1.0000
  S   S2        1.0  0.7386452519222227  0.7386451331581523  0.26135486221325166  1.0000
  S   S3        1.0  0.7386452320092847  0.26135470243536757  0.2613548781664019  1.0000
  S   S4        1.0  0.2613547389224767  0.7386451355147514  0.7386453316266947  1.0000
  S   S5        1.0  0.26135499600852674  0.7386451754282035  0.2613546806705076  1.0000
  S   S6        1.0  0.7386451068195826  0.2613548756668547  0.7386453858944859  1.0000
