data_image0
_chemical_formula_structural       Ti2FeN6
_chemical_formula_sum              "Ti2 Fe1 N6"
_cell_length_a       4.816114868114028
_cell_length_b       4.8161146125980085
_cell_length_c       4.81611480771424
_cell_angle_alpha    59.99999853454917
_cell_angle_beta     59.99999913821443
_cell_angle_gamma    59.9999974278189

_space_group_name_H-M_alt    "P 1"
_space_group_IT_number       1

loop_
  _space_group_symop_operation_xyz
  'x, y, z'

loop_
  _atom_site_type_symbol
  _atom_site_label
  _atom_site_symmetry_multiplicity
  _atom_site_fract_x
  _atom_site_fract_y
  _atom_site_fract_z
  _atom_site_occupancy
  Ti  Ti1       1.0  0.25000000578034676  0.24999996026830035  0.24999999483876725  1.0000
  Ti  Ti2       1.0  0.7500000119142264  0.7499999977835655  0.749999953656726  1.0000
  Fe  Fe1       1.0  0.999999987355503  1.6020990976317842e-07  0.9999998327809828  1.0000
  N   N1        1.0  0.2697153298361266  0.2697154111086014  0.7302846728245621  1.0000
  N   N2        1.0  0.730284624623866  0.730284635948771  0.2697154019017535  1.0000
  N   N3        1.0  0.7302846427518237  0.2697153145037127  0.2697153983599558  1.0000
  N   N4        1.0  0.2697153623980682  0.7302846308330814  0.7302846375144628  1.0000
  N   N5        1.0  0.2697153750701254  0.7302845962061801  0.2697153974335301  1.0000
  N   N6        1.0  0.7302846426494007  0.2697153186144406  0.7302846827123196  1.0000
