data_image0
_chemical_formula_structural       Ti2FeTe6
_chemical_formula_sum              "Ti2 Fe1 Te6"
_cell_length_a       6.831200884266436
_cell_length_b       6.831200835660509
_cell_length_c       6.831200942753657
_cell_angle_alpha    59.999999599169676
_cell_angle_beta     59.99999910862801
_cell_angle_gamma    60.000000487326965

_space_group_name_H-M_alt    "P 1"
_space_group_IT_number       1

loop_
  _space_group_symop_operation_xyz
  'x, y, z'

loop_
  _atom_site_type_symbol
  _atom_site_label
  _atom_site_symmetry_multiplicity
  _atom_site_fract_x
  _atom_site_fract_y
  _atom_site_fract_z
  _atom_site_occupancy
  Ti  Ti1       1.0  0.25000004375123447  0.2500001066235657  0.2499999427148526  1.0000
  Ti  Ti2       1.0  0.7500000286269082  0.7499999989471317  0.7500000560223241  1.0000
  Fe  Fe1       1.0  4.058558785461104e-08  0.9999999695212263  3.5934993181470375e-08  1.0000
  Te  Te1       1.0  0.2499548711351196  0.24995491021021637  0.7500450816481872  1.0000
  Te  Te2       1.0  0.7500451489306562  0.7500450429666082  0.24995485695237885  1.0000
  Te  Te3       1.0  0.7500450324050311  0.2499549254673152  0.24995492370873143  1.0000
  Te  Te4       1.0  0.24995492598846367  0.7500450707383666  0.7500450813045333  1.0000
  Te  Te5       1.0  0.2499548850098755  0.7500450760929976  0.24995492044539214  1.0000
  Te  Te6       1.0  0.7500450293500129  0.24995489501251658  0.7500451030321738  1.0000
