data_image0
_chemical_formula_structural       Ti2FeSe6
_chemical_formula_sum              "Ti2 Fe1 Se6"
_cell_length_a       6.443726358550883
_cell_length_b       6.443726354679975
_cell_length_c       6.443726425710991
_cell_angle_alpha    59.999999337332014
_cell_angle_beta     60.00000050382879
_cell_angle_gamma    60.00000079722936

_space_group_name_H-M_alt    "P 1"
_space_group_IT_number       1

loop_
  _space_group_symop_operation_xyz
  'x, y, z'

loop_
  _atom_site_type_symbol
  _atom_site_label
  _atom_site_symmetry_multiplicity
  _atom_site_fract_x
  _atom_site_fract_y
  _atom_site_fract_z
  _atom_site_occupancy
  Ti  Ti1       1.0  0.24999999951537827  0.25000017100711686  0.24999985325998514  1.0000
  Ti  Ti2       1.0  0.7499995708664432  0.7500001994094786  0.7500000281952489  1.0000
  Fe  Fe1       1.0  2.4780213936860814e-08  0.9999999847945767  0.9999999579670757  1.0000
  Se  Se1       1.0  0.25105020704303793  0.25104995208751313  0.7489499454234191  1.0000
  Se  Se2       1.0  0.7489499730364981  0.7489498633311193  0.2510500995652808  1.0000
  Se  Se3       1.0  0.7489498860429377  0.25105003760675243  0.25105016004207936  1.0000
  Se  Se4       1.0  0.2510502635170518  0.7489498747464556  0.7489499727870752  1.0000
  Se  Se5       1.0  0.25105012374967767  0.7489499103366989  0.25105008343825974  1.0000
  Se  Se6       1.0  0.7489499426371364  0.25105000961922136  0.748949890085201  1.0000
