data_image0
_chemical_formula_structural       Ti2FeS6
_chemical_formula_sum              "Ti2 Fe1 S6"
_cell_length_a       5.746601416627741
_cell_length_b       5.74660084381445
_cell_length_c       5.746600670829124
_cell_angle_alpha    59.99999706451045
_cell_angle_beta     60.000000748835696
_cell_angle_gamma    60.000003049370854

_space_group_name_H-M_alt    "P 1"
_space_group_IT_number       1

loop_
  _space_group_symop_operation_xyz
  'x, y, z'

loop_
  _atom_site_type_symbol
  _atom_site_label
  _atom_site_symmetry_multiplicity
  _atom_site_fract_x
  _atom_site_fract_y
  _atom_site_fract_z
  _atom_site_occupancy
  Ti  Ti1       1.0  0.24999943855718756  0.25000099528259917  0.2500000098959037  1.0000
  Ti  Ti2       1.0  0.7500010413821835  0.7499993840337644  0.749999430604571  1.0000
  Fe  Fe1       1.0  9.281724904025673e-08  0.9999999445874798  0.9999999691165203  1.0000
  S   S1        1.0  0.2654094588121142  0.2654093076842676  0.7345906868806584  1.0000
  S   S2        1.0  0.7345906024210465  0.7345903384817012  0.26540963407601076  1.0000
  S   S3        1.0  0.734590478384065  0.26540944303389186  0.26540947063349685  1.0000
  S   S4        1.0  0.2654090781507935  0.7345903970758948  0.7345907481568613  1.0000
  S   S5        1.0  0.2654090861143803  0.7345904415390995  0.26540980187598473  1.0000
  S   S6        1.0  0.7345907582605985  0.265409758752127  0.7345902582186985  1.0000
