data_image0
_chemical_formula_structural       Ti2FeO6
_chemical_formula_sum              "Ti2 Fe1 O6"
_cell_length_a       4.735725362600588
_cell_length_b       4.735725777587609
_cell_length_c       4.735726132459845
_cell_angle_alpha    60.000002179067856
_cell_angle_beta     59.99999976282271
_cell_angle_gamma    60.000001147731204

_space_group_name_H-M_alt    "P 1"
_space_group_IT_number       1

loop_
  _space_group_symop_operation_xyz
  'x, y, z'

loop_
  _atom_site_type_symbol
  _atom_site_label
  _atom_site_symmetry_multiplicity
  _atom_site_fract_x
  _atom_site_fract_y
  _atom_site_fract_z
  _atom_site_occupancy
  Ti  Ti1       1.0  0.24999991916900915  0.24999922505025007  0.2499993407161935  1.0000
  Ti  Ti2       1.0  0.7500018455877913  0.749998820829354  0.7499978960646853  1.0000
  Fe  Fe1       1.0  1.6328402740498955e-08  3.8792729173211546e-08  0.9999999956671306  1.0000
  O   O1        1.0  0.2574972096571421  0.2574979329684946  0.7425021917309821  1.0000
  O   O2        1.0  0.7425019451120946  0.7425028956430163  0.2574989031625752  1.0000
  O   O3        1.0  0.7425027710042358  0.2574981941639846  0.2574972968887002  1.0000
  O   O4        1.0  0.25749716032869474  0.7425020603151176  0.7425033166996776  1.0000
  O   O5        1.0  0.257497117356045  0.7425033061830016  0.25749807272076464  1.0000
  O   O6        1.0  0.742502034556572  0.25749750173905256  0.7425030001600924  1.0000
