data_image0
_chemical_formula_structural       Ti2GeN6
_chemical_formula_sum              "Ti2 Ge1 N6"
_cell_length_a       4.876715545994976
_cell_length_b       4.876715581400735
_cell_length_c       4.876715432243983
_cell_angle_alpha    60.0000007102016
_cell_angle_beta     59.99999918757841
_cell_angle_gamma    60.00000042840729

_space_group_name_H-M_alt    "P 1"
_space_group_IT_number       1

loop_
  _space_group_symop_operation_xyz
  'x, y, z'

loop_
  _atom_site_type_symbol
  _atom_site_label
  _atom_site_symmetry_multiplicity
  _atom_site_fract_x
  _atom_site_fract_y
  _atom_site_fract_z
  _atom_site_occupancy
  Ti  Ti1       1.0  0.25000006434496724  0.2499999789665112  0.24999994481850327  1.0000
  Ti  Ti2       1.0  0.749999955920028  0.7500000373560674  0.750000001211586  1.0000
  Ge  Ge1       1.0  0.9999999692188173  6.574045333381293e-19  2.769395467289832e-08  1.0000
  N   N1        1.0  0.2681951336575617  0.2681951649250639  0.7318048464267015  1.0000
  N   N2        1.0  0.7318048505161648  0.7318048815344746  0.26819507182213514  1.0000
  N   N3        1.0  0.7318048719392551  0.26819507689633176  0.2681952230150257  1.0000
  N   N4        1.0  0.2681951852787886  0.7318048640838466  0.7318048221815985  1.0000
  N   N5        1.0  0.26819512775828547  0.731804852848078  0.26819517676349824  1.0000
  N   N6        1.0  0.7318048149197384  0.26819517603156745  0.7318048756017221  1.0000
