data_image0
_chemical_formula_structural       Ti2GeS6
_chemical_formula_sum              "Ti2 Ge1 S6"
_cell_length_a       6.267590752527703
_cell_length_b       6.267590894620475
_cell_length_c       6.267590762463902
_cell_angle_alpha    59.99999932887531
_cell_angle_beta     59.999997496047946
_cell_angle_gamma    59.99999786246489

_space_group_name_H-M_alt    "P 1"
_space_group_IT_number       1

loop_
  _space_group_symop_operation_xyz
  'x, y, z'

loop_
  _atom_site_type_symbol
  _atom_site_label
  _atom_site_symmetry_multiplicity
  _atom_site_fract_x
  _atom_site_fract_y
  _atom_site_fract_z
  _atom_site_occupancy
  Ti  Ti1       1.0  0.24999977639019372  0.2500000244331016  0.2500001049381901  1.0000
  Ti  Ti2       1.0  0.7500000049949525  0.7499998642114544  0.7500000910193556  1.0000
  Ge  Ge1       1.0  0.9999999781154839  0.9999999882754484  7.74338916793782e-08  1.0000
  S   S1        1.0  0.2573338617711436  0.2573338727935843  0.7426662732774763  1.0000
  S   S2        1.0  0.7426661753442088  0.7426660666573561  0.25733388588395517  1.0000
  S   S3        1.0  0.742666220738305  0.2573338099148685  0.2573337939427335  1.0000
  S   S4        1.0  0.2573338031421445  0.7426663405780027  0.742665980718999  1.0000
  S   S5        1.0  0.2573338826632976  0.7426660661310159  0.25733380214732343  1.0000
  S   S6        1.0  0.7426662954912598  0.2573339807949796  0.7426659806664886  1.0000
