data_image0
_chemical_formula_structural       Ti2HfN6
_chemical_formula_sum              "Ti2 Hf1 N6"
_cell_length_a       5.050113338853421
_cell_length_b       5.050113447188615
_cell_length_c       5.0501132180509165
_cell_angle_alpha    60.00000021890453
_cell_angle_beta     60.00000013365844
_cell_angle_gamma    59.99999955424236

_space_group_name_H-M_alt    "P 1"
_space_group_IT_number       1

loop_
  _space_group_symop_operation_xyz
  'x, y, z'

loop_
  _atom_site_type_symbol
  _atom_site_label
  _atom_site_symmetry_multiplicity
  _atom_site_fract_x
  _atom_site_fract_y
  _atom_site_fract_z
  _atom_site_occupancy
  Ti  Ti1       1.0  0.249999991662316  0.2500000150401461  0.2500000090182493  1.0000
  Ti  Ti2       1.0  0.7499999825398942  0.750000008742695  0.7500000137449963  1.0000
  Hf  Hf1       1.0  9.954331860136663e-09  0.9999999975748166  3.187819101987586e-08  1.0000
  N   N1        1.0  0.28403373422476735  0.28403368655365063  0.7159662284086652  1.0000
  N   N2        1.0  0.7159662736526076  0.7159662499226079  0.28403368849999694  1.0000
  N   N3        1.0  0.7159662647767963  0.284033713692849  0.28403376944992914  1.0000
  N   N4        1.0  0.2840337683430111  0.7159662979640767  0.715966261599933  1.0000
  N   N5        1.0  0.28403372591254517  0.7159662692155281  0.2840337630428356  1.0000
  N   N6        1.0  0.7159662388663303  0.28403376911841044  0.7159662531962211  1.0000
