data_image0
_chemical_formula_structural       Ti2IrN6
_chemical_formula_sum              "Ti2 Ir1 N6"
_cell_length_a       4.9761928641265865
_cell_length_b       4.976192213957732
_cell_length_c       4.976193397164939
_cell_angle_alpha    59.999997738500326
_cell_angle_beta     59.999995176337066
_cell_angle_gamma    59.99999873994456

_space_group_name_H-M_alt    "P 1"
_space_group_IT_number       1

loop_
  _space_group_symop_operation_xyz
  'x, y, z'

loop_
  _atom_site_type_symbol
  _atom_site_label
  _atom_site_symmetry_multiplicity
  _atom_site_fract_x
  _atom_site_fract_y
  _atom_site_fract_z
  _atom_site_occupancy
  Ti  Ti1       1.0  0.2499999501663243  0.24999993229953785  0.25000009736463435  1.0000
  Ti  Ti2       1.0  0.749999995605396  0.7500000159462183  0.750000108007329  1.0000
  Ir  Ir1       1.0  1.7815654909834185e-09  0.9999999876939537  0.9999999851665579  1.0000
  N   N1        1.0  0.27263966311032206  0.2726397746869742  0.7273602644556681  1.0000
  N   N2        1.0  0.727360335959301  0.727360299080425  0.2726396003105022  1.0000
  N   N3        1.0  0.7273604053959594  0.2726396556226393  0.27263970142515165  1.0000
  N   N4        1.0  0.2726395447351471  0.7273603073903627  0.7273603738094045  1.0000
  N   N5        1.0  0.2726397243322439  0.7273603082986941  0.2726395664541008  1.0000
  N   N6        1.0  0.7273603174907868  0.2726397137833211  0.7273603530172602  1.0000
