data_image0
_chemical_formula_structural       Ti2MnTe6
_chemical_formula_sum              "Ti2 Mn1 Te6"
_cell_length_a       6.891435588368108
_cell_length_b       6.891435902159576
_cell_length_c       6.891435628876921
_cell_angle_alpha    60.00000133501434
_cell_angle_beta     60.00000071638769
_cell_angle_gamma    60.00000070124495

_space_group_name_H-M_alt    "P 1"
_space_group_IT_number       1

loop_
  _space_group_symop_operation_xyz
  'x, y, z'

loop_
  _atom_site_type_symbol
  _atom_site_label
  _atom_site_symmetry_multiplicity
  _atom_site_fract_x
  _atom_site_fract_y
  _atom_site_fract_z
  _atom_site_occupancy
  Ti  Ti1       1.0  0.25000008860922973  0.24999995755425602  0.2499999533706896  1.0000
  Ti  Ti2       1.0  0.7499999812323133  0.7500001232477377  0.7499999932033867  1.0000
  Mn  Mn1       1.0  3.268061999928012e-08  7.286513201903005e-08  0.9999999428738948  1.0000
  Te  Te1       1.0  0.25611197577459827  0.2561119720654503  0.7438880207954923  1.0000
  Te  Te2       1.0  0.7438880193289524  0.7438879861098581  0.2561119867329343  1.0000
  Te  Te3       1.0  0.7438880101542737  0.25611191844103476  0.2561119819221182  1.0000
  Te  Te4       1.0  0.25611193006239585  0.7438880184078941  0.7438880492021739  1.0000
  Te  Te5       1.0  0.25611198093709525  0.7438880483934817  0.2561119573039549  1.0000
  Te  Te6       1.0  0.7438879763226434  0.2561119026730337  0.7438881147819912  1.0000
