data_image0
_chemical_formula_structural       Ti2MnS6
_chemical_formula_sum              "Ti2 Mn1 S6"
_cell_length_a       5.828855502942691
_cell_length_b       5.828854682649627
_cell_length_c       5.8288551547770115
_cell_angle_alpha    59.99999612437631
_cell_angle_beta     59.9999967790962
_cell_angle_gamma    59.99999402081942

_space_group_name_H-M_alt    "P 1"
_space_group_IT_number       1

loop_
  _space_group_symop_operation_xyz
  'x, y, z'

loop_
  _atom_site_type_symbol
  _atom_site_label
  _atom_site_symmetry_multiplicity
  _atom_site_fract_x
  _atom_site_fract_y
  _atom_site_fract_z
  _atom_site_occupancy
  Ti  Ti1       1.0  0.2499996869005824  0.24999948363143218  0.2500011596840412  1.0000
  Ti  Ti2       1.0  0.7500004509659919  0.7500009660019099  0.7499981243258412  1.0000
  Mn  Mn1       1.0  0.9999998782384455  0.9999999789882412  0.9999999718817014  1.0000
  S   S1        1.0  0.26715634936678107  0.26715602539322786  0.7328433476891988  1.0000
  S   S2        1.0  0.7328441742920468  0.7328434808120957  0.2671567744250595  1.0000
  S   S3        1.0  0.7328439036464695  0.2671555260900837  0.267156661369599  1.0000
  S   S4        1.0  0.2671558536163603  0.7328443478210466  0.7328435382819858  1.0000
  S   S5        1.0  0.26715583500689466  0.7328441558853388  0.26715671568926136  1.0000
  S   S6        1.0  0.732843882330017  0.26715604580924773  0.7328437277597769  1.0000
