data_image0
_chemical_formula_structural       Ti2MgS6
_chemical_formula_sum              "Ti2 Mg1 S6"
_cell_length_a       5.960421840209916
_cell_length_b       5.960421380530511
_cell_length_c       5.960422306147736
_cell_angle_alpha    59.99999678831
_cell_angle_beta     59.99999891784351
_cell_angle_gamma    59.99999941436985

_space_group_name_H-M_alt    "P 1"
_space_group_IT_number       1

loop_
  _space_group_symop_operation_xyz
  'x, y, z'

loop_
  _atom_site_type_symbol
  _atom_site_label
  _atom_site_symmetry_multiplicity
  _atom_site_fract_x
  _atom_site_fract_y
  _atom_site_fract_z
  _atom_site_occupancy
  Ti  Ti1       1.0  0.2500000801619673  0.2500001390886326  0.24999998022459818  1.0000
  Ti  Ti2       1.0  0.7500002421213385  0.7499997556216244  0.7499997606472284  1.0000
  Mg  Mg1       1.0  0.9999999725255346  1.849316270903073e-08  5.314492195255457e-08  1.0000
  S   S1        1.0  0.2678521347654708  0.26785225514587585  0.7321477975326205  1.0000
  S   S2        1.0  0.7321479606982497  0.7321477155918275  0.26785239958077184  1.0000
  S   S3        1.0  0.7321475420198797  0.26785229525286935  0.2678522297096572  1.0000
  S   S4        1.0  0.26785205857452765  0.7321477884985863  0.7321478009742824  1.0000
  S   S5        1.0  0.26785214857505407  0.7321476659342392  0.2678523583344918  1.0000
  S   S6        1.0  0.7321478634479497  0.26785234589937484  0.7321476133244827  1.0000
