data_image0
_chemical_formula_structural       Ti2MgTe6
_chemical_formula_sum              "Ti2 Mg1 Te6"
_cell_length_a       7.074822782775312
_cell_length_b       7.074822775669258
_cell_length_c       7.074822940838551
_cell_angle_alpha    60.000000031127335
_cell_angle_beta     59.999999473429554
_cell_angle_gamma    60.000000218064955

_space_group_name_H-M_alt    "P 1"
_space_group_IT_number       1

loop_
  _space_group_symop_operation_xyz
  'x, y, z'

loop_
  _atom_site_type_symbol
  _atom_site_label
  _atom_site_symmetry_multiplicity
  _atom_site_fract_x
  _atom_site_fract_y
  _atom_site_fract_z
  _atom_site_occupancy
  Ti  Ti1       1.0  0.2499999787740516  0.2499999574658644  0.250000076144072  1.0000
  Ti  Ti2       1.0  0.7499999615931784  0.7500000022324574  0.7500001819754576  1.0000
  Mg  Mg1       1.0  3.0012105236084233e-09  0.9999999567217136  2.0812910804715635e-07  1.0000
  Te  Te1       1.0  0.26942463742678696  0.2694245677804783  0.7305754247887141  1.0000
  Te  Te2       1.0  0.7305754088306523  0.7305754023046315  0.2694245942690614  1.0000
  Te  Te3       1.0  0.7305754788773998  0.2694246194038228  0.26942449128874485  1.0000
  Te  Te4       1.0  0.2694246244054606  0.7305753558746799  0.7305752676786283  1.0000
  Te  Te5       1.0  0.26942459015403375  0.7305754801486875  0.26942446917395135  1.0000
  Te  Te6       1.0  0.730575316314661  0.2694246595873084  0.7305752791159631  1.0000
