data_image0
_chemical_formula_structural       Ti2MoN6
_chemical_formula_sum              "Ti2 Mo1 N6"
_cell_length_a       4.986994662215765
_cell_length_b       4.9869950991413035
_cell_length_c       4.986994634788207
_cell_angle_alpha    60.00000060329677
_cell_angle_beta     60.00000192946534
_cell_angle_gamma    59.999999383326156

_space_group_name_H-M_alt    "P 1"
_space_group_IT_number       1

loop_
  _space_group_symop_operation_xyz
  'x, y, z'

loop_
  _atom_site_type_symbol
  _atom_site_label
  _atom_site_symmetry_multiplicity
  _atom_site_fract_x
  _atom_site_fract_y
  _atom_site_fract_z
  _atom_site_occupancy
  Ti  Ti1       1.0  0.2500000443377872  0.2500000027453671  0.24999995555085236  1.0000
  Ti  Ti2       1.0  0.7499999953038351  0.7500000254272455  0.7499999790473546  1.0000
  Mo  Mo1       1.0  2.4907844734019565e-08  2.947052721977156e-08  2.889049488419037e-09  1.0000
  N   N1        1.0  0.27516503607074927  0.2751649626928267  0.7248349921257706  1.0000
  N   N2        1.0  0.724834956162868  0.7248350826709281  0.27516499567996555  1.0000
  N   N3        1.0  0.7248350286315628  0.2751649715183462  0.2751649650297831  1.0000
  N   N4        1.0  0.2751649214349067  0.7248349780661918  0.7248350536500379  1.0000
  N   N5        1.0  0.27516497684582475  0.7248349617350893  0.27516502557296774  1.0000
  N   N6        1.0  0.7248350099865153  0.27516500258471144  0.7248349833980124  1.0000
