data_image0
_chemical_formula_structural       Ti2MnN6
_chemical_formula_sum              "Ti2 Mn1 N6"
_cell_length_a       4.842292604606551
_cell_length_b       4.842292519286692
_cell_length_c       4.842292218915528
_cell_angle_alpha    60.00000019563342
_cell_angle_beta     60.00000033950127
_cell_angle_gamma    59.99999993820056

_space_group_name_H-M_alt    "P 1"
_space_group_IT_number       1

loop_
  _space_group_symop_operation_xyz
  'x, y, z'

loop_
  _atom_site_type_symbol
  _atom_site_label
  _atom_site_symmetry_multiplicity
  _atom_site_fract_x
  _atom_site_fract_y
  _atom_site_fract_z
  _atom_site_occupancy
  Ti  Ti1       1.0  0.2500000037535782  0.25000000886576174  0.24999998595829928  1.0000
  Ti  Ti2       1.0  0.7499999799962505  0.7499999987753523  0.7500000163300345  1.0000
  Mn  Mn1       1.0  3.3409433504096095e-08  0.9999999570024678  8.924324657012746e-09  1.0000
  N   N1        1.0  0.2630829167898064  0.26308294272834987  0.7369170725360684  1.0000
  N   N2        1.0  0.7369170818463193  0.7369170345615649  0.263082941614992  1.0000
  N   N3        1.0  0.7369170673922393  0.2630829485924573  0.2630829067053285  1.0000
  N   N4        1.0  0.26308292854515053  0.7369170868705897  0.7369170528617435  1.0000
  N   N5        1.0  0.26308290710447085  0.7369171053784266  0.26308295339613563  1.0000
  N   N6        1.0  0.7369170792944565  0.2630829300846197  0.7369170605034717  1.0000
