data_image0
_chemical_formula_structural       Ti2MgO6
_chemical_formula_sum              "Ti2 Mg1 O6"
_cell_length_a       4.6343481039835295
_cell_length_b       4.634348971572598
_cell_length_c       4.634349111242271
_cell_angle_alpha    60.000012699989064
_cell_angle_beta     60.0000112899149
_cell_angle_gamma    60.00000544555583

_space_group_name_H-M_alt    "P 1"
_space_group_IT_number       1

loop_
  _space_group_symop_operation_xyz
  'x, y, z'

loop_
  _atom_site_type_symbol
  _atom_site_label
  _atom_site_symmetry_multiplicity
  _atom_site_fract_x
  _atom_site_fract_y
  _atom_site_fract_z
  _atom_site_occupancy
  Ti  Ti1       1.0  0.24999885132518446  0.2500019879305684  0.2499994996958938  1.0000
  Ti  Ti2       1.0  0.7500003961144727  0.7500017776680068  0.7499970419409321  1.0000
  Mg  Mg1       1.0  0.9999999385905767  0.9999999973572473  6.132475337214893e-09  1.0000
  O   O1        1.0  0.26654827470450193  0.266548556653729  0.733450828906538  1.0000
  O   O2        1.0  0.7334525019927952  0.733450142784357  0.2665498310259511  1.0000
  O   O3        1.0  0.7334514992446602  0.2665478078844575  0.2665492829335017  1.0000
  O   O4        1.0  0.26654884643842897  0.733450323361472  0.7334525304155481  1.0000
  O   O5        1.0  0.26654867410740685  0.7334518876204621  0.2665488674846722  1.0000
  O   O6        1.0  0.7334510808424133  0.26654738793821187  0.733452187885204  1.0000
