data_image0
_chemical_formula_structural       Ti2NiSe6
_chemical_formula_sum              "Ti2 Ni1 Se6"
_cell_length_a       6.309372340490153
_cell_length_b       6.309372082147923
_cell_length_c       6.3093722679376025
_cell_angle_alpha    60.000000402915255
_cell_angle_beta     59.99999892206961
_cell_angle_gamma    60.000000000702464

_space_group_name_H-M_alt    "P 1"
_space_group_IT_number       1

loop_
  _space_group_symop_operation_xyz
  'x, y, z'

loop_
  _atom_site_type_symbol
  _atom_site_label
  _atom_site_symmetry_multiplicity
  _atom_site_fract_x
  _atom_site_fract_y
  _atom_site_fract_z
  _atom_site_occupancy
  Ti  Ti1       1.0  0.24999994945719226  0.24999999738539835  0.24999999885198793  1.0000
  Ti  Ti2       1.0  0.7499999564796298  0.7499999533331586  0.749999855722224  1.0000
  Ni  Ni1       1.0  8.208671711633134e-09  0.9999999534123585  4.137869651639462e-08  1.0000
  Se  Se1       1.0  0.2583332407712727  0.2583332191296819  0.7416668066713442  1.0000
  Se  Se2       1.0  0.7416667355226267  0.74166681699956  0.2583333202915505  1.0000
  Se  Se3       1.0  0.7416667675621107  0.2583332642082651  0.25833324647478567  1.0000
  Se  Se4       1.0  0.25833327903500186  0.7416667641563683  0.74166674461252  1.0000
  Se  Se5       1.0  0.2583332445450429  0.7416667461834402  0.25833327418268226  1.0000
  Se  Se6       1.0  0.74166681647112  0.2583332938281037  0.7416667038716429  1.0000
