data_image0
_chemical_formula_structural       Ti2NiO6
_chemical_formula_sum              "Ti2 Ni1 O6"
_cell_length_a       4.571705030024773
_cell_length_b       4.571704789539508
_cell_length_c       4.571705105464043
_cell_angle_alpha    60.00000182715472
_cell_angle_beta     60.00000385120261
_cell_angle_gamma    60.000000221580535

_space_group_name_H-M_alt    "P 1"
_space_group_IT_number       1

loop_
  _space_group_symop_operation_xyz
  'x, y, z'

loop_
  _atom_site_type_symbol
  _atom_site_label
  _atom_site_symmetry_multiplicity
  _atom_site_fract_x
  _atom_site_fract_y
  _atom_site_fract_z
  _atom_site_occupancy
  Ti  Ti1       1.0  0.2500009309399023  0.25000027369905614  0.24999945690921696  1.0000
  Ti  Ti2       1.0  0.7500004791496071  0.7500009577244966  0.7499985514913761  1.0000
  Ni  Ni1       1.0  0.9999999262191328  0.9999998955202689  1.4381448547688985e-07  1.0000
  O   O1        1.0  0.2606850824578468  0.26068622928570534  0.7393143618865545  1.0000
  O   O2        1.0  0.7393145435785584  0.7393136787279307  0.26068608831672735  1.0000
  O   O3        1.0  0.7393131285805788  0.2606856596826266  0.26068596923692  1.0000
  O   O4        1.0  0.26068640585050046  0.7393136214526118  0.7393148555197748  1.0000
  O   O5        1.0  0.26068522848130926  0.7393148849556197  0.26068635774681925  1.0000
  O   O6        1.0  0.7393142308598097  0.2606847578402314  0.7393142449793215  1.0000
