data_image0
_chemical_formula_structural       Ti2NbN6
_chemical_formula_sum              "Ti2 Nb1 N6"
_cell_length_a       5.016334163504111
_cell_length_b       5.016333974779386
_cell_length_c       5.016334205829092
_cell_angle_alpha    60.00000101958564
_cell_angle_beta     60.00000075682078
_cell_angle_gamma    60.00000076491711

_space_group_name_H-M_alt    "P 1"
_space_group_IT_number       1

loop_
  _space_group_symop_operation_xyz
  'x, y, z'

loop_
  _atom_site_type_symbol
  _atom_site_label
  _atom_site_symmetry_multiplicity
  _atom_site_fract_x
  _atom_site_fract_y
  _atom_site_fract_z
  _atom_site_occupancy
  Ti  Ti1       1.0  0.25000001035420744  0.2499999965809195  0.25000001268121697  1.0000
  Ti  Ti2       1.0  0.750000019529259  0.7500000312484921  0.7499999851812023  1.0000
  Nb  Nb1       1.0  6.742054456977319e-10  4.8830284926337885e-09  3.31041597980033e-08  1.0000
  N   N1        1.0  0.27862538237164225  0.2786252545732273  0.7213746619868554  1.0000
  N   N2        1.0  0.7213747496803062  0.7213746462974668  0.27862530640744054  1.0000
  N   N3        1.0  0.7213745951798886  0.2786253749037492  0.27862541448913636  1.0000
  N   N4        1.0  0.27862530672774405  0.7213746846653404  0.7213746155434597  1.0000
  N   N5        1.0  0.2786253297554863  0.7213746638677173  0.2786253340038272  1.0000
  N   N6        1.0  0.7213746056351756  0.27862532978049803  0.7213746325081866  1.0000
