data_image0
_chemical_formula_structural       Ti2NiN6
_chemical_formula_sum              "Ti2 Ni1 N6"
_cell_length_a       4.8034246761873245
_cell_length_b       4.8034247610642895
_cell_length_c       4.803424830342415
_cell_angle_alpha    59.99999933655752
_cell_angle_beta     59.99999769228685
_cell_angle_gamma    59.999998485834915

_space_group_name_H-M_alt    "P 1"
_space_group_IT_number       1

loop_
  _space_group_symop_operation_xyz
  'x, y, z'

loop_
  _atom_site_type_symbol
  _atom_site_label
  _atom_site_symmetry_multiplicity
  _atom_site_fract_x
  _atom_site_fract_y
  _atom_site_fract_z
  _atom_site_occupancy
  Ti  Ti1       1.0  0.24999999889544025  0.24999998873882556  0.24999998782695215  1.0000
  Ti  Ti2       1.0  0.750000026916412  0.7500000197608615  0.7499999923764474  1.0000
  Ni  Ni1       1.0  0.9999999975960887  6.754088454637014e-17  1.5774891067904063e-08  1.0000
  N   N1        1.0  0.26299687590504006  0.26299678274836136  0.7370031531819661  1.0000
  N   N2        1.0  0.7370031169561474  0.7370032308507912  0.2629967868189875  1.0000
  N   N3        1.0  0.7370032017289116  0.2629968323696402  0.2629968246481348  1.0000
  N   N4        1.0  0.26299680065213543  0.7370031021878012  0.7370032375513573  1.0000
  N   N5        1.0  0.262996794823793  0.7370031519518275  0.2629968679422442  1.0000
  N   N6        1.0  0.7370031889800169  0.2629968743959884  0.7370031347503518  1.0000
