data_image0
_chemical_formula_structural       Ti2OsN6
_chemical_formula_sum              "Ti2 Os1 N6"
_cell_length_a       4.940634690362453
_cell_length_b       4.940634219353766
_cell_length_c       4.940634777069999
_cell_angle_alpha    59.99999721954754
_cell_angle_beta     59.99999946918688
_cell_angle_gamma    59.999997456536306

_space_group_name_H-M_alt    "P 1"
_space_group_IT_number       1

loop_
  _space_group_symop_operation_xyz
  'x, y, z'

loop_
  _atom_site_type_symbol
  _atom_site_label
  _atom_site_symmetry_multiplicity
  _atom_site_fract_x
  _atom_site_fract_y
  _atom_site_fract_z
  _atom_site_occupancy
  Ti  Ti1       1.0  0.25000002666654003  0.25000002516917297  0.24999996615437556  1.0000
  Ti  Ti2       1.0  0.749999989158632  0.7500000184923015  0.7499999642951035  1.0000
  Os  Os1       1.0  3.1634574762501013e-09  0.9999999975210783  7.049883163120409e-08  1.0000
  N   N1        1.0  0.26393808981754296  0.26393801759870383  0.7360619205500452  1.0000
  N   N2        1.0  0.7360618846721121  0.7360619467372509  0.2639380601097944  1.0000
  N   N3        1.0  0.7360619591840676  0.26393813434073526  0.2639379634468985  1.0000
  N   N4        1.0  0.2639380670509055  0.7360619762516459  0.73606191821207  1.0000
  N   N5        1.0  0.26393806981077966  0.7360618200217642  0.2639381292394106  1.0000
  N   N6        1.0  0.7360619521793923  0.26393802284699014  0.736061957220838  1.0000
