data_image0
_chemical_formula_structural       Ti2PN6
_chemical_formula_sum              "Ti2 P1 N6"
_cell_length_a       4.834210086990509
_cell_length_b       4.834210082234798
_cell_length_c       4.8342102309436354
_cell_angle_alpha    59.999998873389096
_cell_angle_beta     59.99999856426174
_cell_angle_gamma    59.99999809482165

_space_group_name_H-M_alt    "P 1"
_space_group_IT_number       1

loop_
  _space_group_symop_operation_xyz
  'x, y, z'

loop_
  _atom_site_type_symbol
  _atom_site_label
  _atom_site_symmetry_multiplicity
  _atom_site_fract_x
  _atom_site_fract_y
  _atom_site_fract_z
  _atom_site_occupancy
  Ti  Ti1       1.0  0.249999929907403  0.25000001085665413  0.2500000274285757  1.0000
  Ti  Ti2       1.0  0.7500000172190052  0.750000002168015  0.7499999630523998  1.0000
  P   P1        1.0  1.0953620255096135e-08  1.0133981368696497e-08  0.9999999708388871  1.0000
  N   N1        1.0  0.2500802797159046  0.2500803482276869  0.7499196889123445  1.0000
  N   N2        1.0  0.749919704084037  0.7499196622634865  0.250080350693499  1.0000
  N   N3        1.0  0.7499197256805027  0.2500802558167174  0.25008031884275567  1.0000
  N   N4        1.0  0.2500802856732429  0.7499197293395019  0.7499197031049412  1.0000
  N   N5        1.0  0.2500803271080713  0.7499196835030758  0.2500802538617066  1.0000
  N   N6        1.0  0.7499197487627984  0.25008025858372107  0.7499197077159738  1.0000
