data_image0
_chemical_formula_structural       Ti2PtN6
_chemical_formula_sum              "Ti2 Pt1 N6"
_cell_length_a       4.981045078336776
_cell_length_b       4.981044571907339
_cell_length_c       4.9810446617116515
_cell_angle_alpha    60.00000133318291
_cell_angle_beta     60.000001863523075
_cell_angle_gamma    59.999999888897136

_space_group_name_H-M_alt    "P 1"
_space_group_IT_number       1

loop_
  _space_group_symop_operation_xyz
  'x, y, z'

loop_
  _atom_site_type_symbol
  _atom_site_label
  _atom_site_symmetry_multiplicity
  _atom_site_fract_x
  _atom_site_fract_y
  _atom_site_fract_z
  _atom_site_occupancy
  Ti  Ti1       1.0  0.24999994531701747  0.25000004679639126  0.24999992942123053  1.0000
  Ti  Ti2       1.0  0.7499999734755819  0.7500000199074253  0.7499999544044544  1.0000
  Pt  Pt1       1.0  0.999999962322357  7.130552565703818e-08  0.9999999109120643  1.0000
  N   N1        1.0  0.27228240190306624  0.2722821051188151  0.7277178687138689  1.0000
  N   N2        1.0  0.7277177904158779  0.7277177599624844  0.27228229636243356  1.0000
  N   N3        1.0  0.7277177424910666  0.2722821688116779  0.27228251244233054  1.0000
  N   N4        1.0  0.272282339422655  0.7277176102112243  0.7277177066983398  1.0000
  N   N5        1.0  0.27228227764859564  0.7277177314701087  0.2722822203261442  1.0000
  N   N6        1.0  0.7277175746396065  0.27228249997406406  0.7277175983206763  1.0000
