data_image0
_chemical_formula_structural       Ti2PbN6
_chemical_formula_sum              "Ti2 Pb1 N6"
_cell_length_a       5.31662410934681
_cell_length_b       5.316624046079723
_cell_length_c       5.316624049924197
_cell_angle_alpha    59.999998516080495
_cell_angle_beta     59.99999732880426
_cell_angle_gamma    59.99999869968164

_space_group_name_H-M_alt    "P 1"
_space_group_IT_number       1

loop_
  _space_group_symop_operation_xyz
  'x, y, z'

loop_
  _atom_site_type_symbol
  _atom_site_label
  _atom_site_symmetry_multiplicity
  _atom_site_fract_x
  _atom_site_fract_y
  _atom_site_fract_z
  _atom_site_occupancy
  Ti  Ti1       1.0  0.2499997432151265  0.2500002434912588  0.2500001157058198  1.0000
  Ti  Ti2       1.0  0.7500003195659962  0.749999799813776  0.7499999251646432  1.0000
  Pb  Pb1       1.0  4.253327121082465e-09  1.5664574438795351e-07  0.9999996750343959  1.0000
  N   N1        1.0  0.3070795377478216  0.30708058838222085  0.6929200807369159  1.0000
  N   N2        1.0  0.6929201736272428  0.6929195839251882  0.30708050017895877  1.0000
  N   N3        1.0  0.6929199486397501  0.3070805436520664  0.30707974616278194  1.0000
  N   N4        1.0  0.30707990219017595  0.6929199465540598  0.6929200154759514  1.0000
  N   N5        1.0  0.3070800316862967  0.6929192482078095  0.30708014254980687  1.0000
  N   N6        1.0  0.6929203949528101  0.3070798989914328  0.6929196979831428  1.0000
