data_image0
_chemical_formula_structural       Ti2PdN6
_chemical_formula_sum              "Ti2 Pd1 N6"
_cell_length_a       4.861089461664103
_cell_length_b       4.861089487736373
_cell_length_c       4.861089023661383
_cell_angle_alpha    60.00000476002349
_cell_angle_beta     60.00000335416602
_cell_angle_gamma    60.00000384142572

_space_group_name_H-M_alt    "P 1"
_space_group_IT_number       1

loop_
  _space_group_symop_operation_xyz
  'x, y, z'

loop_
  _atom_site_type_symbol
  _atom_site_label
  _atom_site_symmetry_multiplicity
  _atom_site_fract_x
  _atom_site_fract_y
  _atom_site_fract_z
  _atom_site_occupancy
  Ti  Ti1       1.0  0.2499998456722164  0.24999987471704918  0.25000008350389785  1.0000
  Ti  Ti2       1.0  0.7499999797003305  0.7499998282295398  0.7500001061029026  1.0000
  Pd  Pd1       1.0  0.9999999729361838  0.9999999244154106  0.9999999320093739  1.0000
  N   N1        1.0  0.2769141571853457  0.27691444371126483  0.7230858119619442  1.0000
  N   N2        1.0  0.7230856581297405  0.7230854960670319  0.2769143630010413  1.0000
  N   N3        1.0  0.7230858910627497  0.27691427780421257  0.27691438017265907  1.0000
  N   N4        1.0  0.2769145010409143  0.7230856846494653  0.7230854683153702  1.0000
  N   N5        1.0  0.2769143841817411  0.7230859518005468  0.27691430898581826  1.0000
  N   N6        1.0  0.7230855479267517  0.27691450699191733  0.7230856406452361  1.0000
