data_image0
_chemical_formula_structural       Ti2RhN6
_chemical_formula_sum              "Ti2 Rh1 N6"
_cell_length_a       3.7499204052902195
_cell_length_b       4.869852435855993
_cell_length_c       4.859095524158521
_cell_angle_alpha    54.25672752247698
_cell_angle_beta     44.181517897024
_cell_angle_gamma    71.73126327990526

_space_group_name_H-M_alt    "P 1"
_space_group_IT_number       1

loop_
  _space_group_symop_operation_xyz
  'x, y, z'

loop_
  _atom_site_type_symbol
  _atom_site_label
  _atom_site_symmetry_multiplicity
  _atom_site_fract_x
  _atom_site_fract_y
  _atom_site_fract_z
  _atom_site_occupancy
  Ti  Ti1       1.0  0.6661052229380533  0.1327466458279854  0.29836663176780154  1.0000
  Ti  Ti2       1.0  0.624899407434217  0.14070672704019982  0.3156793606878812  1.0000
  Rh  Rh1       1.0  0.04716003019297639  0.04270875778222014  0.012839951482082728  1.0000
  N   N1        1.0  0.04778500321091464  0.5417906417789711  0.6370686578546214  1.0000
  N   N2        1.0  0.26697088136552016  0.05628329655020847  0.04293558507577689  1.0000
  N   N3        1.0  0.6689968658113519  0.7146871954084597  0.9625766293022078  1.0000
  N   N4        1.0  0.7159285587940826  0.2569604761169777  0.7493101967019011  1.0000
  N   N5        1.0  0.7944123253734607  0.6573027979750705  0.538552683899928  1.0000
  N   N6        1.0  0.5271707191907676  0.469731211026522  0.4088361767622022  1.0000
