data_image0
_chemical_formula_structural       Ti2SN6
_chemical_formula_sum              "Ti2 S1 N6"
_cell_length_a       4.682279252891185
_cell_length_b       4.682279005489325
_cell_length_c       4.68227944027955
_cell_angle_alpha    60.0000004355184
_cell_angle_beta     59.999998400959925
_cell_angle_gamma    60.00000106240604

_space_group_name_H-M_alt    "P 1"
_space_group_IT_number       1

loop_
  _space_group_symop_operation_xyz
  'x, y, z'

loop_
  _atom_site_type_symbol
  _atom_site_label
  _atom_site_symmetry_multiplicity
  _atom_site_fract_x
  _atom_site_fract_y
  _atom_site_fract_z
  _atom_site_occupancy
  Ti  Ti1       1.0  0.2500000148648965  0.25000002413325684  0.24999994599918163  1.0000
  Ti  Ti2       1.0  0.7499999976147125  0.7500000357799356  0.7499998840688739  1.0000
  S   S1        1.0  1.8405172445563315e-07  5.649917149001248e-07  0.9999992282358783  1.0000
  N   N1        1.0  0.2489384691816623  0.2489383151943639  0.7510616629543598  1.0000
  N   N2        1.0  0.7510613839029013  0.7510614386816508  0.24893867960806043  1.0000
  N   N3        1.0  0.7510614932720611  0.24893838949047767  0.24893862119478144  1.0000
  N   N4        1.0  0.248938330291805  0.7510614899392549  0.7510617117939465  1.0000
  N   N5        1.0  0.2489385063833442  0.7510614171391272  0.24893854896125786  1.0000
  N   N6        1.0  0.751061590969822  0.24893837335672778  0.7510616702426367  1.0000
