data_image0
_chemical_formula_structural       Ti2SnN6
_chemical_formula_sum              "Ti2 Sn1 N6"
_cell_length_a       4.96784107160118
_cell_length_b       4.967841684054816
_cell_length_c       4.967841279428192
_cell_angle_alpha    59.99999614572354
_cell_angle_beta     59.99999407407435
_cell_angle_gamma    60.0000013889144

_space_group_name_H-M_alt    "P 1"
_space_group_IT_number       1

loop_
  _space_group_symop_operation_xyz
  'x, y, z'

loop_
  _atom_site_type_symbol
  _atom_site_label
  _atom_site_symmetry_multiplicity
  _atom_site_fract_x
  _atom_site_fract_y
  _atom_site_fract_z
  _atom_site_occupancy
  Ti  Ti1       1.0  0.2499998990084065  0.25000009499230635  0.2500000143099597  1.0000
  Ti  Ti2       1.0  0.7500000922899523  0.7499998313532704  0.7499998245168947  1.0000
  Sn  Sn1       1.0  0.9999999976756513  4.765511743478731e-15  0.9999999166184081  1.0000
  N   N1        1.0  0.28161469091647967  0.2816145876337789  0.7183852989897433  1.0000
  N   N2        1.0  0.718385527749394  0.7183851168306129  0.28161535435033347  1.0000
  N   N3        1.0  0.7183852161378582  0.2816146211719824  0.2816144949003423  1.0000
  N   N4        1.0  0.28161459634653463  0.7183854999359349  0.7183852091366757  1.0000
  N   N5        1.0  0.2816144446464563  0.7183852758638792  0.28161471576424807  1.0000
  N   N6        1.0  0.7183855357994176  0.2816149759073629  0.7183851892130906  1.0000
