data_image0
_chemical_formula_structural       Ti2SeN6
_chemical_formula_sum              "Ti2 Se1 N6"
_cell_length_a       4.868070629568594
_cell_length_b       4.868070723787496
_cell_length_c       4.868070660557913
_cell_angle_alpha    59.99999945576501
_cell_angle_beta     59.99999948696463
_cell_angle_gamma    59.999999398048054

_space_group_name_H-M_alt    "P 1"
_space_group_IT_number       1

loop_
  _space_group_symop_operation_xyz
  'x, y, z'

loop_
  _atom_site_type_symbol
  _atom_site_label
  _atom_site_symmetry_multiplicity
  _atom_site_fract_x
  _atom_site_fract_y
  _atom_site_fract_z
  _atom_site_occupancy
  Ti  Ti1       1.0  0.2499999857237858  0.25000003616666217  0.24999998453176628  1.0000
  Ti  Ti2       1.0  0.7500000099553223  0.7500000355396632  0.7499999246536422  1.0000
  Se  Se1       1.0  0.9999999697396958  0.999999969809521  8.363464125723278e-08  1.0000
  N   N1        1.0  0.26437589427113617  0.2643758716068722  0.7356240753663789  1.0000
  N   N2        1.0  0.7356240596001846  0.7356241120438909  0.26437586588347484  1.0000
  N   N3        1.0  0.7356240800979644  0.2643759564632418  0.2643758837559782  1.0000
  N   N4        1.0  0.26437592703411533  0.7356240951160966  0.7356241386391389  1.0000
  N   N5        1.0  0.26437596630630483  0.7356240243040407  0.26437593720733527  1.0000
  N   N6        1.0  0.7356241536288678  0.2643759165768752  0.7356240923522548  1.0000
