data_image0
_chemical_formula_structural       Ti2SiN6
_chemical_formula_sum              "Ti2 Si1 N6"
_cell_length_a       4.797645675793639
_cell_length_b       4.797644745719173
_cell_length_c       4.797645631286486
_cell_angle_alpha    59.99999619953993
_cell_angle_beta     59.9999987462512
_cell_angle_gamma    59.99999659268343

_space_group_name_H-M_alt    "P 1"
_space_group_IT_number       1

loop_
  _space_group_symop_operation_xyz
  'x, y, z'

loop_
  _atom_site_type_symbol
  _atom_site_label
  _atom_site_symmetry_multiplicity
  _atom_site_fract_x
  _atom_site_fract_y
  _atom_site_fract_z
  _atom_site_occupancy
  Ti  Ti1       1.0  0.2499999916685983  0.24999998427345088  0.25000004977851287  1.0000
  Ti  Ti2       1.0  0.7500000023108714  0.7499997409375649  0.7499999581520155  1.0000
  Si  Si1       1.0  0.9999999726491408  4.595048119566359e-08  0.9999999761097003  1.0000
  N   N1        1.0  0.26433981567616943  0.2643400688284261  0.7356600944017184  1.0000
  N   N2        1.0  0.735660137504216  0.7356599448495104  0.2643399522746414  1.0000
  N   N3        1.0  0.7356600321262158  0.2643400178666409  0.26433986425176603  1.0000
  N   N4        1.0  0.2643400410774546  0.7356600545258026  0.7356600722121406  1.0000
  N   N5        1.0  0.26433992267846823  0.7356600853783992  0.2643400073774714  1.0000
  N   N6        1.0  0.7356600952895918  0.2643400227533117  0.7356600784864397  1.0000
