data_image0
_chemical_formula_structural       Ti2TaN6
_chemical_formula_sum              "Ti2 Ta1 N6"
_cell_length_a       5.039568299736861
_cell_length_b       5.039568339282343
_cell_length_c       5.039568139813161
_cell_angle_alpha    59.99999996209866
_cell_angle_beta     60.0000003635627
_cell_angle_gamma    60.00000045397578

_space_group_name_H-M_alt    "P 1"
_space_group_IT_number       1

loop_
  _space_group_symop_operation_xyz
  'x, y, z'

loop_
  _atom_site_type_symbol
  _atom_site_label
  _atom_site_symmetry_multiplicity
  _atom_site_fract_x
  _atom_site_fract_y
  _atom_site_fract_z
  _atom_site_occupancy
  Ti  Ti1       1.0  0.2499999980231828  0.25000002343254224  0.25000001124469334  1.0000
  Ti  Ti2       1.0  0.7500000054345969  0.7499999949596452  0.750000008175934  1.0000
  Ta  Ta1       1.0  1.3608623668321938e-08  7.290772159438678e-09  1.7330460104867316e-08  1.0000
  N   N1        1.0  0.27584525112151137  0.27584519315006356  0.7241547399292227  1.0000
  N   N2        1.0  0.7241548072592691  0.7241547085897662  0.2758451952668574  1.0000
  N   N3        1.0  0.7241547527916499  0.275845243603057  0.27584523267316163  1.0000
  N   N4        1.0  0.27584520106830335  0.7241547723588734  0.7241547671226766  1.0000
  N   N5        1.0  0.27584521870530293  0.7241547974852727  0.27584526617438787  1.0000
  N   N6        1.0  0.7241547432316616  0.27584523548845935  0.7241547845745478  1.0000
