data_image0
_chemical_formula_structural       Ti2VO6
_chemical_formula_sum              "Ti2 V1 O6"
_cell_length_a       4.8676897800236505
_cell_length_b       4.8676888291947265
_cell_length_c       4.8676894202581105
_cell_angle_alpha    59.99999808589561
_cell_angle_beta     59.99999837048251
_cell_angle_gamma    59.999998236598564

_space_group_name_H-M_alt    "P 1"
_space_group_IT_number       1

loop_
  _space_group_symop_operation_xyz
  'x, y, z'

loop_
  _atom_site_type_symbol
  _atom_site_label
  _atom_site_symmetry_multiplicity
  _atom_site_fract_x
  _atom_site_fract_y
  _atom_site_fract_z
  _atom_site_occupancy
  Ti  Ti1       1.0  0.24999981529576049  0.2500000152160663  0.2500000994814301  1.0000
  Ti  Ti2       1.0  0.7499999132054648  0.7500000456482322  0.7500005516691476  1.0000
  V   V1        1.0  0.9999999314453754  7.044997759134338e-08  1.754159181539142e-08  1.0000
  O   O1        1.0  0.26167108611018663  0.2616708617338652  0.7383288824289428  1.0000
  O   O2        1.0  0.738329025655488  0.7383290456501059  0.26167094507439825  1.0000
  O   O3        1.0  0.7383290658791412  0.2616710757857224  0.26167087599179434  1.0000
  O   O4        1.0  0.26167088441013736  0.7383288819196573  0.7383290091434089  1.0000
  O   O5        1.0  0.26167122405558624  0.738329074569312  0.26167075402395434  1.0000
  O   O6        1.0  0.7383290798067755  0.2616709183610664  0.7383288915162165  1.0000
