data_image0
_chemical_formula_structural       Ti2VSe6
_chemical_formula_sum              "Ti2 V1 Se6"
_cell_length_a       6.2732389282494365
_cell_length_b       6.273238446858606
_cell_length_c       6.273238607388233
_cell_angle_alpha    60.00000194501284
_cell_angle_beta     60.00000343026687
_cell_angle_gamma    60.00000097929945

_space_group_name_H-M_alt    "P 1"
_space_group_IT_number       1

loop_
  _space_group_symop_operation_xyz
  'x, y, z'

loop_
  _atom_site_type_symbol
  _atom_site_label
  _atom_site_symmetry_multiplicity
  _atom_site_fract_x
  _atom_site_fract_y
  _atom_site_fract_z
  _atom_site_occupancy
  Ti  Ti1       1.0  0.2499999659351905  0.24999967294878433  0.2500001486758509  1.0000
  Ti  Ti2       1.0  0.7500006233956227  0.7499995147388917  0.750000871433698  1.0000
  V   V1        1.0  0.9999999449455357  8.785497085417992e-08  0.9999999676590183  1.0000
  Se  Se1       1.0  0.2724927220255538  0.2724932448299894  0.7275069003853688  1.0000
  Se  Se2       1.0  0.7275068530534583  0.7275071357329326  0.2724929065910368  1.0000
  Se  Se3       1.0  0.7275070867643735  0.27249324861480334  0.272492678399886  1.0000
  Se  Se4       1.0  0.27249262956509773  0.7275070284744815  0.7275069072408432  1.0000
  Se  Se5       1.0  0.2724931716868185  0.7275071342042561  0.27249264256713907  1.0000
  Se  Se6       1.0  0.727506998326512  0.27249293593776863  0.7275069392607636  1.0000
