data_image0
_chemical_formula_structural       Ti2VN6
_chemical_formula_sum              "Ti2 V1 N6"
_cell_length_a       4.87168500751484
_cell_length_b       4.871684585356644
_cell_length_c       4.871685273149733
_cell_angle_alpha    59.99999948004438
_cell_angle_beta     59.999997631018545
_cell_angle_gamma    59.99999782216136

_space_group_name_H-M_alt    "P 1"
_space_group_IT_number       1

loop_
  _space_group_symop_operation_xyz
  'x, y, z'

loop_
  _atom_site_type_symbol
  _atom_site_label
  _atom_site_symmetry_multiplicity
  _atom_site_fract_x
  _atom_site_fract_y
  _atom_site_fract_z
  _atom_site_occupancy
  Ti  Ti1       1.0  0.25000004167234546  0.24999995700727828  0.24999992602961657  1.0000
  Ti  Ti2       1.0  0.7500001253496892  0.7500000193482552  0.749999915185127  1.0000
  V   V1        1.0  9.74915877777341e-08  0.9999999421778387  0.999999951427796  1.0000
  N   N1        1.0  0.27054120251956104  0.2705411479645115  0.7294588437575018  1.0000
  N   N2        1.0  0.7294588494868405  0.729458810792987  0.2705413388228951  1.0000
  N   N3        1.0  0.7294586856449419  0.27054144292049315  0.27054104329823975  1.0000
  N   N4        1.0  0.2705411080516808  0.729458679247445  0.72945894246318  1.0000
  N   N5        1.0  0.27054109565798173  0.7294588024880615  0.2705411871788447  1.0000
  N   N6        1.0  0.7294589444028452  0.2705410783352078  0.7294587570719213  1.0000
