data_image0
_chemical_formula_structural       Ti2VS6
_chemical_formula_sum              "Ti2 V1 S6"
_cell_length_a       5.9077762936654645
_cell_length_b       5.907776316019673
_cell_length_c       5.9077761639347965
_cell_angle_alpha    60.000000512201076
_cell_angle_beta     60.00000156552981
_cell_angle_gamma    60.00000477223198

_space_group_name_H-M_alt    "P 1"
_space_group_IT_number       1

loop_
  _space_group_symop_operation_xyz
  'x, y, z'

loop_
  _atom_site_type_symbol
  _atom_site_label
  _atom_site_symmetry_multiplicity
  _atom_site_fract_x
  _atom_site_fract_y
  _atom_site_fract_z
  _atom_site_occupancy
  Ti  Ti1       1.0  0.24999955861197562  0.25000025817645666  0.2500001616170275  1.0000
  Ti  Ti2       1.0  0.7500002743954873  0.74999962602854  0.7500002784412576  1.0000
  V   V1        1.0  0.9999999969818752  0.9999998507363432  2.2171174153034994e-07  1.0000
  S   S1        1.0  0.26992299600357783  0.269923257293719  0.7300769210999295  1.0000
  S   S2        1.0  0.7300770527284105  0.7300769648276199  0.2699231659671285  1.0000
  S   S3        1.0  0.7300770077190281  0.26992325382852456  0.26992280250014744  1.0000
  S   S4        1.0  0.2699228817092397  0.730076883295451  0.7300768938341067  1.0000
  S   S5        1.0  0.26992310487136795  0.7300768471358379  0.2699228533035867  1.0000
  S   S6        1.0  0.7300771261719017  0.2699230391422884  0.7300767570216706  1.0000
