data_image0
_chemical_formula_structural       Ti2WN6
_chemical_formula_sum              "Ti2 W1 N6"
_cell_length_a       2.6828852180011777
_cell_length_b       2.2741319400382234
_cell_length_c       4.7342398666784025
_cell_angle_alpha    67.70766986685969
_cell_angle_beta     68.94470971007425
_cell_angle_gamma    60.072483183925335

_space_group_name_H-M_alt    "P 1"
_space_group_IT_number       1

loop_
  _space_group_symop_operation_xyz
  'x, y, z'

loop_
  _atom_site_type_symbol
  _atom_site_label
  _atom_site_symmetry_multiplicity
  _atom_site_fract_x
  _atom_site_fract_y
  _atom_site_fract_z
  _atom_site_occupancy
  Ti  Ti1       1.0  0.2957368780194909  0.9560008667976923  0.6225750747659928  1.0000
  Ti  Ti2       1.0  0.39646060572166075  0.9391053009128246  0.6337063164326123  1.0000
  W   W1        1.0  0.18435956048812577  0.3063170529580918  0.6493314594813254  1.0000
  N   N1        1.0  0.5086057452259897  0.6094088215128182  0.2570495923591527  1.0000
  N   N2        1.0  0.03519589893958486  0.24792510400174583  0.9214019916360383  1.0000
  N   N3        1.0  0.4072818521103756  0.5943762949929232  0.8929608661039496  1.0000
  N   N4        1.0  0.6175656157261514  0.5021680062958733  0.2900467058769183  1.0000
  N   N5        1.0  0.9539009384347572  0.9207032946828891  0.8314310430757524  1.0000
  N   N6        1.0  0.28492431059909573  0.05363907758934228  0.7652857915990515  1.0000
