data_image0
_chemical_formula_structural       Ti2ZnO6
_chemical_formula_sum              "Ti2 Zn1 O6"
_cell_length_a       4.6745963713797485
_cell_length_b       4.674596231032529
_cell_length_c       4.674596864695587
_cell_angle_alpha    60.00000331459002
_cell_angle_beta     60.000003273981946
_cell_angle_gamma    60.00000115664134

_space_group_name_H-M_alt    "P 1"
_space_group_IT_number       1

loop_
  _space_group_symop_operation_xyz
  'x, y, z'

loop_
  _atom_site_type_symbol
  _atom_site_label
  _atom_site_symmetry_multiplicity
  _atom_site_fract_x
  _atom_site_fract_y
  _atom_site_fract_z
  _atom_site_occupancy
  Ti  Ti1       1.0  0.2500010543192872  0.24999909810823392  0.24999927908445863  1.0000
  Ti  Ti2       1.0  0.75000188371341  0.7499987903454461  0.7499972988816499  1.0000
  Zn  Zn1       1.0  0.9999999379463019  1.572001459342996e-08  1.2157104702513029e-07  1.0000
  O   O1        1.0  0.26842464762787027  0.26842938210159506  0.7315726863741482  1.0000
  O   O2        1.0  0.7315743869029219  0.7315713909738429  0.2684285639578271  1.0000
  O   O3        1.0  0.7315724765599225  0.2684258853003803  0.2684287825429818  1.0000
  O   O4        1.0  0.26842670394612883  0.7315742275346783  0.7315720617627324  1.0000
  O   O5        1.0  0.2684282198395289  0.731574172228268  0.26842593462213465  1.0000
  O   O6        1.0  0.7315705226555119  0.268427061967414  0.7315753402679235  1.0000
