data_image0
_chemical_formula_structural       Ti2ZnS6
_chemical_formula_sum              "Ti2 Zn1 S6"
_cell_length_a       6.133042585604888
_cell_length_b       6.133042536261727
_cell_length_c       6.133042752800626
_cell_angle_alpha    59.9999991916995
_cell_angle_beta     59.999999856440255
_cell_angle_gamma    60.000000564899736

_space_group_name_H-M_alt    "P 1"
_space_group_IT_number       1

loop_
  _space_group_symop_operation_xyz
  'x, y, z'

loop_
  _atom_site_type_symbol
  _atom_site_label
  _atom_site_symmetry_multiplicity
  _atom_site_fract_x
  _atom_site_fract_y
  _atom_site_fract_z
  _atom_site_occupancy
  Ti  Ti1       1.0  0.24999993753267638  0.24999989032815054  0.2500002192095865  1.0000
  Ti  Ti2       1.0  0.7499999665202312  0.7500000903463323  0.7499997823718766  1.0000
  Zn  Zn1       1.0  1.759083763606414e-08  3.1951381540591454e-08  0.999999996425547  1.0000
  S   S1        1.0  0.26593897868981803  0.26593896549973156  0.7340609693663985  1.0000
  S   S2        1.0  0.7340609459591682  0.7340610211656359  0.2659392683899239  1.0000
  S   S3        1.0  0.7340609771329207  0.26593903110058603  0.2659390231444671  1.0000
  S   S4        1.0  0.2659390065078763  0.7340610214645058  0.7340609222638919  1.0000
  S   S5        1.0  0.26593905576232535  0.7340609589914371  0.26593900216904404  1.0000
  S   S6        1.0  0.7340611048214397  0.2659389637711705  0.7340608560791041  1.0000
