data_image0
_chemical_formula_structural       Ti2ZnTe6
_chemical_formula_sum              "Ti2 Zn1 Te6"
_cell_length_a       7.015158494724747
_cell_length_b       7.0151583092970276
_cell_length_c       7.015158339015793
_cell_angle_alpha    60.000000446427194
_cell_angle_beta     60.00000030565013
_cell_angle_gamma    60.0000002454949

_space_group_name_H-M_alt    "P 1"
_space_group_IT_number       1

loop_
  _space_group_symop_operation_xyz
  'x, y, z'

loop_
  _atom_site_type_symbol
  _atom_site_label
  _atom_site_symmetry_multiplicity
  _atom_site_fract_x
  _atom_site_fract_y
  _atom_site_fract_z
  _atom_site_occupancy
  Ti  Ti1       1.0  0.24999994059015065  0.25000003711453905  0.25000001864370075  1.0000
  Ti  Ti2       1.0  0.7500000115292581  0.7499999716752236  0.749999969590058  1.0000
  Zn  Zn1       1.0  0.9999999847038258  0.99999999650829  0.9999999937136118  1.0000
  Te  Te1       1.0  0.26363812830696853  0.2636381170190247  0.7363618820685106  1.0000
  Te  Te2       1.0  0.7363618989639767  0.7363618638370597  0.263638098236649  1.0000
  Te  Te3       1.0  0.7363618863560732  0.26363812947480697  0.2636381200613181  1.0000
  Te  Te4       1.0  0.2636381238728428  0.7363618531271324  0.736361900678074  1.0000
  Te  Te5       1.0  0.2636381107401933  0.7363618788977236  0.26363816386875794  1.0000
  Te  Te6       1.0  0.736361912340112  0.26363814909644434  0.7363618576840014  1.0000
