data_image0
_chemical_formula_structural       Ti2ZrN6
_chemical_formula_sum              "Ti2 Zr1 N6"
_cell_length_a       5.0859238301321845
_cell_length_b       5.0859237876444086
_cell_length_c       5.085923773991247
_cell_angle_alpha    59.999999675096106
_cell_angle_beta     59.99999967400081
_cell_angle_gamma    59.999999549900565

_space_group_name_H-M_alt    "P 1"
_space_group_IT_number       1

loop_
  _space_group_symop_operation_xyz
  'x, y, z'

loop_
  _atom_site_type_symbol
  _atom_site_label
  _atom_site_symmetry_multiplicity
  _atom_site_fract_x
  _atom_site_fract_y
  _atom_site_fract_z
  _atom_site_occupancy
  Ti  Ti1       1.0  0.2499999963683572  0.24999996473385633  0.2500000199183416  1.0000
  Ti  Ti2       1.0  0.7499999958689679  0.7499999760772076  0.7500000213338908  1.0000
  Zr  Zr1       1.0  0.9999999798419784  0.9999999855513579  2.7134387700171656e-08  1.0000
  N   N1        1.0  0.28442058510531376  0.2844205808769787  0.7155794099167713  1.0000
  N   N2        1.0  0.7155794084147132  0.715579451442152  0.28442056331175386  1.0000
  N   N3        1.0  0.7155794564979697  0.2844205302897283  0.2844206082025133  1.0000
  N   N4        1.0  0.2844205813988706  0.7155794370105127  0.7155794107388503  1.0000
  N   N5        1.0  0.28442057059477327  0.7155794716200438  0.28442056173088553  1.0000
  N   N6        1.0  0.7155794346667154  0.284420579963943  0.7155793822310025  1.0000
