data_image0
_chemical_formula_structural       Ti2ZnSe6
_chemical_formula_sum              "Ti2 Zn1 Se6"
_cell_length_a       6.300663722729147
_cell_length_b       6.300664100651717
_cell_length_c       6.30066411690524
_cell_angle_alpha    59.999999815212504
_cell_angle_beta     60.0000009118446
_cell_angle_gamma    60.000001847084405

_space_group_name_H-M_alt    "P 1"
_space_group_IT_number       1

loop_
  _space_group_symop_operation_xyz
  'x, y, z'

loop_
  _atom_site_type_symbol
  _atom_site_label
  _atom_site_symmetry_multiplicity
  _atom_site_fract_x
  _atom_site_fract_y
  _atom_site_fract_z
  _atom_site_occupancy
  Ti  Ti1       1.0  0.25000052008153084  0.24999988462225373  0.24999975413752273  1.0000
  Ti  Ti2       1.0  0.7499999675476399  0.7499996596982456  0.750000462151642  1.0000
  Zn  Zn1       1.0  0.9999999788783046  0.9999999863931581  0.9999999967315225  1.0000
  Se  Se1       1.0  0.2757570876354281  0.2757573155011769  0.7242428128645115  1.0000
  Se  Se2       1.0  0.724242614342339  0.7242429363751  0.27575703934034096  1.0000
  Se  Se3       1.0  0.72424272234585  0.2757573087174498  0.27575701909519307  1.0000
  Se  Se4       1.0  0.27575725681226404  0.724242727393193  0.7242428404935322  1.0000
  Se  Se5       1.0  0.2757571972765583  0.7242429370539871  0.27575717128254673  1.0000
  Se  Se6       1.0  0.724242640893341  0.2757572526195818  0.7242429026304842  1.0000
