data_image0
_chemical_formula_structural       Tl2CoTe6
_chemical_formula_sum              "Tl2 Co1 Te6"
_cell_length_a       7.192058203643612
_cell_length_b       7.192061091915908
_cell_length_c       7.192054092484182
_cell_angle_alpha    60.000002987954446
_cell_angle_beta     60.0000043677011
_cell_angle_gamma    59.99996497681149

_space_group_name_H-M_alt    "P 1"
_space_group_IT_number       1

loop_
  _space_group_symop_operation_xyz
  'x, y, z'

loop_
  _atom_site_type_symbol
  _atom_site_label
  _atom_site_symmetry_multiplicity
  _atom_site_fract_x
  _atom_site_fract_y
  _atom_site_fract_z
  _atom_site_occupancy
  Tl  Tl1       1.0  0.24999977422482908  0.250000240810362  0.25000019399625656  1.0000
  Tl  Tl2       1.0  0.7500001450891962  0.7499998880037384  0.7500001472309785  1.0000
  Co  Co1       1.0  0.999999866446561  1.8391451231481932e-07  3.0017850310394487e-07  1.0000
  Te  Te1       1.0  0.24205926895101543  0.24205988100033485  0.7579404155607631  1.0000
  Te  Te2       1.0  0.7579404517514937  0.7579400826314928  0.242059643162023  1.0000
  Te  Te3       1.0  0.7579406812159145  0.24205924599751247  0.24205962577453297  1.0000
  Te  Te4       1.0  0.24205946916539478  0.7579407772361112  0.7579399102232234  1.0000
  Te  Te5       1.0  0.24205948796828855  0.7579406778752864  0.2420595507875586  1.0000
  Te  Te6       1.0  0.7579407286987871  0.2420590405369467  0.7579402629863323  1.0000
