data_image0
_chemical_formula_structural       Tl2CrTe6
_chemical_formula_sum              "Tl2 Cr1 Te6"
_cell_length_a       7.260290660388032
_cell_length_b       7.260289890137173
_cell_length_c       7.260291350822708
_cell_angle_alpha    59.999989621285664
_cell_angle_beta     59.999983717982246
_cell_angle_gamma    60.000009055622385

_space_group_name_H-M_alt    "P 1"
_space_group_IT_number       1

loop_
  _space_group_symop_operation_xyz
  'x, y, z'

loop_
  _atom_site_type_symbol
  _atom_site_label
  _atom_site_symmetry_multiplicity
  _atom_site_fract_x
  _atom_site_fract_y
  _atom_site_fract_z
  _atom_site_occupancy
  Tl  Tl1       1.0  0.25000003191946824  0.2500000619562835  0.24999993561345243  1.0000
  Tl  Tl2       1.0  0.750000032722727  0.7499999885004712  0.7500000224384196  1.0000
  Cr  Cr1       1.0  1.3403467757959748e-07  0.9999997267207544  4.4013082550374943e-07  1.0000
  Te  Te1       1.0  0.2631985004104108  0.26319830369320923  0.7368013948842426  1.0000
  Te  Te2       1.0  0.7368010873885489  0.7368018985852608  0.2631981912646175  1.0000
  Te  Te3       1.0  0.7368016427894206  0.26319862844989866  0.26319807054156724  1.0000
  Te  Te4       1.0  0.26319835747738873  0.7368016008192088  0.7368018481974402  1.0000
  Te  Te5       1.0  0.263198639345814  0.7368013965589537  0.26319840784245924  1.0000
  Te  Te6       1.0  0.7368015371284092  0.26319843291273154  0.7368017328799618  1.0000
