data_image0
_chemical_formula_structural       Tl2CrO6
_chemical_formula_sum              "Tl2 Cr1 O6"
_cell_length_a       5.338154109099309
_cell_length_b       5.338151947795176
_cell_length_c       5.338155696997757
_cell_angle_alpha    59.9999969233146
_cell_angle_beta     59.999996310505956
_cell_angle_gamma    60.00000406326446

_space_group_name_H-M_alt    "P 1"
_space_group_IT_number       1

loop_
  _space_group_symop_operation_xyz
  'x, y, z'

loop_
  _atom_site_type_symbol
  _atom_site_label
  _atom_site_symmetry_multiplicity
  _atom_site_fract_x
  _atom_site_fract_y
  _atom_site_fract_z
  _atom_site_occupancy
  Tl  Tl1       1.0  0.2500000935897073  0.2500002221558241  0.2500001112891426  1.0000
  Tl  Tl2       1.0  0.7499999990929468  0.7500001617160633  0.7500000939036451  1.0000
  Cr  Cr1       1.0  0.999999932377624  0.9999998784008021  0.9999999672259458  1.0000
  O   O1        1.0  0.23774006782272594  0.23773991542341155  0.7622600412192584  1.0000
  O   O2        1.0  0.7622602781803185  0.76225939699916  0.2377399173806814  1.0000
  O   O3        1.0  0.7622596793739621  0.23773983054175246  0.23774009678131072  1.0000
  O   O4        1.0  0.23773996335646733  0.7622594956466994  0.7622604032691135  1.0000
  O   O5        1.0  0.23773997434201485  0.7622605397349108  0.2377397513803107  1.0000
  O   O6        1.0  0.7622601696178172  0.23774006668630177  0.7622598691790872  1.0000
