data_image0
_chemical_formula_structural       Tl2CS6
_chemical_formula_sum              "Tl2 C1 S6"
_cell_length_a       6.205898108618814
_cell_length_b       6.205897780675597
_cell_length_c       6.205928232645918
_cell_angle_alpha    59.99991880955783
_cell_angle_beta     59.999867214274545
_cell_angle_gamma    60.00001690840417

_space_group_name_H-M_alt    "P 1"
_space_group_IT_number       1

loop_
  _space_group_symop_operation_xyz
  'x, y, z'

loop_
  _atom_site_type_symbol
  _atom_site_label
  _atom_site_symmetry_multiplicity
  _atom_site_fract_x
  _atom_site_fract_y
  _atom_site_fract_z
  _atom_site_occupancy
  Tl  Tl1       1.0  0.2500009394799095  0.2499994409861333  0.24999969064798344  1.0000
  Tl  Tl2       1.0  0.7500008119316215  0.7499990117150385  0.7500003463601583  1.0000
  C   C1        1.0  0.9999325346440046  1.0019480907820053e-05  1.5076300550438347e-05  1.0000
  S   S1        1.0  0.22468971373674065  0.22468021397357243  0.7753182999766063  1.0000
  S   S2        1.0  0.7753395252684725  0.7753340742717028  0.2246678035726499  1.0000
  S   S3        1.0  0.7753273969611493  0.2246756649815854  0.2246722368757851  1.0000
  S   S4        1.0  0.22468551181310709  0.7753221877675701  0.775307099078539  1.0000
  S   S5        1.0  0.2246926107520809  0.7753096888772331  0.22469503331074334  1.0000
  S   S6        1.0  0.7753309115548122  0.2246694687716352  0.775326519818401  1.0000
