data_image0
_chemical_formula_structural       Tl2CO6
_chemical_formula_sum              "Tl2 C1 O6"
_cell_length_a       5.077007881296285
_cell_length_b       5.077007935113202
_cell_length_c       5.077007620565889
_cell_angle_alpha    60.0000018816493
_cell_angle_beta     60.00000562016749
_cell_angle_gamma    60.000001601586

_space_group_name_H-M_alt    "P 1"
_space_group_IT_number       1

loop_
  _space_group_symop_operation_xyz
  'x, y, z'

loop_
  _atom_site_type_symbol
  _atom_site_label
  _atom_site_symmetry_multiplicity
  _atom_site_fract_x
  _atom_site_fract_y
  _atom_site_fract_z
  _atom_site_occupancy
  Tl  Tl1       1.0  0.2499999551891471  0.24999994706768622  0.2500001248459388  1.0000
  Tl  Tl2       1.0  0.7499999692660771  0.7500000486639492  0.7500000279006316  1.0000
  C   C1        1.0  1.3051427523159966e-07  0.9999998745585533  0.9999987289998644  1.0000
  O   O1        1.0  0.21400750630727297  0.2140074818808829  0.7859926595901031  1.0000
  O   O2        1.0  0.7859924914797182  0.7859924849027189  0.2140076088410948  1.0000
  O   O3        1.0  0.7859923525993628  0.21400758023013994  0.21400775384125734  1.0000
  O   O4        1.0  0.21400741480584548  0.785992620550044  0.7859926368713764  1.0000
  O   O5        1.0  0.21400756504188712  0.7859924636625631  0.2140076901969032  1.0000
  O   O6        1.0  0.785992546601677  0.21400749588402773  0.785992686436979  1.0000
