data_image0
_chemical_formula_structural       Tl2GeO6
_chemical_formula_sum              "Tl2 Ge1 O6"
_cell_length_a       5.246657319232897
_cell_length_b       5.246654003776889
_cell_length_c       5.246656677935868
_cell_angle_alpha    60.00000874604655
_cell_angle_beta     59.99999923161316
_cell_angle_gamma    60.000003384860555

_space_group_name_H-M_alt    "P 1"
_space_group_IT_number       1

loop_
  _space_group_symop_operation_xyz
  'x, y, z'

loop_
  _atom_site_type_symbol
  _atom_site_label
  _atom_site_symmetry_multiplicity
  _atom_site_fract_x
  _atom_site_fract_y
  _atom_site_fract_z
  _atom_site_occupancy
  Tl  Tl1       1.0  0.24999996200784955  0.2499996409487052  0.25000035998977416  1.0000
  Tl  Tl2       1.0  0.7500001680687876  0.7499999056011579  0.7500003884841158  1.0000
  Ge  Ge1       1.0  0.999999929996836  0.999999939307278  5.010012845398855e-08  1.0000
  O   O1        1.0  0.25680423171141403  0.2568045995032761  0.7431955851189633  1.0000
  O   O2        1.0  0.7431956973266275  0.7431953718953037  0.25680430811944244  1.0000
  O   O3        1.0  0.7431954999567458  0.25680482247906106  0.2568040633934434  1.0000
  O   O4        1.0  0.25680425091668474  0.7431956437985322  0.743195721043231  1.0000
  O   O5        1.0  0.2568043227107138  0.7431954727558889  0.25680444250381956  1.0000
  O   O6        1.0  0.7431958793638497  0.2568044916397185  0.7431953272476787  1.0000
