data_image0
_chemical_formula_structural       Tl2GeS6
_chemical_formula_sum              "Tl2 Ge1 S6"
_cell_length_a       6.653004147814835
_cell_length_b       6.6530034371972295
_cell_length_c       6.653003731357392
_cell_angle_alpha    60.000000086785235
_cell_angle_beta     59.99999901402298
_cell_angle_gamma    59.99999868519658

_space_group_name_H-M_alt    "P 1"
_space_group_IT_number       1

loop_
  _space_group_symop_operation_xyz
  'x, y, z'

loop_
  _atom_site_type_symbol
  _atom_site_label
  _atom_site_symmetry_multiplicity
  _atom_site_fract_x
  _atom_site_fract_y
  _atom_site_fract_z
  _atom_site_occupancy
  Tl  Tl1       1.0  0.24999999022549194  0.2500000037227508  0.2500000158584086  1.0000
  Tl  Tl2       1.0  0.7499999863150101  0.749999979873119  0.7500000478881222  1.0000
  Ge  Ge1       1.0  0.9999999719324882  0.9999999852728819  1.4915915563978852e-07  1.0000
  S   S1        1.0  0.2490306963028338  0.24903067728954628  0.750969272586011  1.0000
  S   S2        1.0  0.7509694849671293  0.7509694314868539  0.24903047740055387  1.0000
  S   S3        1.0  0.7509693999711151  0.24903058856088947  0.2490305497117104  1.0000
  S   S4        1.0  0.24903055821468342  0.7509693563762827  0.7509694328166463  1.0000
  S   S5        1.0  0.24903061653702446  0.7509693215127035  0.24903069914419412  1.0000
  S   S6        1.0  0.750969282794479  0.2490307062645296  0.7509693510545471  1.0000
