data_image0
_chemical_formula_structural       Tl2GeTe6
_chemical_formula_sum              "Tl2 Ge1 Te6"
_cell_length_a       7.457377736954772
_cell_length_b       7.457377899857128
_cell_length_c       7.457378108077413
_cell_angle_alpha    59.999997487163995
_cell_angle_beta     59.999996670482304
_cell_angle_gamma    60.00000009989326

_space_group_name_H-M_alt    "P 1"
_space_group_IT_number       1

loop_
  _space_group_symop_operation_xyz
  'x, y, z'

loop_
  _atom_site_type_symbol
  _atom_site_label
  _atom_site_symmetry_multiplicity
  _atom_site_fract_x
  _atom_site_fract_y
  _atom_site_fract_z
  _atom_site_occupancy
  Tl  Tl1       1.0  0.24999997268184948  0.24999996151863554  0.2500000167885669  1.0000
  Tl  Tl2       1.0  0.7500000289023534  0.750000025795982  0.7499999685687352  1.0000
  Ge  Ge1       1.0  8.372365455878968e-08  0.9999999671534722  1.344909804965791e-08  1.0000
  Te  Te1       1.0  0.27469248542385055  0.2746927841645169  0.7253073895119304  1.0000
  Te  Te2       1.0  0.7253075236366884  0.7253071900114884  0.274692684497557  1.0000
  Te  Te3       1.0  0.7253074858094033  0.27469264197155474  0.2746926957981915  1.0000
  Te  Te4       1.0  0.27469251449206245  0.7253073584816737  0.7253073332464665  1.0000
  Te  Te5       1.0  0.27469243653486963  0.7253074573461579  0.27469272322461574  1.0000
  Te  Te6       1.0  0.7253074840306609  0.2746926104424547  0.7253071792658853  1.0000
