data_image0
_chemical_formula_structural       Tl2GeSe6
_chemical_formula_sum              "Tl2 Ge1 Se6"
_cell_length_a       6.815863809952953
_cell_length_b       6.815864021090882
_cell_length_c       6.815864200054271
_cell_angle_alpha    59.99999760554469
_cell_angle_beta     59.99999911947245
_cell_angle_gamma    59.999999038906964

_space_group_name_H-M_alt    "P 1"
_space_group_IT_number       1

loop_
  _space_group_symop_operation_xyz
  'x, y, z'

loop_
  _atom_site_type_symbol
  _atom_site_label
  _atom_site_symmetry_multiplicity
  _atom_site_fract_x
  _atom_site_fract_y
  _atom_site_fract_z
  _atom_site_occupancy
  Tl  Tl1       1.0  0.2499999943231604  0.24999998802724135  0.25000000198269096  1.0000
  Tl  Tl2       1.0  0.7499999759697695  0.7500000054105009  0.7500000063895244  1.0000
  Ge  Ge1       1.0  5.3851181376937905e-08  1.0781420169686812e-07  0.9999999235688037  1.0000
  Se  Se1       1.0  0.25969174107619974  0.2596916709828218  0.7403083120286288  1.0000
  Se  Se2       1.0  0.7403081980205344  0.7403083296425333  0.2596917435598468  1.0000
  Se  Se3       1.0  0.7403083781151886  0.25969169152600224  0.25969152684050284  1.0000
  Se  Se4       1.0  0.25969171052954176  0.7403081958944422  0.740308438685329  1.0000
  Se  Se5       1.0  0.25969159186306146  0.7403083084708713  0.2596916301492299  1.0000
  Se  Se6       1.0  0.7403083642601754  0.25969171731113067  0.7403084190193244  1.0000
