data_image0
_chemical_formula_structural       Tl2HfTe6
_chemical_formula_sum              "Tl2 Hf1 Te6"
_cell_length_a       7.570388726986075
_cell_length_b       7.570388346380279
_cell_length_c       7.570387282805484
_cell_angle_alpha    60.00000684045263
_cell_angle_beta     60.00000998381235
_cell_angle_gamma    60.00000324058317

_space_group_name_H-M_alt    "P 1"
_space_group_IT_number       1

loop_
  _space_group_symop_operation_xyz
  'x, y, z'

loop_
  _atom_site_type_symbol
  _atom_site_label
  _atom_site_symmetry_multiplicity
  _atom_site_fract_x
  _atom_site_fract_y
  _atom_site_fract_z
  _atom_site_occupancy
  Tl  Tl1       1.0  0.25000027591626456  0.25000003254249026  0.2499997893012655  1.0000
  Tl  Tl2       1.0  0.7499998542043836  0.7499998792231702  0.7500003205309448  1.0000
  Hf  Hf1       1.0  2.993551006886686e-07  8.574392014122807e-08  4.520674545261809e-07  1.0000
  Te  Te1       1.0  0.2682634871358249  0.2682637104414216  0.7317362000634268  1.0000
  Te  Te2       1.0  0.7317363149400189  0.7317362336804316  0.26826350149886324  1.0000
  Te  Te3       1.0  0.7317357672393757  0.26826453575151454  0.2682639993560272  1.0000
  Te  Te4       1.0  0.2682643030118869  0.7317352627674619  0.7317359566237925  1.0000
  Te  Te5       1.0  0.26826433147156076  0.731735647570543  0.2682639012048211  1.0000
  Te  Te6       1.0  0.7317352604477732  0.26826465246945863  0.7317359163705527  1.0000
