data_image0
_chemical_formula_structural       Tl2HfS6
_chemical_formula_sum              "Tl2 Hf1 S6"
_cell_length_a       6.643307978412929
_cell_length_b       6.643307995508364
_cell_length_c       6.643308227584303
_cell_angle_alpha    59.99999969423218
_cell_angle_beta     60.0000034486544
_cell_angle_gamma    60.00000847898286

_space_group_name_H-M_alt    "P 1"
_space_group_IT_number       1

loop_
  _space_group_symop_operation_xyz
  'x, y, z'

loop_
  _atom_site_type_symbol
  _atom_site_label
  _atom_site_symmetry_multiplicity
  _atom_site_fract_x
  _atom_site_fract_y
  _atom_site_fract_z
  _atom_site_occupancy
  Tl  Tl1       1.0  0.2500000225472268  0.24999999525557898  0.25000002658308007  1.0000
  Tl  Tl2       1.0  0.7499999699894843  0.7500000023589201  0.7500000209311509  1.0000
  Hf  Hf1       1.0  0.9999997453336933  1.3826823678166806e-07  0.9999999829353204  1.0000
  S   S1        1.0  0.2657810859124283  0.26578123489203676  0.7342187878661657  1.0000
  S   S2        1.0  0.7342189990801351  0.7342187147894748  0.2657811591123811  1.0000
  S   S3        1.0  0.7342187353882567  0.26578131806080124  0.2657814002278063  1.0000
  S   S4        1.0  0.2657813724110151  0.7342186205592506  0.7342186778580625  1.0000
  S   S5        1.0  0.26578134530796904  0.7342186667493202  0.2657813636779105  1.0000
  S   S6        1.0  0.7342187130853035  0.2657813105858409  0.7342185556785218  1.0000
