data_image0
_chemical_formula_structural       Tl2HfO6
_chemical_formula_sum              "Tl2 Hf1 O6"
_cell_length_a       5.4092168353918995
_cell_length_b       5.409217636910443
_cell_length_c       5.409216621010455
_cell_angle_alpha    60.0000016660037
_cell_angle_beta     59.99999892609643
_cell_angle_gamma    60.000001306252265

_space_group_name_H-M_alt    "P 1"
_space_group_IT_number       1

loop_
  _space_group_symop_operation_xyz
  'x, y, z'

loop_
  _atom_site_type_symbol
  _atom_site_label
  _atom_site_symmetry_multiplicity
  _atom_site_fract_x
  _atom_site_fract_y
  _atom_site_fract_z
  _atom_site_occupancy
  Tl  Tl1       1.0  0.24999983543322168  0.25000061625720327  0.2499996629840456  1.0000
  Tl  Tl2       1.0  0.7499997703696697  0.7499996796860809  0.7500007086690288  1.0000
  Hf  Hf1       1.0  4.2886149583844315e-08  1.0188814054428487e-07  1.1433120024270466e-07  1.0000
  O   O1        1.0  0.26742807645983735  0.2674281233336865  0.7325719099401021  1.0000
  O   O2        1.0  0.7325722648573252  0.732571214860999  0.26742809771514753  1.0000
  O   O3        1.0  0.7325720531304168  0.26742815091124356  0.26742808023132186  1.0000
  O   O4        1.0  0.26742870613103453  0.732571323134312  0.7325713454914086  1.0000
  O   O5        1.0  0.26742828988477885  0.7325722916087668  0.2674279523079586  1.0000
  O   O6        1.0  0.732571130192412  0.2674284526424018  0.7325717389911421  1.0000
