data_image0
_chemical_formula_structural       Tl2HfSe6
_chemical_formula_sum              "Tl2 Hf1 Se6"
_cell_length_a       6.990910433078034
_cell_length_b       6.990909673164157
_cell_length_c       6.990909892478736
_cell_angle_alpha    60.00000117466104
_cell_angle_beta     60.0000025520013
_cell_angle_gamma    59.99999746582201

_space_group_name_H-M_alt    "P 1"
_space_group_IT_number       1

loop_
  _space_group_symop_operation_xyz
  'x, y, z'

loop_
  _atom_site_type_symbol
  _atom_site_label
  _atom_site_symmetry_multiplicity
  _atom_site_fract_x
  _atom_site_fract_y
  _atom_site_fract_z
  _atom_site_occupancy
  Tl  Tl1       1.0  0.2500001655571371  0.24999999935694675  0.24999989364102848  1.0000
  Tl  Tl2       1.0  0.749999974611472  0.7500000331090665  0.7500000689072679  1.0000
  Hf  Hf1       1.0  0.9999995374101837  5.255731861411079e-07  0.9999997153223972  1.0000
  Se  Se1       1.0  0.26813217022150526  0.26813142618569275  0.7318681858868873  1.0000
  Se  Se2       1.0  0.7318679358622115  0.7318685747459278  0.2681317164931684  1.0000
  Se  Se3       1.0  0.7318681890074026  0.2681314374494056  0.26813182538513985  1.0000
  Se  Se4       1.0  0.26813177216334466  0.7318683094551794  0.7318682793257724  1.0000
  Se  Se5       1.0  0.26813193763957555  0.7318683135810746  0.26813164379504156  1.0000
  Se  Se6       1.0  0.7318683100969416  0.2681313614951773  0.7318686639502362  1.0000
