data_image0
_chemical_formula_structural       Tl2IrO6
_chemical_formula_sum              "Tl2 Ir1 O6"
_cell_length_a       5.7884618412995605
_cell_length_b       5.788461496502712
_cell_length_c       5.788462612969796
_cell_angle_alpha    60.00000235197977
_cell_angle_beta     59.99999773952556
_cell_angle_gamma    60.0000027328577

_space_group_name_H-M_alt    "P 1"
_space_group_IT_number       1

loop_
  _space_group_symop_operation_xyz
  'x, y, z'

loop_
  _atom_site_type_symbol
  _atom_site_label
  _atom_site_symmetry_multiplicity
  _atom_site_fract_x
  _atom_site_fract_y
  _atom_site_fract_z
  _atom_site_occupancy
  Tl  Tl1       1.0  0.2500000620928653  0.24999996816706538  0.2499999144755996  1.0000
  Tl  Tl2       1.0  0.7500000773891532  0.7499998960378509  0.7499999282161238  1.0000
  Ir  Ir1       1.0  0.9999999945997787  4.2316736752669974e-09  0.9999999712155087  1.0000
  O   O1        1.0  0.22939048885260968  0.22939057396427426  0.7706094783054839  1.0000
  O   O2        1.0  0.7706095341823835  0.7706093642950069  0.22939071209414008  1.0000
  O   O3        1.0  0.7706096129357066  0.22939054189216668  0.22939022574348386  1.0000
  O   O4        1.0  0.2293904345972223  0.7706096460360027  0.7706095252472198  1.0000
  O   O5        1.0  0.22939032117226602  0.7706094783686543  0.22939068253854644  1.0000
  O   O6        1.0  0.7706095295189048  0.22939060588345653  0.7706094692093478  1.0000
