data_image0
_chemical_formula_structural       Tl2IrSe6
_chemical_formula_sum              "Tl2 Ir1 Se6"
_cell_length_a       6.750655697824412
_cell_length_b       6.750655264582254
_cell_length_c       6.750655527287087
_cell_angle_alpha    60.00000155992279
_cell_angle_beta     60.00000268121615
_cell_angle_gamma    59.999999008804366

_space_group_name_H-M_alt    "P 1"
_space_group_IT_number       1

loop_
  _space_group_symop_operation_xyz
  'x, y, z'

loop_
  _atom_site_type_symbol
  _atom_site_label
  _atom_site_symmetry_multiplicity
  _atom_site_fract_x
  _atom_site_fract_y
  _atom_site_fract_z
  _atom_site_occupancy
  Tl  Tl1       1.0  0.2500000066502554  0.2500000223865271  0.24999999528963535  1.0000
  Tl  Tl2       1.0  0.7499999600150693  0.7500000109174995  0.7500000409951181  1.0000
  Ir  Ir1       1.0  1.6688194134682865e-07  2.485537148493793e-07  0.9999997211779738  1.0000
  Se  Se1       1.0  0.2605649377384118  0.26056491957435574  0.7394350039570465  1.0000
  Se  Se2       1.0  0.7394353835550783  0.7394350248308867  0.2605647335532055  1.0000
  Se  Se3       1.0  0.73943512681524  0.2605647639109547  0.260564831897202  1.0000
  Se  Se4       1.0  0.26056472860241275  0.7394350335391822  0.7394354771879461  1.0000
  Se  Se5       1.0  0.2605647146971034  0.7394351665631221  0.2605647958152382  1.0000
  Se  Se6       1.0  0.7394349916104012  0.26056479598473875  0.739435373437075  1.0000
