data_image0
_chemical_formula_structural       Tl2IrS6
_chemical_formula_sum              "Tl2 Ir1 S6"
_cell_length_a       6.432406579221104
_cell_length_b       6.432406698314446
_cell_length_c       6.432408395440669
_cell_angle_alpha    59.99999572872346
_cell_angle_beta     59.99999209479805
_cell_angle_gamma    59.9999990815159

_space_group_name_H-M_alt    "P 1"
_space_group_IT_number       1

loop_
  _space_group_symop_operation_xyz
  'x, y, z'

loop_
  _atom_site_type_symbol
  _atom_site_label
  _atom_site_symmetry_multiplicity
  _atom_site_fract_x
  _atom_site_fract_y
  _atom_site_fract_z
  _atom_site_occupancy
  Tl  Tl1       1.0  0.2499999972373913  0.2500000645321436  0.24999999459252173  1.0000
  Tl  Tl2       1.0  0.7499999657684541  0.7499999536895531  0.7500000436353556  1.0000
  Ir  Ir1       1.0  0.9999998260341276  8.568102806200516e-08  1.8094965704638852e-07  1.0000
  S   S1        1.0  0.25499490573641076  0.25499482455389383  0.7450051422534014  1.0000
  S   S2        1.0  0.745005154315349  0.7450051879557342  0.2549947958955858  1.0000
  S   S3        1.0  0.7450050463070423  0.2549950619824785  0.25499479050109586  1.0000
  S   S4        1.0  0.25499501059002794  0.7450049276788775  0.7450051964058078  1.0000
  S   S5        1.0  0.2549951373820028  0.7450048922526111  0.25499476484103073  1.0000
  S   S6        1.0  0.7450049223275943  0.25499498126334613  0.7450051123871454  1.0000
