data_image0
_chemical_formula_structural       Tl2MnO6
_chemical_formula_sum              "Tl2 Mn1 O6"
_cell_length_a       5.315975930735052
_cell_length_b       5.315975642749024
_cell_length_c       5.315975852451458
_cell_angle_alpha    59.99999844562266
_cell_angle_beta     59.99999991660965
_cell_angle_gamma    60.00000043862507

_space_group_name_H-M_alt    "P 1"
_space_group_IT_number       1

loop_
  _space_group_symop_operation_xyz
  'x, y, z'

loop_
  _atom_site_type_symbol
  _atom_site_label
  _atom_site_symmetry_multiplicity
  _atom_site_fract_x
  _atom_site_fract_y
  _atom_site_fract_z
  _atom_site_occupancy
  Tl  Tl1       1.0  0.24999999925021982  0.25000003183499603  0.2500000475762674  1.0000
  Tl  Tl2       1.0  0.7500001219161769  0.7499999250167724  0.7500000097570114  1.0000
  Mn  Mn1       1.0  0.9999998445701129  1.0137136983834847e-07  0.9999998389170427  1.0000
  O   O1        1.0  0.24876238133116038  0.24876235611606265  0.7512376104624225  1.0000
  O   O2        1.0  0.7512375564537543  0.7512376491174932  0.24876237704878618  1.0000
  O   O3        1.0  0.7512376759888127  0.24876230388444984  0.24876228641043727  1.0000
  O   O4        1.0  0.2487623435691799  0.7512377036530029  0.7512377813352243  1.0000
  O   O5        1.0  0.24876239762201197  0.7512376348738617  0.24876239675915432  1.0000
  O   O6        1.0  0.7512376096937562  0.24876233119348323  0.751237712891651  1.0000
