data_image0
_chemical_formula_structural       Tl2MoO6
_chemical_formula_sum              "Tl2 Mo1 O6"
_cell_length_a       5.534545888661866
_cell_length_b       5.5345457239074936
_cell_length_c       5.5345463305784195
_cell_angle_alpha    59.999990259658915
_cell_angle_beta     59.99998690619573
_cell_angle_gamma    59.99999643483613

_space_group_name_H-M_alt    "P 1"
_space_group_IT_number       1

loop_
  _space_group_symop_operation_xyz
  'x, y, z'

loop_
  _atom_site_type_symbol
  _atom_site_label
  _atom_site_symmetry_multiplicity
  _atom_site_fract_x
  _atom_site_fract_y
  _atom_site_fract_z
  _atom_site_occupancy
  Tl  Tl1       1.0  0.24999944138793642  0.24999993400793152  0.2500007136854617  1.0000
  Tl  Tl2       1.0  0.7499992962734153  0.7500000277406859  0.7499994769331266  1.0000
  Mo  Mo1       1.0  0.9999978702293612  3.8062037621236796e-07  5.439248744055182e-07  1.0000
  O   O1        1.0  0.24871854497346413  0.24871792736328718  0.7512817127115674  1.0000
  O   O2        1.0  0.7512826418544765  0.7512819724239428  0.24871819856164062  1.0000
  O   O3        1.0  0.751282210813567  0.24871821422589618  0.2487184701727872  1.0000
  O   O4        1.0  0.2487192493518188  0.7512814288638263  0.7512813894164545  1.0000
  O   O5        1.0  0.24871850800916182  0.751281915197897  0.24871796177762515  1.0000
  O   O6        1.0  0.7512825707299611  0.2487179270536959  0.7512813926890001  1.0000
