data_image0
_chemical_formula_structural       Tl2MnTe6
_chemical_formula_sum              "Tl2 Mn1 Te6"
_cell_length_a       7.166618925771166
_cell_length_b       7.1666204853470825
_cell_length_c       7.166620559241997
_cell_angle_alpha    60.000003060907346
_cell_angle_beta     59.999998417940965
_cell_angle_gamma    59.999997646700336

_space_group_name_H-M_alt    "P 1"
_space_group_IT_number       1

loop_
  _space_group_symop_operation_xyz
  'x, y, z'

loop_
  _atom_site_type_symbol
  _atom_site_label
  _atom_site_symmetry_multiplicity
  _atom_site_fract_x
  _atom_site_fract_y
  _atom_site_fract_z
  _atom_site_occupancy
  Tl  Tl1       1.0  0.25000001885667095  0.25000001758671747  0.2499999827709136  1.0000
  Tl  Tl2       1.0  0.7500000163397924  0.749999965603333  0.7499999282847878  1.0000
  Mn  Mn1       1.0  3.9808595462806225e-08  0.9999999965820792  0.9999997948267173  1.0000
  Te  Te1       1.0  0.24986042437791964  0.24986087377799102  0.7501395110284658  1.0000
  Te  Te2       1.0  0.750139863729948  0.7501391965688704  0.24986087325309425  1.0000
  Te  Te3       1.0  0.7501395795955208  0.24986047848279444  0.24986054662144966  1.0000
  Te  Te4       1.0  0.2498606025209956  0.7501391509530855  0.7501393911066284  1.0000
  Te  Te5       1.0  0.24986001276145775  0.750139457370269  0.2498607974432601  1.0000
  Te  Te6       1.0  0.7501394435290514  0.24986086077545536  0.7501391811686096  1.0000
