data_image0
_chemical_formula_structural       Tl2MoS6
_chemical_formula_sum              "Tl2 Mo1 S6"
_cell_length_a       6.735881096944396
_cell_length_b       6.735880601458727
_cell_length_c       6.73588128926292
_cell_angle_alpha    60.00000476972604
_cell_angle_beta     59.999998081530734
_cell_angle_gamma    60.00001268060637

_space_group_name_H-M_alt    "P 1"
_space_group_IT_number       1

loop_
  _space_group_symop_operation_xyz
  'x, y, z'

loop_
  _atom_site_type_symbol
  _atom_site_label
  _atom_site_symmetry_multiplicity
  _atom_site_fract_x
  _atom_site_fract_y
  _atom_site_fract_z
  _atom_site_occupancy
  Tl  Tl1       1.0  0.24999997307526564  0.24999997306777685  0.25000010214699864  1.0000
  Tl  Tl2       1.0  0.7500000431362844  0.7499999537498897  0.7500000431237187  1.0000
  Mo  Mo1       1.0  0.9999998197628004  0.9999998927238477  4.792732724529956e-07  1.0000
  S   S1        1.0  0.24219880358362017  0.2421989322071438  0.7578011230757786  1.0000
  S   S2        1.0  0.7578010982750693  0.7578009982469789  0.24219898699335135  1.0000
  S   S3        1.0  0.7578011126851141  0.24219907660927234  0.24219894927744853  1.0000
  S   S4        1.0  0.2421991061529168  0.7578009520298199  0.7578006087854074  1.0000
  S   S5        1.0  0.24219916494925423  0.7578008679635058  0.24219917138651498  1.0000
  S   S6        1.0  0.7578008869792644  0.24219937340965955  0.7578005166765084  1.0000
