data_image0
_chemical_formula_structural       Tl2MoSe6
_chemical_formula_sum              "Tl2 Mo1 Se6"
_cell_length_a       6.957971153589057
_cell_length_b       6.957971040213124
_cell_length_c       6.957972510175354
_cell_angle_alpha    59.999994903069954
_cell_angle_beta     59.9999957355584
_cell_angle_gamma    60.000007352667716

_space_group_name_H-M_alt    "P 1"
_space_group_IT_number       1

loop_
  _space_group_symop_operation_xyz
  'x, y, z'

loop_
  _atom_site_type_symbol
  _atom_site_label
  _atom_site_symmetry_multiplicity
  _atom_site_fract_x
  _atom_site_fract_y
  _atom_site_fract_z
  _atom_site_occupancy
  Tl  Tl1       1.0  0.24999999250954053  0.25000000184000376  0.2499999537455593  1.0000
  Tl  Tl2       1.0  0.7500000018176659  0.7500000372036901  0.7500000344583556  1.0000
  Mo  Mo1       1.0  0.9999998676743056  0.9999999190305974  1.454519525536048e-07  1.0000
  Se  Se1       1.0  0.2475689037045774  0.24756901670875334  0.7524311681204002  1.0000
  Se  Se2       1.0  0.7524310895671008  0.7524309906512711  0.24756911958156708  1.0000
  Se  Se3       1.0  0.7524308316486031  0.2475692164730699  0.24756906786561353  1.0000
  Se  Se4       1.0  0.24756935607648586  0.7524306307084032  0.7524307701016422  1.0000
  Se  Se5       1.0  0.24756919905789077  0.7524308493570022  0.2475691082780598  1.0000
  Se  Se6       1.0  0.7524306830880371  0.24756938682953045  0.752430675041445  1.0000
