data_image0
_chemical_formula_structural       Tl2MnS6
_chemical_formula_sum              "Tl2 Mn1 S6"
_cell_length_a       6.709765494509291
_cell_length_b       6.709766355793699
_cell_length_c       6.709767104016019
_cell_angle_alpha    59.99999930649117
_cell_angle_beta     59.99999450742541
_cell_angle_gamma    60.000008724631

_space_group_name_H-M_alt    "P 1"
_space_group_IT_number       1

loop_
  _space_group_symop_operation_xyz
  'x, y, z'

loop_
  _atom_site_type_symbol
  _atom_site_label
  _atom_site_symmetry_multiplicity
  _atom_site_fract_x
  _atom_site_fract_y
  _atom_site_fract_z
  _atom_site_occupancy
  Tl  Tl1       1.0  0.24999997368148516  0.2500000668725361  0.25000001950491796  1.0000
  Tl  Tl2       1.0  0.7499999210833113  0.7499999578504941  0.7500001202642897  1.0000
  Mn  Mn1       1.0  4.295760365728207e-08  0.9999997627088459  2.9985636907869343e-07  1.0000
  S   S1        1.0  0.23387689726646962  0.23387689348334226  0.766123155368084  1.0000
  S   S2        1.0  0.7661231100354946  0.766123185999198  0.23387694695409358  1.0000
  S   S3        1.0  0.7661231272636513  0.23387689419326335  0.23387672509192411  1.0000
  S   S4        1.0  0.23387719156465508  0.7661229425221818  0.766122924058151  1.0000
  S   S5        1.0  0.2338768658497075  0.7661231885567775  0.23387691949203251  1.0000
  S   S6        1.0  0.766122819287177  0.23387715012068763  0.766122846195143  1.0000
