data_image0
_chemical_formula_structural       Tl2NbO6
_chemical_formula_sum              "Tl2 Nb1 O6"
_cell_length_a       5.430978709341809
_cell_length_b       5.43097526361533
_cell_length_c       5.430978415597664
_cell_angle_alpha    60.000000898574946
_cell_angle_beta     60.00000028632325
_cell_angle_gamma    60.0000106834062

_space_group_name_H-M_alt    "P 1"
_space_group_IT_number       1

loop_
  _space_group_symop_operation_xyz
  'x, y, z'

loop_
  _atom_site_type_symbol
  _atom_site_label
  _atom_site_symmetry_multiplicity
  _atom_site_fract_x
  _atom_site_fract_y
  _atom_site_fract_z
  _atom_site_occupancy
  Tl  Tl1       1.0  0.2500001391138317  0.24999987925054665  0.24999996559206789  1.0000
  Tl  Tl2       1.0  0.750000020258395  0.7500002804579736  0.7499996579634912  1.0000
  Nb  Nb1       1.0  0.9999998257560704  4.780832326572283e-07  0.9999993177892343  1.0000
  O   O1        1.0  0.25989781731501005  0.2598979460723824  0.7401021722109404  1.0000
  O   O2        1.0  0.7401021912601463  0.7401017220221467  0.25989821630068927  1.0000
  O   O3        1.0  0.7401015177505371  0.2598982641775179  0.25989814267192907  1.0000
  O   O4        1.0  0.2598979838494039  0.7401019744597425  0.7401019047195083  1.0000
  O   O5        1.0  0.25989837295815654  0.7401016007372363  0.25989818409865123  1.0000
  O   O6        1.0  0.7401021200632745  0.2598975261309437  0.7401023395976813  1.0000
