data_image0
_chemical_formula_structural       Tl2NiS6
_chemical_formula_sum              "Tl2 Ni1 S6"
_cell_length_a       6.401305133961702
_cell_length_b       6.401305338506508
_cell_length_c       6.401305453502203
_cell_angle_alpha    60.000003560085815
_cell_angle_beta     60.00000115583209
_cell_angle_gamma    60.00000316799342

_space_group_name_H-M_alt    "P 1"
_space_group_IT_number       1

loop_
  _space_group_symop_operation_xyz
  'x, y, z'

loop_
  _atom_site_type_symbol
  _atom_site_label
  _atom_site_symmetry_multiplicity
  _atom_site_fract_x
  _atom_site_fract_y
  _atom_site_fract_z
  _atom_site_occupancy
  Tl  Tl1       1.0  0.2500000251204262  0.2499999436149963  0.250000040227881  1.0000
  Tl  Tl2       1.0  0.7499999900299223  0.7500000489581697  0.7499999824323937  1.0000
  Ni  Ni1       1.0  6.302538694516713e-08  5.739818489446256e-09  0.9999998937570567  1.0000
  S   S1        1.0  0.2401624647664606  0.24016246789173434  0.7598375551321068  1.0000
  S   S2        1.0  0.7598374030307149  0.7598376528707607  0.24016254584607044  1.0000
  S   S3        1.0  0.7598373572991519  0.24016264792674513  0.24016254639688842  1.0000
  S   S4        1.0  0.24016267599913188  0.7598373389065922  0.7598372435430375  1.0000
  S   S5        1.0  0.2401626594385591  0.7598373390777967  0.2401626893904429  1.0000
  S   S6        1.0  0.7598373400617812  0.24016255974497094  0.7598375363772603  1.0000
