data_image0
_chemical_formula_structural       Tl2NbSe6
_chemical_formula_sum              "Tl2 Nb1 Se6"
_cell_length_a       6.907170363319449
_cell_length_b       6.907170625623801
_cell_length_c       6.907170574973684
_cell_angle_alpha    59.999996771251794
_cell_angle_beta     59.999999546142476
_cell_angle_gamma    59.999999317400494

_space_group_name_H-M_alt    "P 1"
_space_group_IT_number       1

loop_
  _space_group_symop_operation_xyz
  'x, y, z'

loop_
  _atom_site_type_symbol
  _atom_site_label
  _atom_site_symmetry_multiplicity
  _atom_site_fract_x
  _atom_site_fract_y
  _atom_site_fract_z
  _atom_site_occupancy
  Tl  Tl1       1.0  0.2500000081180637  0.25000004455773067  0.24999996128613566  1.0000
  Tl  Tl2       1.0  0.749999969088288  0.7499999634507981  0.7500000168713513  1.0000
  Nb  Nb1       1.0  7.249334851606722e-08  0.9999999680832964  1.071155107683405e-07  1.0000
  Se  Se1       1.0  0.25816346743970514  0.25816353696294947  0.7418364494126549  1.0000
  Se  Se2       1.0  0.7418364571661824  0.7418364533140817  0.2581635248210013  1.0000
  Se  Se3       1.0  0.7418364121674074  0.25816364127473507  0.258163504648925  1.0000
  Se  Se4       1.0  0.25816370067024497  0.7418363259513463  0.7418364246363665  1.0000
  Se  Se5       1.0  0.25816345903492083  0.741836425799606  0.25816348735132816  1.0000
  Se  Se6       1.0  0.7418364736080543  0.2581636105793203  0.7418365322013765  1.0000
