data_image0
_chemical_formula_structural       Tl2NiSe6
_chemical_formula_sum              "Tl2 Ni1 Se6"
_cell_length_a       6.677715363849299
_cell_length_b       6.677715587737968
_cell_length_c       6.67771475838173
_cell_angle_alpha    60.000001404811314
_cell_angle_beta     60.00000298170108
_cell_angle_gamma    60.00000879946596

_space_group_name_H-M_alt    "P 1"
_space_group_IT_number       1

loop_
  _space_group_symop_operation_xyz
  'x, y, z'

loop_
  _atom_site_type_symbol
  _atom_site_label
  _atom_site_symmetry_multiplicity
  _atom_site_fract_x
  _atom_site_fract_y
  _atom_site_fract_z
  _atom_site_occupancy
  Tl  Tl1       1.0  0.25000005134889236  0.24999993038906068  0.2500000160908881  1.0000
  Tl  Tl2       1.0  0.7499999806875498  0.7500000259290943  0.7499999921134561  1.0000
  Ni  Ni1       1.0  0.999999971652779  0.9999999449776686  1.3453091140049904e-07  1.0000
  Se  Se1       1.0  0.24804946508131295  0.24804950736453676  0.751950487952819  1.0000
  Se  Se2       1.0  0.7519504078161328  0.7519505424915642  0.2480494257629937  1.0000
  Se  Se3       1.0  0.7519504539165187  0.2480496653610801  0.24804965740194365  1.0000
  Se  Se4       1.0  0.2480495050026121  0.7519504376832717  0.7519503349632112  1.0000
  Se  Se5       1.0  0.24804960007428725  0.751950401739489  0.2480496235415324  1.0000
  Se  Se6       1.0  0.7519505103688414  0.24804958392391302  0.7519503218017348  1.0000
