data_image0
_chemical_formula_structural       Tl2NbTe6
_chemical_formula_sum              "Tl2 Nb1 Te6"
_cell_length_a       7.435925891161149
_cell_length_b       7.435926918375583
_cell_length_c       7.435925618483665
_cell_angle_alpha    60.00000130264445
_cell_angle_beta     60.00000731845148
_cell_angle_gamma    59.99999684276588

_space_group_name_H-M_alt    "P 1"
_space_group_IT_number       1

loop_
  _space_group_symop_operation_xyz
  'x, y, z'

loop_
  _atom_site_type_symbol
  _atom_site_label
  _atom_site_symmetry_multiplicity
  _atom_site_fract_x
  _atom_site_fract_y
  _atom_site_fract_z
  _atom_site_occupancy
  Tl  Tl1       1.0  0.2499999948686552  0.24999997052493292  0.24999993575216023  1.0000
  Tl  Tl2       1.0  0.7500000075517546  0.7500000383987144  0.7500000484049102  1.0000
  Nb  Nb1       1.0  0.9999996529030116  4.4964853533922286e-07  9.665466911577236e-08  1.0000
  Te  Te1       1.0  0.26373519813875973  0.2637350953670718  0.7362647571736681  1.0000
  Te  Te2       1.0  0.7362648754983696  0.73626465332044  0.2637352004590984  1.0000
  Te  Te3       1.0  0.736265027042396  0.2637350308190683  0.26373517467322544  1.0000
  Te  Te4       1.0  0.26373526521793295  0.7362648166922607  0.7362648246145903  1.0000
  Te  Te5       1.0  0.2637348886365507  0.7362650113577806  0.26373504635676376  1.0000
  Te  Te6       1.0  0.7362650953701692  0.26373493168330653  0.7362649127073089  1.0000
