data_image0
_chemical_formula_structural       Tl2NbS6
_chemical_formula_sum              "Tl2 Nb1 S6"
_cell_length_a       6.594068298563223
_cell_length_b       6.594067932765651
_cell_length_c       6.594067058198322
_cell_angle_alpha    59.999992486610466
_cell_angle_beta     60.00001235477364
_cell_angle_gamma    59.99999462340827

_space_group_name_H-M_alt    "P 1"
_space_group_IT_number       1

loop_
  _space_group_symop_operation_xyz
  'x, y, z'

loop_
  _atom_site_type_symbol
  _atom_site_label
  _atom_site_symmetry_multiplicity
  _atom_site_fract_x
  _atom_site_fract_y
  _atom_site_fract_z
  _atom_site_occupancy
  Tl  Tl1       1.0  0.2500000949935998  0.24999993887401994  0.24999997382072842  1.0000
  Tl  Tl2       1.0  0.749999949858195  0.750000065506098  0.7500000965182143  1.0000
  Nb  Nb1       1.0  0.9999999980427142  0.9999996433900461  1.7016572814187036e-08  1.0000
  S   S1        1.0  0.25510049388987116  0.2551006713775744  0.7448991942064743  1.0000
  S   S2        1.0  0.7448993468791051  0.7448991992738733  0.25510062799665734  1.0000
  S   S3        1.0  0.7448994618637599  0.2551009399280189  0.25510018895557635  1.0000
  S   S4        1.0  0.2551003967954377  0.744899523216001  0.7448996419746605  1.0000
  S   S5        1.0  0.25510038276444913  0.7448995690697361  0.2551006065060731  1.0000
  S   S6        1.0  0.7448998990743573  0.2551003127256644  0.7448995931630598  1.0000
