data_image0
_chemical_formula_structural       Tl2NiO6
_chemical_formula_sum              "Tl2 Ni1 O6"
_cell_length_a       5.237131569324136
_cell_length_b       5.237132117748737
_cell_length_c       5.237130670469424
_cell_angle_alpha    60.00000153142897
_cell_angle_beta     60.00000214419087
_cell_angle_gamma    59.99999482090873

_space_group_name_H-M_alt    "P 1"
_space_group_IT_number       1

loop_
  _space_group_symop_operation_xyz
  'x, y, z'

loop_
  _atom_site_type_symbol
  _atom_site_label
  _atom_site_symmetry_multiplicity
  _atom_site_fract_x
  _atom_site_fract_y
  _atom_site_fract_z
  _atom_site_occupancy
  Tl  Tl1       1.0  0.25000014563398454  0.24999991640020303  0.24999996411417988  1.0000
  Tl  Tl2       1.0  0.7499999306116195  0.7499998988697238  0.7500001584875102  1.0000
  Ni  Ni1       1.0  0.9999999805347828  1.8708634059803214e-08  2.9019928849990784e-08  1.0000
  O   O1        1.0  0.24417008753572622  0.2441700244495164  0.7558299730000595  1.0000
  O   O2        1.0  0.7558298663700954  0.7558300784656902  0.2441698607290762  1.0000
  O   O3        1.0  0.7558299045058884  0.24417016254270363  0.24417000079035525  1.0000
  O   O4        1.0  0.2441701086629558  0.7558299544039597  0.7558299834169057  1.0000
  O   O5        1.0  0.24417000360199503  0.7558299075247916  0.2441701412738725  1.0000
  O   O6        1.0  0.75582991275675  0.24417008313860364  0.7558298838307085  1.0000
