data_image0
_chemical_formula_structural       Tl2NiTe6
_chemical_formula_sum              "Tl2 Ni1 Te6"
_cell_length_a       7.135118918718921
_cell_length_b       7.1351173266057915
_cell_length_c       7.135120798830737
_cell_angle_alpha    60.00001525410872
_cell_angle_beta     60.000029262760414
_cell_angle_gamma    59.99998705896717

_space_group_name_H-M_alt    "P 1"
_space_group_IT_number       1

loop_
  _space_group_symop_operation_xyz
  'x, y, z'

loop_
  _atom_site_type_symbol
  _atom_site_label
  _atom_site_symmetry_multiplicity
  _atom_site_fract_x
  _atom_site_fract_y
  _atom_site_fract_z
  _atom_site_occupancy
  Tl  Tl1       1.0  0.25000015807386144  0.24999989097038167  0.2500000967419559  1.0000
  Tl  Tl2       1.0  0.7499996797317374  0.7499998085149873  0.7500002917134695  1.0000
  Ni  Ni1       1.0  0.9999992539317663  0.9999990387583478  0.9999994128940304  1.0000
  Te  Te1       1.0  0.25856019316814466  0.2585605801549266  0.7414400489053485  1.0000
  Te  Te2       1.0  0.7414403870845652  0.7414405817910543  0.25856143607846627  1.0000
  Te  Te3       1.0  0.7414403470562179  0.25855896461309535  0.25856072571727784  1.0000
  Te  Te4       1.0  0.2585610883030433  0.7414399572958988  0.7414381077095987  1.0000
  Te  Te5       1.0  0.25855890255420144  0.7414404351527478  0.2585611398016861  1.0000
  Te  Te6       1.0  0.7414397759256819  0.25856079545329724  0.7414388343088604  1.0000
