data_image0
_chemical_formula_structural       Tl2OsS6
_chemical_formula_sum              "Tl2 Os1 S6"
_cell_length_a       6.4201492765932064
_cell_length_b       6.420148894117557
_cell_length_c       6.420149650178634
_cell_angle_alpha    59.999999953836685
_cell_angle_beta     59.9999987394329
_cell_angle_gamma    60.00000289070821

_space_group_name_H-M_alt    "P 1"
_space_group_IT_number       1

loop_
  _space_group_symop_operation_xyz
  'x, y, z'

loop_
  _atom_site_type_symbol
  _atom_site_label
  _atom_site_symmetry_multiplicity
  _atom_site_fract_x
  _atom_site_fract_y
  _atom_site_fract_z
  _atom_site_occupancy
  Tl  Tl1       1.0  0.2500000224507159  0.2500000422709611  0.2499999473379037  1.0000
  Tl  Tl2       1.0  0.7499999882001214  0.7499999703849229  0.7500000018587939  1.0000
  Os  Os1       1.0  0.9999999831519701  4.1205413083693974e-07  0.9999997245171568  1.0000
  S   S1        1.0  0.2562701185909177  0.25627015163752825  0.743729881388006  1.0000
  S   S2        1.0  0.74372984918762  0.7437297198516626  0.25627023615039196  1.0000
  S   S3        1.0  0.7437297530889172  0.2562702368119466  0.25627021001321526  1.0000
  S   S4        1.0  0.2562701946872907  0.7437296461231919  0.7437299242641426  1.0000
  S   S5        1.0  0.25627021908788145  0.7437297519804885  0.2562702000113803  1.0000
  S   S6        1.0  0.7437297902382364  0.2562701729231281  0.743729843566883  1.0000
