data_image0
_chemical_formula_structural       Tl2OsO6
_chemical_formula_sum              "Tl2 Os1 O6"
_cell_length_a       5.533367127999428
_cell_length_b       5.533366586367753
_cell_length_c       5.533367336538914
_cell_angle_alpha    60.000000591248586
_cell_angle_beta     59.99999815935793
_cell_angle_gamma    59.99999996920463

_space_group_name_H-M_alt    "P 1"
_space_group_IT_number       1

loop_
  _space_group_symop_operation_xyz
  'x, y, z'

loop_
  _atom_site_type_symbol
  _atom_site_label
  _atom_site_symmetry_multiplicity
  _atom_site_fract_x
  _atom_site_fract_y
  _atom_site_fract_z
  _atom_site_occupancy
  Tl  Tl1       1.0  0.24999997492556994  0.2499999463571363  0.24999999934468367  1.0000
  Tl  Tl2       1.0  0.7500001142519029  0.7499999342468007  0.7499999171541673  1.0000
  Os  Os1       1.0  6.430408370857949e-09  0.9999999181049051  9.375609222715917e-08  1.0000
  O   O1        1.0  0.23877664673265966  0.23877667113873907  0.7612233425489323  1.0000
  O   O2        1.0  0.7612232198700418  0.7612234640040162  0.23877660857000466  1.0000
  O   O3        1.0  0.7612233952506516  0.23877671811455733  0.2387765983179348  1.0000
  O   O4        1.0  0.23877664866823498  0.7612233107859164  0.7612234022032824  1.0000
  O   O5        1.0  0.2387766909987632  0.7612233747260388  0.238776653561162  1.0000
  O   O6        1.0  0.7612234570718854  0.2387765545722856  0.7612232687820965  1.0000
