data_image0
_chemical_formula_structural       Tl2PS6
_chemical_formula_sum              "Tl2 P1 S6"
_cell_length_a       6.707247046378221
_cell_length_b       6.70724708898182
_cell_length_c       6.707247779399903
_cell_angle_alpha    60.000004726336606
_cell_angle_beta     60.00000183210917
_cell_angle_gamma    60.00000081544325

_space_group_name_H-M_alt    "P 1"
_space_group_IT_number       1

loop_
  _space_group_symop_operation_xyz
  'x, y, z'

loop_
  _atom_site_type_symbol
  _atom_site_label
  _atom_site_symmetry_multiplicity
  _atom_site_fract_x
  _atom_site_fract_y
  _atom_site_fract_z
  _atom_site_occupancy
  Tl  Tl1       1.0  0.25000005492894906  0.2500000320652678  0.2499998539834898  1.0000
  Tl  Tl2       1.0  0.7499998980118739  0.750000152801905  0.7500000367841722  1.0000
  P   P1        1.0  3.142392173497092e-08  0.9999999470459201  0.9999998094902705  1.0000
  S   S1        1.0  0.23007614185512693  0.23007632420463622  0.769923835398086  1.0000
  S   S2        1.0  0.7699237763978096  0.7699236031962375  0.23007641613977867  1.0000
  S   S3        1.0  0.7699240271059459  0.23007615777153095  0.23007603244639235  1.0000
  S   S4        1.0  0.2300763572065387  0.7699237349352777  0.7699238289705819  1.0000
  S   S5        1.0  0.2300760057743208  0.7699238533205953  0.2300761973429985  1.0000
  S   S6        1.0  0.7699237333814214  0.2300761672063819  0.7699238944146787  1.0000
