data_image0
_chemical_formula_structural       Tl2PbO6
_chemical_formula_sum              "Tl2 Pb1 O6"
_cell_length_a       5.737536279518867
_cell_length_b       5.73753615726297
_cell_length_c       5.737536226114759
_cell_angle_alpha    60.00000210953197
_cell_angle_beta     60.00000393414133
_cell_angle_gamma    60.00000311608097

_space_group_name_H-M_alt    "P 1"
_space_group_IT_number       1

loop_
  _space_group_symop_operation_xyz
  'x, y, z'

loop_
  _atom_site_type_symbol
  _atom_site_label
  _atom_site_symmetry_multiplicity
  _atom_site_fract_x
  _atom_site_fract_y
  _atom_site_fract_z
  _atom_site_occupancy
  Tl  Tl1       1.0  0.24999997973626542  0.24999997589956674  0.250000012321345  1.0000
  Tl  Tl2       1.0  0.7499999978967199  0.7499999810641513  0.7499998362759542  1.0000
  Pb  Pb1       1.0  0.9999999611723335  0.9999999957307619  0.9999999466033905  1.0000
  O   O1        1.0  0.2594248546067777  0.2594248623378888  0.7405751646861399  1.0000
  O   O2        1.0  0.7405750397204678  0.7405750305872907  0.25942513230859815  1.0000
  O   O3        1.0  0.7405751123336249  0.25942491534945616  0.259424818163997  1.0000
  O   O4        1.0  0.2594249317723343  0.7405751440759333  0.7405750766841124  1.0000
  O   O5        1.0  0.2594248791248786  0.7405751647474703  0.2594247972831061  1.0000
  O   O6        1.0  0.740575198360596  0.259424903216394  0.7405752125528635  1.0000
