data_image0
_chemical_formula_structural       Tl2PtS6
_chemical_formula_sum              "Tl2 Pt1 S6"
_cell_length_a       6.420468681814943
_cell_length_b       6.42046769748803
_cell_length_c       6.4204687739512645
_cell_angle_alpha    59.999995212856156
_cell_angle_beta     59.99999798697614
_cell_angle_gamma    59.999997024501994

_space_group_name_H-M_alt    "P 1"
_space_group_IT_number       1

loop_
  _space_group_symop_operation_xyz
  'x, y, z'

loop_
  _atom_site_type_symbol
  _atom_site_label
  _atom_site_symmetry_multiplicity
  _atom_site_fract_x
  _atom_site_fract_y
  _atom_site_fract_z
  _atom_site_occupancy
  Tl  Tl1       1.0  0.2499999859209082  0.25000002911735925  0.24999999459461653  1.0000
  Tl  Tl2       1.0  0.7499999966402221  0.7499999976965963  0.7499999717923924  1.0000
  Pt  Pt1       1.0  0.9999999638873323  0.9999998817310649  3.981035297182982e-08  1.0000
  S   S1        1.0  0.25478818748380494  0.2547885700743835  0.7452116424677336  1.0000
  S   S2        1.0  0.7452114911892217  0.7452115483026103  0.2547884892675216  1.0000
  S   S3        1.0  0.7452117271371228  0.25478850105651846  0.25478831870739305  1.0000
  S   S4        1.0  0.25478852957348463  0.745211453270034  0.7452115982466915  1.0000
  S   S5        1.0  0.2547885105013814  0.7452115225018332  0.254788399897175  1.0000
  S   S6        1.0  0.7452116523428998  0.25478848142136645  0.7452115469793437  1.0000
