data_image0
_chemical_formula_structural       Tl2PbTe6
_chemical_formula_sum              "Tl2 Pb1 Te6"
_cell_length_a       7.83142518620673
_cell_length_b       7.83142539894271
_cell_length_c       7.831425293387565
_cell_angle_alpha    60.000000331715334
_cell_angle_beta     60.00000012186455
_cell_angle_gamma    59.99999926938552

_space_group_name_H-M_alt    "P 1"
_space_group_IT_number       1

loop_
  _space_group_symop_operation_xyz
  'x, y, z'

loop_
  _atom_site_type_symbol
  _atom_site_label
  _atom_site_symmetry_multiplicity
  _atom_site_fract_x
  _atom_site_fract_y
  _atom_site_fract_z
  _atom_site_occupancy
  Tl  Tl1       1.0  0.25000002203961813  0.24999999307452775  0.2499999656431071  1.0000
  Tl  Tl2       1.0  0.7499999658259063  0.7500000323956746  0.7499999932734354  1.0000
  Pb  Pb1       1.0  7.711833931273132e-08  0.9999999765417236  6.510725659911476e-08  1.0000
  Te  Te1       1.0  0.28713976808375546  0.28713969781657  0.7128602727240996  1.0000
  Te  Te2       1.0  0.7128601905331325  0.7128602119261428  0.287139763788133  1.0000
  Te  Te3       1.0  0.7128601075294404  0.28713987024427867  0.28713986769938415  1.0000
  Te  Te4       1.0  0.28713981794685  0.7128602052702442  0.7128601842192753  1.0000
  Te  Te5       1.0  0.28713988577889726  0.7128601801594213  0.2871397524481792  1.0000
  Te  Te6       1.0  0.7128601642816358  0.28713983123581527  0.7128601377166048  1.0000
