data_image0
_chemical_formula_structural       Tl2PdS6
_chemical_formula_sum              "Tl2 Pd1 S6"
_cell_length_a       6.4382567975923495
_cell_length_b       6.438256266757962
_cell_length_c       6.438256752476088
_cell_angle_alpha    59.999995248087366
_cell_angle_beta     59.99999635650562
_cell_angle_gamma    59.999993868548245

_space_group_name_H-M_alt    "P 1"
_space_group_IT_number       1

loop_
  _space_group_symop_operation_xyz
  'x, y, z'

loop_
  _atom_site_type_symbol
  _atom_site_label
  _atom_site_symmetry_multiplicity
  _atom_site_fract_x
  _atom_site_fract_y
  _atom_site_fract_z
  _atom_site_occupancy
  Tl  Tl1       1.0  0.2500000610746576  0.24999994951472806  0.2500000116626165  1.0000
  Tl  Tl2       1.0  0.7499999945242152  0.7499999626817663  0.7499999713099352  1.0000
  Pd  Pd1       1.0  1.5581680510072697e-07  1.141375376802338e-08  0.999999989385843  1.0000
  S   S1        1.0  0.2596422061972527  0.2596420314658478  0.7403578439007193  1.0000
  S   S2        1.0  0.7403578094006732  0.7403579092650411  0.25964219606121963  1.0000
  S   S3        1.0  0.7403578765691399  0.2596420471966248  0.2596420374846816  1.0000
  S   S4        1.0  0.2596420975420614  0.7403579372870042  0.7403578801934434  1.0000
  S   S5        1.0  0.259642001699035  0.7403579044973512  0.2596421406845186  1.0000
  S   S6        1.0  0.7403578960500579  0.2596422283651277  0.7403579242646611  1.0000
