data_image0
_chemical_formula_structural       Tl2PSe6
_chemical_formula_sum              "Tl2 P1 Se6"
_cell_length_a       6.724600907047931
_cell_length_b       6.724601394224626
_cell_length_c       6.724600400239059
_cell_angle_alpha    60.00000347329672
_cell_angle_beta     60.00000272149292
_cell_angle_gamma    60.00000595403176

_space_group_name_H-M_alt    "P 1"
_space_group_IT_number       1

loop_
  _space_group_symop_operation_xyz
  'x, y, z'

loop_
  _atom_site_type_symbol
  _atom_site_label
  _atom_site_symmetry_multiplicity
  _atom_site_fract_x
  _atom_site_fract_y
  _atom_site_fract_z
  _atom_site_occupancy
  Tl  Tl1       1.0  0.24999997327204918  0.25000002308906344  0.2499999846864412  1.0000
  Tl  Tl2       1.0  0.7500000303730869  0.749999974560123  0.7499999372119254  1.0000
  P   P1        1.0  0.999999976549426  2.9140636292515734e-08  3.1032773852378387e-09  1.0000
  Se  Se1       1.0  0.2440396090269597  0.24403956669344107  0.7559603995037658  1.0000
  Se  Se2       1.0  0.7559602545723817  0.7559606914001833  0.2440395811614529  1.0000
  Se  Se3       1.0  0.7559604854622827  0.24403937828545672  0.24403958176487153  1.0000
  Se  Se4       1.0  0.24403959654886068  0.7559604718392582  0.7559602973847138  1.0000
  Se  Se5       1.0  0.24403962056482054  0.7559604786790912  0.24403964502534695  1.0000
  Se  Se6       1.0  0.7559604452451713  0.24403944065463037  0.7559605645188405  1.0000
