data_image0
_chemical_formula_structural       Tl2PbSe6
_chemical_formula_sum              "Tl2 Pb1 Se6"
_cell_length_a       7.072052107594516
_cell_length_b       7.072052427482242
_cell_length_c       7.0720524228868396
_cell_angle_alpha    59.999997102431564
_cell_angle_beta     59.99999860962781
_cell_angle_gamma    60.00000489009723

_space_group_name_H-M_alt    "P 1"
_space_group_IT_number       1

loop_
  _space_group_symop_operation_xyz
  'x, y, z'

loop_
  _atom_site_type_symbol
  _atom_site_label
  _atom_site_symmetry_multiplicity
  _atom_site_fract_x
  _atom_site_fract_y
  _atom_site_fract_z
  _atom_site_occupancy
  Tl  Tl1       1.0  0.2500000431802347  0.24999985920287432  0.25000008142708985  1.0000
  Tl  Tl2       1.0  0.7500001427611301  0.7499999689976121  0.7499999302692366  1.0000
  Pb  Pb1       1.0  1.3547149537108903e-07  0.9999999168731478  0.9999998875726636  1.0000
  Se  Se1       1.0  0.29962729652313047  0.2996268797166778  0.7003728725306542  1.0000
  Se  Se2       1.0  0.700372596949675  0.7003723025187852  0.29962756737599444  1.0000
  Se  Se3       1.0  0.7003726685885792  0.29962749301856534  0.29962759985566395  1.0000
  Se  Se4       1.0  0.2996271382904439  0.7003731196916517  0.7003729118832346  1.0000
  Se  Se5       1.0  0.2996271581280564  0.7003730395629421  0.2996269024733947  1.0000
  Se  Se6       1.0  0.7003728168127026  0.2996274363343674  0.7003722460832085  1.0000
