data_image0
_chemical_formula_structural       Tl2PbS6
_chemical_formula_sum              "Tl2 Pb1 S6"
_cell_length_a       6.731367038447075
_cell_length_b       6.731367321118575
_cell_length_c       6.731367503765112
_cell_angle_alpha    59.999989885293466
_cell_angle_beta     59.999997740134305
_cell_angle_gamma    60.00001636573625

_space_group_name_H-M_alt    "P 1"
_space_group_IT_number       1

loop_
  _space_group_symop_operation_xyz
  'x, y, z'

loop_
  _atom_site_type_symbol
  _atom_site_label
  _atom_site_symmetry_multiplicity
  _atom_site_fract_x
  _atom_site_fract_y
  _atom_site_fract_z
  _atom_site_occupancy
  Tl  Tl1       1.0  0.2500000243152079  0.25000001410176237  0.24999997057583592  1.0000
  Tl  Tl2       1.0  0.7499999882665626  0.7500000750555343  0.749999940663077  1.0000
  Pb  Pb1       1.0  4.5962804893327114e-09  0.9999997289005704  5.005898813273786e-08  1.0000
  S   S1        1.0  0.2750801377605008  0.2750801938860498  0.7249197550882165  1.0000
  S   S2        1.0  0.7249198203654772  0.7249196623804367  0.2750803339924054  1.0000
  S   S3        1.0  0.7249201259980111  0.2750799302132761  0.2750802195687171  1.0000
  S   S4        1.0  0.27507982940166237  0.7249202790283054  0.7249198206619752  1.0000
  S   S5        1.0  0.2750799140658488  0.7249200349631502  0.2750801748822805  1.0000
  S   S6        1.0  0.7249201853949715  0.27508005601362184  0.7249197365748369  1.0000
