data_image0
_chemical_formula_structural       Tl2PtO6
_chemical_formula_sum              "Tl2 Pt1 O6"
_cell_length_a       5.404715669038118
_cell_length_b       5.404715705597426
_cell_length_c       5.404716343489163
_cell_angle_alpha    60.00000273909514
_cell_angle_beta     60.00000345312484
_cell_angle_gamma    60.00000401997145

_space_group_name_H-M_alt    "P 1"
_space_group_IT_number       1

loop_
  _space_group_symop_operation_xyz
  'x, y, z'

loop_
  _atom_site_type_symbol
  _atom_site_label
  _atom_site_symmetry_multiplicity
  _atom_site_fract_x
  _atom_site_fract_y
  _atom_site_fract_z
  _atom_site_occupancy
  Tl  Tl1       1.0  0.2500001531869623  0.2499998765696969  0.25000000427326197  1.0000
  Tl  Tl2       1.0  0.7499999236033233  0.7499999877476676  0.749999924156624  1.0000
  Pt  Pt1       1.0  0.9999998778547374  0.9999999818714634  1.2934443921436196e-07  1.0000
  O   O1        1.0  0.2510445132649706  0.25104445260497116  0.7489554286924344  1.0000
  O   O2        1.0  0.7489555046075711  0.7489555884656207  0.25104437791169604  1.0000
  O   O3        1.0  0.7489556801919487  0.25104432516830893  0.25104460948220747  1.0000
  O   O4        1.0  0.2510445996479839  0.7489556093971457  0.7489553210665149  1.0000
  O   O5        1.0  0.25104438372027776  0.7489556110897251  0.25104455387114755  1.0000
  O   O6        1.0  0.7489552952497944  0.2510445750091595  0.7489555161912868  1.0000
