data_image0
_chemical_formula_structural       Tl2RhO6
_chemical_formula_sum              "Tl2 Rh1 O6"
_cell_length_a       5.391338973192509
_cell_length_b       5.391340227727322
_cell_length_c       5.3913418595639895
_cell_angle_alpha    59.99999032979193
_cell_angle_beta     59.999988888570336
_cell_angle_gamma    59.999994050201366

_space_group_name_H-M_alt    "P 1"
_space_group_IT_number       1

loop_
  _space_group_symop_operation_xyz
  'x, y, z'

loop_
  _atom_site_type_symbol
  _atom_site_label
  _atom_site_symmetry_multiplicity
  _atom_site_fract_x
  _atom_site_fract_y
  _atom_site_fract_z
  _atom_site_occupancy
  Tl  Tl1       1.0  0.24999985654048798  0.2500000057634754  0.2500000727281041  1.0000
  Tl  Tl2       1.0  0.7500004729731967  0.7499999673132327  0.7499997024654489  1.0000
  Rh  Rh1       1.0  2.2343823758078008e-07  0.9999998886872168  2.7404444850889416e-08  1.0000
  O   O1        1.0  0.2511766471957502  0.2511771141452573  0.748822911861607  1.0000
  O   O2        1.0  0.748823121040528  0.7488230906437737  0.2511770763399313  1.0000
  O   O3        1.0  0.7488230725990466  0.2511768269561113  0.2511767665802183  1.0000
  O   O4        1.0  0.25117661769855903  0.7488228598877752  0.7488233600482042  1.0000
  O   O5        1.0  0.25117701147898086  0.7488231020775142  0.2511769884669463  1.0000
  O   O6        1.0  0.7488230856842375  0.25117692551973664  0.7488232317681113  1.0000
