data_image0
_chemical_formula_structural       Tl2RuS6
_chemical_formula_sum              "Tl2 Ru1 S6"
_cell_length_a       6.338808370988665
_cell_length_b       6.338808298352025
_cell_length_c       6.338809290046688
_cell_angle_alpha    59.999993228836054
_cell_angle_beta     59.999989650891486
_cell_angle_gamma    59.99999833425065

_space_group_name_H-M_alt    "P 1"
_space_group_IT_number       1

loop_
  _space_group_symop_operation_xyz
  'x, y, z'

loop_
  _atom_site_type_symbol
  _atom_site_label
  _atom_site_symmetry_multiplicity
  _atom_site_fract_x
  _atom_site_fract_y
  _atom_site_fract_z
  _atom_site_occupancy
  Tl  Tl1       1.0  0.2500000359517332  0.24999996746984351  0.24999996663654311  1.0000
  Tl  Tl2       1.0  0.7499999587366528  0.7500000164056383  0.7499999805741877  1.0000
  Ru  Ru1       1.0  6.265737396993476e-07  0.9999997488221466  0.9999992443720273  1.0000
  S   S1        1.0  0.2584074782011242  0.2584075014474579  0.7415925955950871  1.0000
  S   S2        1.0  0.7415922761194891  0.7415927007595547  0.25840769077110914  1.0000
  S   S3        1.0  0.7415923404063266  0.25840758441585415  0.2584074975700873  1.0000
  S   S4        1.0  0.25840749478618813  0.7415924844736725  0.7415926651484813  1.0000
  S   S5        1.0  0.2584075069071515  0.7415923980624876  0.25840760398036583  1.0000
  S   S6        1.0  0.7415923338260962  0.25840753944168837  0.7415927384016807  1.0000
