data_image0
_chemical_formula_structural       Tl2ReS6
_chemical_formula_sum              "Tl2 Re1 S6"
_cell_length_a       6.513576563995858
_cell_length_b       6.513576385381831
_cell_length_c       6.513576580366959
_cell_angle_alpha    59.99998448703621
_cell_angle_beta     59.999985295098405
_cell_angle_gamma    59.99998448954913

_space_group_name_H-M_alt    "P 1"
_space_group_IT_number       1

loop_
  _space_group_symop_operation_xyz
  'x, y, z'

loop_
  _atom_site_type_symbol
  _atom_site_label
  _atom_site_symmetry_multiplicity
  _atom_site_fract_x
  _atom_site_fract_y
  _atom_site_fract_z
  _atom_site_occupancy
  Tl  Tl1       1.0  0.24999998774720594  0.2500000116744419  0.25000000967689373  1.0000
  Tl  Tl2       1.0  0.7499999673248225  0.7500000068188905  0.7500000103862023  1.0000
  Re  Re1       1.0  0.9999999931393003  1.4290248130794758e-07  0.999999993389288  1.0000
  S   S1        1.0  0.25218507913845933  0.25218516717628714  0.7478147690415198  1.0000
  S   S2        1.0  0.747814938373417  0.7478148926835623  0.25218509932681743  1.0000
  S   S3        1.0  0.7478148974940481  0.2521852046405994  0.2521850381847989  1.0000
  S   S4        1.0  0.25218512308100793  0.7478147875285824  0.7478150037407351  1.0000
  S   S5        1.0  0.2521851759064505  0.7478147364445707  0.25218512577135105  1.0000
  S   S6        1.0  0.7478147853994983  0.2521851410265625  0.7478150261666023  1.0000
