data_image0
_chemical_formula_structural       Tl2ReO6
_chemical_formula_sum              "Tl2 Re1 O6"
_cell_length_a       5.674589434611482
_cell_length_b       5.674584769468359
_cell_length_c       5.674586498828544
_cell_angle_alpha    60.00002510227671
_cell_angle_beta     60.00001349207719
_cell_angle_gamma    60.00002133841042

_space_group_name_H-M_alt    "P 1"
_space_group_IT_number       1

loop_
  _space_group_symop_operation_xyz
  'x, y, z'

loop_
  _atom_site_type_symbol
  _atom_site_label
  _atom_site_symmetry_multiplicity
  _atom_site_fract_x
  _atom_site_fract_y
  _atom_site_fract_z
  _atom_site_occupancy
  Tl  Tl1       1.0  0.2500001684794358  0.2500001954240413  0.24999964340488515  1.0000
  Tl  Tl2       1.0  0.7500000345357734  0.7499997769103832  0.7499999827114386  1.0000
  Re  Re1       1.0  1.2685598259821545e-07  2.482043981431488e-07  1.336556741514719e-08  1.0000
  O   O1        1.0  0.23787772574213548  0.2378774821495602  0.7621223648885915  1.0000
  O   O2        1.0  0.7621223211883212  0.7621222808300603  0.2378778104939906  1.0000
  O   O3        1.0  0.7621220590628336  0.23787758001568846  0.23787793620757633  1.0000
  O   O4        1.0  0.23787799723783443  0.7621223318863773  0.7621218481117163  1.0000
  O   O5        1.0  0.23787816058000094  0.7621224242539336  0.2378775694955288  1.0000
  O   O6        1.0  0.762121850950023  0.2378777013197614  0.7621224299546291  1.0000
