data_image0
_chemical_formula_structural       Tl2RhS6
_chemical_formula_sum              "Tl2 Rh1 S6"
_cell_length_a       6.3826913207823015
_cell_length_b       6.382692113727594
_cell_length_c       6.382691870285308
_cell_angle_alpha    59.99999990615881
_cell_angle_beta     60.00000010887271
_cell_angle_gamma    60.000001221001696

_space_group_name_H-M_alt    "P 1"
_space_group_IT_number       1

loop_
  _space_group_symop_operation_xyz
  'x, y, z'

loop_
  _atom_site_type_symbol
  _atom_site_label
  _atom_site_symmetry_multiplicity
  _atom_site_fract_x
  _atom_site_fract_y
  _atom_site_fract_z
  _atom_site_occupancy
  Tl  Tl1       1.0  0.249999967397301  0.25000002345938466  0.25000004439300844  1.0000
  Tl  Tl2       1.0  0.7500000802530902  0.7500000300822403  0.7499999467911121  1.0000
  Rh  Rh1       1.0  0.999999976701018  0.9999999884868841  0.9999999218350869  1.0000
  S   S1        1.0  0.254911589190222  0.2549116466265515  0.7450884948033267  1.0000
  S   S2        1.0  0.7450883360833769  0.745088215029762  0.2549117349821728  1.0000
  S   S3        1.0  0.7450885014221164  0.2549114759609701  0.2549116579185825  1.0000
  S   S4        1.0  0.2549118079508188  0.7450883242920432  0.7450883102477354  1.0000
  S   S5        1.0  0.2549114132222644  0.7450885637258491  0.25491150272139024  1.0000
  S   S6        1.0  0.7450883290862297  0.2549117219970061  0.7450884561066232  1.0000
