data_image0
_chemical_formula_structural       Tl2ReTe6
_chemical_formula_sum              "Tl2 Re1 Te6"
_cell_length_a       7.346419718962211
_cell_length_b       7.346419950570112
_cell_length_c       7.3464183546871284
_cell_angle_alpha    60.00000700730886
_cell_angle_beta     60.00000826193395
_cell_angle_gamma    59.99999666989981

_space_group_name_H-M_alt    "P 1"
_space_group_IT_number       1

loop_
  _space_group_symop_operation_xyz
  'x, y, z'

loop_
  _atom_site_type_symbol
  _atom_site_label
  _atom_site_symmetry_multiplicity
  _atom_site_fract_x
  _atom_site_fract_y
  _atom_site_fract_z
  _atom_site_occupancy
  Tl  Tl1       1.0  0.2500000887222733  0.2500001064627555  0.24999962466476466  1.0000
  Tl  Tl2       1.0  0.7499998553477283  0.7500000476458594  0.7500002824617423  1.0000
  Re  Re1       1.0  1.0475115422090393e-07  1.6671315014778325e-07  0.999998968593293  1.0000
  Te  Te1       1.0  0.25806178023415155  0.25806153176223284  0.741938469656318  1.0000
  Te  Te2       1.0  0.7419383458364586  0.7419382272361927  0.2580617590957731  1.0000
  Te  Te3       1.0  0.7419383392048027  0.2580615796497215  0.2580614993470036  1.0000
  Te  Te4       1.0  0.2580612152990618  0.7419386444784509  0.7419390439754233  1.0000
  Te  Te5       1.0  0.2580615785193956  0.7419383725889526  0.25806129377770687  1.0000
  Te  Te6       1.0  0.7419386970317451  0.2580612680431192  0.7419390814009947  1.0000
