data_image0
_chemical_formula_structural       Tl2ReSe6
_chemical_formula_sum              "Tl2 Re1 Se6"
_cell_length_a       6.814052775015364
_cell_length_b       6.814052649822267
_cell_length_c       6.814051714354619
_cell_angle_alpha    60.00000492445539
_cell_angle_beta     60.00000521574684
_cell_angle_gamma    60.00000429821626

_space_group_name_H-M_alt    "P 1"
_space_group_IT_number       1

loop_
  _space_group_symop_operation_xyz
  'x, y, z'

loop_
  _atom_site_type_symbol
  _atom_site_label
  _atom_site_symmetry_multiplicity
  _atom_site_fract_x
  _atom_site_fract_y
  _atom_site_fract_z
  _atom_site_occupancy
  Tl  Tl1       1.0  0.2500000356237934  0.24999999761153582  0.24999998758140002  1.0000
  Tl  Tl2       1.0  0.750000016664734  0.7499999838477018  0.7500000050031976  1.0000
  Re  Re1       1.0  9.756345950008154e-09  2.1568570860740086e-08  0.9999999667268741  1.0000
  Se  Se1       1.0  0.2564275732227877  0.25642763694983406  0.7435723980812902  1.0000
  Se  Se2       1.0  0.7435723578249234  0.7435723930386858  0.25642762645640793  1.0000
  Se  Se3       1.0  0.7435724275904371  0.25642758365642043  0.2564276373825712  1.0000
  Se  Se4       1.0  0.2564275914231154  0.7435723654499604  0.7435723483919404  1.0000
  Se  Se5       1.0  0.256427594327209  0.7435724065941124  0.2564276745291438  1.0000
  Se  Se6       1.0  0.743572411693502  0.25642760182583796  0.7435723350467841  1.0000
