data_image0
_chemical_formula_structural       Tl2RuSe6
_chemical_formula_sum              "Tl2 Ru1 Se6"
_cell_length_a       6.732547668369954
_cell_length_b       6.732547948928176
_cell_length_c       6.732547841448041
_cell_angle_alpha    60.00000011520204
_cell_angle_beta     59.99999815421058
_cell_angle_gamma    59.99999429024435

_space_group_name_H-M_alt    "P 1"
_space_group_IT_number       1

loop_
  _space_group_symop_operation_xyz
  'x, y, z'

loop_
  _atom_site_type_symbol
  _atom_site_label
  _atom_site_symmetry_multiplicity
  _atom_site_fract_x
  _atom_site_fract_y
  _atom_site_fract_z
  _atom_site_occupancy
  Tl  Tl1       1.0  0.24999993095820267  0.2500000847997818  0.24999999380866822  1.0000
  Tl  Tl2       1.0  0.7499999858192621  0.7499999997196982  0.7500000108081787  1.0000
  Ru  Ru1       1.0  0.9999998173668808  4.3659378510262516e-08  4.2751079384303175e-08  1.0000
  Se  Se1       1.0  0.25931342974651833  0.25931335588168924  0.7406865863870661  1.0000
  Se  Se2       1.0  0.7406866491721  0.7406865303514933  0.2593134288757433  1.0000
  Se  Se3       1.0  0.7406866791942658  0.2593133334630637  0.25931333201361945  1.0000
  Se  Se4       1.0  0.25931341935137736  0.7406866328122882  0.7406865962815476  1.0000
  Se  Se5       1.0  0.25931344471738355  0.7406866277974044  0.2593133339104325  1.0000
  Se  Se6       1.0  0.7406866552133932  0.2593133857755935  0.7406866606479738  1.0000
