data_image0
_chemical_formula_structural       Tl2SnSe6
_chemical_formula_sum              "Tl2 Sn1 Se6"
_cell_length_a       6.892954789979432
_cell_length_b       6.892955014802064
_cell_length_c       6.892955054292056
_cell_angle_alpha    59.99999429988807
_cell_angle_beta     59.99999668390464
_cell_angle_gamma    59.99999687743524

_space_group_name_H-M_alt    "P 1"
_space_group_IT_number       1

loop_
  _space_group_symop_operation_xyz
  'x, y, z'

loop_
  _atom_site_type_symbol
  _atom_site_label
  _atom_site_symmetry_multiplicity
  _atom_site_fract_x
  _atom_site_fract_y
  _atom_site_fract_z
  _atom_site_occupancy
  Tl  Tl1       1.0  0.24999996284916787  0.25000009097455345  0.2500000085475589  1.0000
  Tl  Tl2       1.0  0.7499999047624261  0.7500000081794521  0.7500000280437765  1.0000
  Sn  Sn1       1.0  0.9999999937057108  0.9999999786783151  7.038749515556761e-08  1.0000
  Se  Se1       1.0  0.29161463016599964  0.2916144141542139  0.7083854141355905  1.0000
  Se  Se2       1.0  0.7083855991704747  0.7083855446320556  0.2916144551976655  1.0000
  Se  Se3       1.0  0.7083852578240972  0.2916144954067631  0.2916145496714573  1.0000
  Se  Se4       1.0  0.29161452078178124  0.7083856446137919  0.7083856473605807  1.0000
  Se  Se5       1.0  0.29161461576258324  0.708385365367349  0.29161430295093793  1.0000
  Se  Se6       1.0  0.7083854773610087  0.2916144743728716  0.7083855692467241  1.0000
