data_image0
_chemical_formula_structural       Tl2SeS6
_chemical_formula_sum              "Tl2 Se1 S6"
_cell_length_a       6.7674307086070336
_cell_length_b       6.767430969908127
_cell_length_c       6.767430460251246
_cell_angle_alpha    60.00000337194669
_cell_angle_beta     60.00000439594751
_cell_angle_gamma    60.00000299790233

_space_group_name_H-M_alt    "P 1"
_space_group_IT_number       1

loop_
  _space_group_symop_operation_xyz
  'x, y, z'

loop_
  _atom_site_type_symbol
  _atom_site_label
  _atom_site_symmetry_multiplicity
  _atom_site_fract_x
  _atom_site_fract_y
  _atom_site_fract_z
  _atom_site_occupancy
  Tl  Tl1       1.0  0.24999998936535484  0.2500000144370564  0.24999999984547072  1.0000
  Tl  Tl2       1.0  0.7500000096673473  0.7500000107354297  0.7499999979939728  1.0000
  Se  Se1       1.0  0.9999999729245805  0.999999958375444  0.9999999988860095  1.0000
  S   S1        1.0  0.23556114134991715  0.23556098518373658  0.7644389350626294  1.0000
  S   S2        1.0  0.7644388482407637  0.7644388789198149  0.23556117019727632  1.0000
  S   S3        1.0  0.7644390056861178  0.2355610288016135  0.23556103864784317  1.0000
  S   S4        1.0  0.2355609287303734  0.7644391339128839  0.7644389389830223  1.0000
  S   S5        1.0  0.23556095710358088  0.7644390951769832  0.23556097326799408  1.0000
  S   S6        1.0  0.764439142719795  0.23556089380023668  0.7644389730640935  1.0000
