data_image0
_chemical_formula_structural       Tl2SnTe6
_chemical_formula_sum              "Tl2 Sn1 Te6"
_cell_length_a       7.611850039516537
_cell_length_b       7.611849648052101
_cell_length_c       7.611850242080258
_cell_angle_alpha    59.999994360640855
_cell_angle_beta     59.9999975162105
_cell_angle_gamma    60.00000164962181

_space_group_name_H-M_alt    "P 1"
_space_group_IT_number       1

loop_
  _space_group_symop_operation_xyz
  'x, y, z'

loop_
  _atom_site_type_symbol
  _atom_site_label
  _atom_site_symmetry_multiplicity
  _atom_site_fract_x
  _atom_site_fract_y
  _atom_site_fract_z
  _atom_site_occupancy
  Tl  Tl1       1.0  0.2500000608627294  0.25000014156849665  0.24999992531179954  1.0000
  Tl  Tl2       1.0  0.7499999350240318  0.7499998567292566  0.7500000772925859  1.0000
  Sn  Sn1       1.0  3.6713472595832044e-07  2.638756515769562e-07  3.6577397526752076e-08  1.0000
  Te  Te1       1.0  0.27504384669994714  0.27504383036395735  0.7249561475643488  1.0000
  Te  Te2       1.0  0.7249556114040635  0.7249556514454703  0.275044369038183  1.0000
  Te  Te3       1.0  0.7249561528245884  0.275044018898248  0.27504382555608325  1.0000
  Te  Te4       1.0  0.2750440925668603  0.724955968136541  0.7249559134159244  1.0000
  Te  Te5       1.0  0.2750439040681411  0.7249561048991096  0.27504390987128285  1.0000
  Te  Te6       1.0  0.7249560160117002  0.2750441299213202  0.7249558008629134  1.0000
