data_image0
_chemical_formula_structural       Tl2SiS6
_chemical_formula_sum              "Tl2 Si1 S6"
_cell_length_a       6.498901812836813
_cell_length_b       6.498902444895054
_cell_length_c       6.498902500571515
_cell_angle_alpha    60.00000098261085
_cell_angle_beta     60.00000188343377
_cell_angle_gamma    60.000002106064365

_space_group_name_H-M_alt    "P 1"
_space_group_IT_number       1

loop_
  _space_group_symop_operation_xyz
  'x, y, z'

loop_
  _atom_site_type_symbol
  _atom_site_label
  _atom_site_symmetry_multiplicity
  _atom_site_fract_x
  _atom_site_fract_y
  _atom_site_fract_z
  _atom_site_occupancy
  Tl  Tl1       1.0  0.2500000205200961  0.24999996358062354  0.24999998200205728  1.0000
  Tl  Tl2       1.0  0.7500000020833926  0.7499999039336577  0.7500000568558407  1.0000
  Si  Si1       1.0  0.9999998785857839  1.2437970996374793e-07  1.6981905474967864e-08  1.0000
  S   S1        1.0  0.24740199522505457  0.24740194171695595  0.7525980284876918  1.0000
  S   S2        1.0  0.7525980351105005  0.7525981104823483  0.2474019664781893  1.0000
  S   S3        1.0  0.7525982498815639  0.24740180955044763  0.2474019468443392  1.0000
  S   S4        1.0  0.24740198487730752  0.7525978958933014  0.7525981962237334  1.0000
  S   S5        1.0  0.2474018225678739  0.7525982739446926  0.24740176794153215  1.0000
  S   S6        1.0  0.7525980129488048  0.24740196293963693  0.7525980212864439  1.0000
