data_image0
_chemical_formula_structural       Tl2SiTe6
_chemical_formula_sum              "Tl2 Si1 Te6"
_cell_length_a       7.35296735106799
_cell_length_b       7.352964300827257
_cell_length_c       7.352966933186903
_cell_angle_alpha    59.9999906200918
_cell_angle_beta     59.9999942285314
_cell_angle_gamma    59.99999002293422

_space_group_name_H-M_alt    "P 1"
_space_group_IT_number       1

loop_
  _space_group_symop_operation_xyz
  'x, y, z'

loop_
  _atom_site_type_symbol
  _atom_site_label
  _atom_site_symmetry_multiplicity
  _atom_site_fract_x
  _atom_site_fract_y
  _atom_site_fract_z
  _atom_site_occupancy
  Tl  Tl1       1.0  0.24999991766639534  0.24999993554740943  0.2500000246129175  1.0000
  Tl  Tl2       1.0  0.7500000984978765  0.7499999432253868  0.7500000245571388  1.0000
  Si  Si1       1.0  0.999999977410336  8.661368645689568e-08  0.999999791188611  1.0000
  Te  Te1       1.0  0.25963707610347325  0.25963584298361153  0.7403636019212431  1.0000
  Te  Te2       1.0  0.7403630013983418  0.7403641956913917  0.2596362495892426  1.0000
  Te  Te3       1.0  0.7403635440769064  0.2596360846633364  0.25963682638844393  1.0000
  Te  Te4       1.0  0.2596362325091543  0.7403641971962777  0.7403631967871352  1.0000
  Te  Te5       1.0  0.25963666412743036  0.7403639133668521  0.25963647987648664  1.0000
  Te  Te6       1.0  0.7403634897737685  0.2596357971755099  0.7403637966995691  1.0000
