data_image0
_chemical_formula_structural       Tl2SiO6
_chemical_formula_sum              "Tl2 Si1 O6"
_cell_length_a       5.22567403488405
_cell_length_b       5.225681644389336
_cell_length_c       5.225691980695487
_cell_angle_alpha    59.99989676905061
_cell_angle_beta     59.999924670436855
_cell_angle_gamma    60.00001301366044

_space_group_name_H-M_alt    "P 1"
_space_group_IT_number       1

loop_
  _space_group_symop_operation_xyz
  'x, y, z'

loop_
  _atom_site_type_symbol
  _atom_site_label
  _atom_site_symmetry_multiplicity
  _atom_site_fract_x
  _atom_site_fract_y
  _atom_site_fract_z
  _atom_site_occupancy
  Tl  Tl1       1.0  0.2499996585703948  0.24999961079753147  0.2500006550979934  1.0000
  Tl  Tl2       1.0  0.7500016651932472  0.7500000909641632  0.7499995339118855  1.0000
  Si  Si1       1.0  6.113267358263298e-06  4.026486879882031e-06  0.999998975520755  1.0000
  O   O1        1.0  0.23903209123147595  0.2390295304866997  0.7609681086645458  1.0000
  O   O2        1.0  0.76096367075769  0.7609598566255523  0.23903923014629838  1.0000
  O   O3        1.0  0.7609653434984096  0.23903398087288563  0.23903134798525652  1.0000
  O   O4        1.0  0.2390330934011564  0.7609661615057693  0.7609663612883306  1.0000
  O   O5        1.0  0.23903022931235962  0.7609698543245278  0.23903049988858346  1.0000
  O   O6        1.0  0.7609674714531043  0.2390360230997466  0.7609656533431209  1.0000
