data_image0
_chemical_formula_structural       Tl2SeO6
_chemical_formula_sum              "Tl2 Se1 O6"
_cell_length_a       5.224277815110345
_cell_length_b       5.224273502749218
_cell_length_c       5.224277001768596
_cell_angle_alpha    60.00001626460791
_cell_angle_beta     60.00002436719343
_cell_angle_gamma    60.000037575379494

_space_group_name_H-M_alt    "P 1"
_space_group_IT_number       1

loop_
  _space_group_symop_operation_xyz
  'x, y, z'

loop_
  _atom_site_type_symbol
  _atom_site_label
  _atom_site_symmetry_multiplicity
  _atom_site_fract_x
  _atom_site_fract_y
  _atom_site_fract_z
  _atom_site_occupancy
  Tl  Tl1       1.0  0.2499974874416045  0.2499973536146852  0.2500076017985187  1.0000
  Tl  Tl2       1.0  0.7499981366276176  0.7499991805876705  0.7500060796732987  1.0000
  Se  Se1       1.0  0.9999930283711305  0.9999951941164055  2.2074725580837003e-05  1.0000
  O   O1        1.0  0.24809077825082593  0.24809189478306362  0.7519044299411534  1.0000
  O   O2        1.0  0.7519114717038927  0.7519110793032266  0.248084115117619  1.0000
  O   O3        1.0  0.7519104584752481  0.2480928491645525  0.24808557921162025  1.0000
  O   O4        1.0  0.2480913300898764  0.7519129943873237  0.7519016756736017  1.0000
  O   O5        1.0  0.24809453754306302  0.7519095576045771  0.24808356264641934  1.0000
  O   O6        1.0  0.7519121349237182  0.24809153398254813  0.7519029946033262  1.0000
