data_image0
_chemical_formula_structural       Tl2SnS6
_chemical_formula_sum              "Tl2 Sn1 S6"
_cell_length_a       6.780562507334723
_cell_length_b       6.780562444204441
_cell_length_c       6.780562777013198
_cell_angle_alpha    60.00000266750482
_cell_angle_beta     59.999999396724014
_cell_angle_gamma    59.999996619834086

_space_group_name_H-M_alt    "P 1"
_space_group_IT_number       1

loop_
  _space_group_symop_operation_xyz
  'x, y, z'

loop_
  _atom_site_type_symbol
  _atom_site_label
  _atom_site_symmetry_multiplicity
  _atom_site_fract_x
  _atom_site_fract_y
  _atom_site_fract_z
  _atom_site_occupancy
  Tl  Tl1       1.0  0.2499999957679365  0.24999998846725785  0.2500000278798186  1.0000
  Tl  Tl2       1.0  0.7499999674526886  0.7499999943019074  0.7500000127487775  1.0000
  Sn  Sn1       1.0  7.493010470446279e-08  0.9999999999999878  0.9999997796592783  1.0000
  S   S1        1.0  0.26250704627786564  0.262507057648584  0.7374927917509225  1.0000
  S   S2        1.0  0.7374927577444041  0.7374927896511904  0.2625071440200853  1.0000
  S   S3        1.0  0.7374928351276707  0.2625071545800266  0.26250704544290676  1.0000
  S   S4        1.0  0.26250683383534557  0.7374932562724329  0.7374932424060764  1.0000
  S   S5        1.0  0.2625073606864934  0.7374929273811193  0.26250682799545905  1.0000
  S   S6        1.0  0.7374931168656109  0.2625068151556426  0.737493140474963  1.0000
