data_image0
_chemical_formula_structural       Tl2SiSe6
_chemical_formula_sum              "Tl2 Si1 Se6"
_cell_length_a       6.7545310524088835
_cell_length_b       6.754531695284215
_cell_length_c       6.754531482047355
_cell_angle_alpha    60.00000108918396
_cell_angle_beta     59.99999804433491
_cell_angle_gamma    60.00000214628107

_space_group_name_H-M_alt    "P 1"
_space_group_IT_number       1

loop_
  _space_group_symop_operation_xyz
  'x, y, z'

loop_
  _atom_site_type_symbol
  _atom_site_label
  _atom_site_symmetry_multiplicity
  _atom_site_fract_x
  _atom_site_fract_y
  _atom_site_fract_z
  _atom_site_occupancy
  Tl  Tl1       1.0  0.25000001857439147  0.2499999941928179  0.24999997902523308  1.0000
  Tl  Tl2       1.0  0.7499999992053165  0.749999988018112  0.750000005548939  1.0000
  Si  Si1       1.0  1.3468760718406699e-08  1.087931686153045e-08  5.296741495800058e-08  1.0000
  Se  Se1       1.0  0.2538044026235393  0.2538042609918575  0.7461957215575725  1.0000
  Se  Se2       1.0  0.7461956084426224  0.7461955054459554  0.2538045089843012  1.0000
  Se  Se3       1.0  0.7461956261567876  0.25380444973907107  0.25380433320185747  1.0000
  Se  Se4       1.0  0.2538044116689903  0.7461956467046854  0.7461955575840897  1.0000
  Se  Se5       1.0  0.2538044006845139  0.746195615905684  0.25380434470340135  1.0000
  Se  Se6       1.0  0.7461955132262313  0.2538045240553394  0.7461955078155866  1.0000
