data_image0
_chemical_formula_structural       Tl2SnO6
_chemical_formula_sum              "Tl2 Sn1 O6"
_cell_length_a       5.369702683557884
_cell_length_b       5.369702771858739
_cell_length_c       5.369702987724404
_cell_angle_alpha    60.00000290263837
_cell_angle_beta     60.00000352456805
_cell_angle_gamma    59.99999780109983

_space_group_name_H-M_alt    "P 1"
_space_group_IT_number       1

loop_
  _space_group_symop_operation_xyz
  'x, y, z'

loop_
  _atom_site_type_symbol
  _atom_site_label
  _atom_site_symmetry_multiplicity
  _atom_site_fract_x
  _atom_site_fract_y
  _atom_site_fract_z
  _atom_site_occupancy
  Tl  Tl1       1.0  0.24999999462389777  0.2499997927164227  0.2500001256691266  1.0000
  Tl  Tl2       1.0  0.7499998769661619  0.7500002859247562  0.7500000026446314  1.0000
  Sn  Sn1       1.0  9.127079622159086e-08  1.0035708488545384e-07  0.9999999432943747  1.0000
  O   O1        1.0  0.2674554763902901  0.2674552903518028  0.7325446123095757  1.0000
  O   O2        1.0  0.7325444245898367  0.7325447130215537  0.26745537133602326  1.0000
  O   O3        1.0  0.7325450043913865  0.2674551985787302  0.26745517599315083  1.0000
  O   O4        1.0  0.26745521232849406  0.7325447865478659  0.7325446253845567  1.0000
  O   O5        1.0  0.2674552112248148  0.7325446688013711  0.2674552030060364  1.0000
  O   O6        1.0  0.7325447040069043  0.26745518859803286  0.7325446733068016  1.0000
