data_image0
_chemical_formula_structural       Tl2TeS6
_chemical_formula_sum              "Tl2 Te1 S6"
_cell_length_a       6.920967277465663
_cell_length_b       6.920967275249554
_cell_length_c       6.920967020216167
_cell_angle_alpha    60.00000012844516
_cell_angle_beta     60.00000194475219
_cell_angle_gamma    59.999997548142474

_space_group_name_H-M_alt    "P 1"
_space_group_IT_number       1

loop_
  _space_group_symop_operation_xyz
  'x, y, z'

loop_
  _atom_site_type_symbol
  _atom_site_label
  _atom_site_symmetry_multiplicity
  _atom_site_fract_x
  _atom_site_fract_y
  _atom_site_fract_z
  _atom_site_occupancy
  Tl  Tl1       1.0  0.2499999686720888  0.25000006359790655  0.2499999874748965  1.0000
  Tl  Tl2       1.0  0.7500000136070888  0.7499999731310475  0.7499999914526906  1.0000
  Te  Te1       1.0  9.684017943552246e-08  0.9999997044742593  9.067347479783172e-08  1.0000
  S   S1        1.0  0.24431831680146987  0.244318329734862  0.7556816933461918  1.0000
  S   S2        1.0  0.7556817643677837  0.7556817707002357  0.24431822306678772  1.0000
  S   S3        1.0  0.7556816834577057  0.24431830830481413  0.24431829942133654  1.0000
  S   S4        1.0  0.2443182030975466  0.7556817903606746  0.7556817151834468  1.0000
  S   S5        1.0  0.2443182089107082  0.755681806912419  0.24431821394791434  1.0000
  S   S6        1.0  0.7556817761154159  0.24431823158614982  0.7556817757253549  1.0000
