data_image0
_chemical_formula_structural       Tl2TaTe6
_chemical_formula_sum              "Tl2 Ta1 Te6"
_cell_length_a       7.444810599192787
_cell_length_b       7.444810871416221
_cell_length_c       7.444810787490618
_cell_angle_alpha    59.99999840235518
_cell_angle_beta     59.999999751972275
_cell_angle_gamma    59.99999642981851

_space_group_name_H-M_alt    "P 1"
_space_group_IT_number       1

loop_
  _space_group_symop_operation_xyz
  'x, y, z'

loop_
  _atom_site_type_symbol
  _atom_site_label
  _atom_site_symmetry_multiplicity
  _atom_site_fract_x
  _atom_site_fract_y
  _atom_site_fract_z
  _atom_site_occupancy
  Tl  Tl1       1.0  0.24999999980093324  0.24999996736227348  0.2499999904696705  1.0000
  Tl  Tl2       1.0  0.7500000193455263  0.7499999678907678  0.7499999983829826  1.0000
  Ta  Ta1       1.0  0.9999999152264495  2.6321588224988048e-08  0.9999998223704881  1.0000
  Te  Te1       1.0  0.26376679769539363  0.26376677423155004  0.7362332599746916  1.0000
  Te  Te2       1.0  0.7362332578609267  0.7362331495057947  0.263766873587325  1.0000
  Te  Te3       1.0  0.736233121527866  0.2637668230415742  0.2637668751808453  1.0000
  Te  Te4       1.0  0.2637668460721614  0.7362332668507494  0.7362331198837317  1.0000
  Te  Te5       1.0  0.26376687648590785  0.7362332044264919  0.26376683413820895  1.0000
  Te  Te6       1.0  0.7362331558347137  0.2637668262422732  0.736233218622638  1.0000
