data_image0
_chemical_formula_structural       Tl2TaO6
_chemical_formula_sum              "Tl2 Ta1 O6"
_cell_length_a       5.374462682913734
_cell_length_b       5.374465996035851
_cell_length_c       5.374467439148298
_cell_angle_alpha    59.99997006621807
_cell_angle_beta     59.999988884562455
_cell_angle_gamma    60.00000137199648

_space_group_name_H-M_alt    "P 1"
_space_group_IT_number       1

loop_
  _space_group_symop_operation_xyz
  'x, y, z'

loop_
  _atom_site_type_symbol
  _atom_site_label
  _atom_site_symmetry_multiplicity
  _atom_site_fract_x
  _atom_site_fract_y
  _atom_site_fract_z
  _atom_site_occupancy
  Tl  Tl1       1.0  0.24999973841270415  0.2500009040030807  0.2500002725356064  1.0000
  Tl  Tl2       1.0  0.7499996518932048  0.749999416833036  0.7500010244212577  1.0000
  Ta  Ta1       1.0  4.405609202820888e-07  0.9999993550932772  5.412863395943798e-07  1.0000
  O   O1        1.0  0.2592762647104974  0.2592755727305783  0.7407237557389015  1.0000
  O   O2        1.0  0.7407233967000978  0.740724501993266  0.2592759676369254  1.0000
  O   O3        1.0  0.740724361130726  0.25927662465050494  0.25927500200240383  1.0000
  O   O4        1.0  0.25927623227211527  0.7407246760796775  0.7407235958578271  1.0000
  O   O5        1.0  0.25927610807981677  0.7407236048413238  0.25927556646800126  1.0000
  O   O6        1.0  0.7407236683515992  0.2592764470943124  0.7407241052095902  1.0000
