data_image0
_chemical_formula_structural       Tl2TeO6
_chemical_formula_sum              "Tl2 Te1 O6"
_cell_length_a       5.389843144727391
_cell_length_b       5.389843868620342
_cell_length_c       5.389843336838965
_cell_angle_alpha    59.99999796005965
_cell_angle_beta     59.999998298153926
_cell_angle_gamma    59.999998109165745

_space_group_name_H-M_alt    "P 1"
_space_group_IT_number       1

loop_
  _space_group_symop_operation_xyz
  'x, y, z'

loop_
  _atom_site_type_symbol
  _atom_site_label
  _atom_site_symmetry_multiplicity
  _atom_site_fract_x
  _atom_site_fract_y
  _atom_site_fract_z
  _atom_site_occupancy
  Tl  Tl1       1.0  0.24999995989837215  0.2500002592022953  0.24999990199858743  1.0000
  Tl  Tl2       1.0  0.7500000174268835  0.7499999209423233  0.7500000116572906  1.0000
  Te  Te1       1.0  2.2570949347020976e-08  0.9999999772767948  1.1325196001352091e-07  1.0000
  O   O1        1.0  0.24980747620782873  0.24980761467465415  0.7501924014724501  1.0000
  O   O2        1.0  0.7501925599601302  0.7501923632335055  0.24980750966665383  1.0000
  O   O3        1.0  0.75019252628854  0.249807479224152  0.24980764423674023  1.0000
  O   O4        1.0  0.2498074982579097  0.7501925464027115  0.750192456652012  1.0000
  O   O5        1.0  0.24980750823002568  0.7501923187272903  0.2498076820384453  1.0000
  O   O6        1.0  0.7501924025150424  0.24980749557384194  0.7501924830807729  1.0000
