data_image0
_chemical_formula_structural       Tl2TiTe6
_chemical_formula_sum              "Tl2 Ti1 Te6"
_cell_length_a       7.357723417780635
_cell_length_b       7.3577227132942795
_cell_length_c       7.357722477538124
_cell_angle_alpha    59.99999991631949
_cell_angle_beta     60.00000569684839
_cell_angle_gamma    59.99999413046765

_space_group_name_H-M_alt    "P 1"
_space_group_IT_number       1

loop_
  _space_group_symop_operation_xyz
  'x, y, z'

loop_
  _atom_site_type_symbol
  _atom_site_label
  _atom_site_symmetry_multiplicity
  _atom_site_fract_x
  _atom_site_fract_y
  _atom_site_fract_z
  _atom_site_occupancy
  Tl  Tl1       1.0  0.2500002084173122  0.24999992274735006  0.24999997053787917  1.0000
  Tl  Tl2       1.0  0.7499998392275167  0.7500001677390522  0.749999975761293  1.0000
  Ti  Ti1       1.0  1.1951167309187414e-07  0.9999999051194712  0.9999997321705796  1.0000
  Te  Te1       1.0  0.26411584892990325  0.26411553826122786  0.7358843957322512  1.0000
  Te  Te2       1.0  0.7358840682993302  0.7358845056172016  0.2641157872223725  1.0000
  Te  Te3       1.0  0.7358843183690309  0.2641153999985449  0.2641157364374071  1.0000
  Te  Te4       1.0  0.26411558189904144  0.7358846006010515  0.7358843352891264  1.0000
  Te  Te5       1.0  0.26411552323873067  0.7358846426284983  0.2641154870610473  1.0000
  Te  Te6       1.0  0.7358844783259394  0.2641153130276841  0.7358845891076853  1.0000
