data_image0
_chemical_formula_structural       Tl2TiO6
_chemical_formula_sum              "Tl2 Ti1 O6"
_cell_length_a       5.258806228126383
_cell_length_b       5.258807272860966
_cell_length_c       5.258807372515099
_cell_angle_alpha    60.000006591845
_cell_angle_beta     60.00000816140342
_cell_angle_gamma    60.000006463916655

_space_group_name_H-M_alt    "P 1"
_space_group_IT_number       1

loop_
  _space_group_symop_operation_xyz
  'x, y, z'

loop_
  _atom_site_type_symbol
  _atom_site_label
  _atom_site_symmetry_multiplicity
  _atom_site_fract_x
  _atom_site_fract_y
  _atom_site_fract_z
  _atom_site_occupancy
  Tl  Tl1       1.0  0.2500005627098036  0.2499996655028925  0.2500000889970351  1.0000
  Tl  Tl2       1.0  0.7499997952164704  0.7500004264779786  0.7499998043890623  1.0000
  Ti  Ti1       1.0  0.9999999880203654  1.6768369601169953e-07  0.9999999658841293  1.0000
  O   O1        1.0  0.25740556333343934  0.25740539039098015  0.7425942661344936  1.0000
  O   O2        1.0  0.74259432655275  0.7425941822362246  0.2574057653544632  1.0000
  O   O3        1.0  0.7425942543835393  0.2574056093834207  0.25740555096220497  1.0000
  O   O4        1.0  0.25740528355124753  0.742594610689168  0.7425943784174792  1.0000
  O   O5        1.0  0.25740555393347125  0.7425943778965375  0.25740559166451593  1.0000
  O   O6        1.0  0.7425947420515858  0.2574053926905857  0.7425944667670336  1.0000
