data_image0
_chemical_formula_structural       Tl2TaS6
_chemical_formula_sum              "Tl2 Ta1 S6"
_cell_length_a       6.493282057765528
_cell_length_b       6.49328355058686
_cell_length_c       6.493283992517667
_cell_angle_alpha    59.99999473875926
_cell_angle_beta     59.99999270899354
_cell_angle_gamma    60.000008606595976

_space_group_name_H-M_alt    "P 1"
_space_group_IT_number       1

loop_
  _space_group_symop_operation_xyz
  'x, y, z'

loop_
  _atom_site_type_symbol
  _atom_site_label
  _atom_site_symmetry_multiplicity
  _atom_site_fract_x
  _atom_site_fract_y
  _atom_site_fract_z
  _atom_site_occupancy
  Tl  Tl1       1.0  0.24999997078673036  0.250000002787004  0.24999996212802042  1.0000
  Tl  Tl2       1.0  0.7500000689770039  0.7499999706375821  0.7500000209840229  1.0000
  Ta  Ta1       1.0  0.9999999540200651  0.9999997378221209  0.999999899970205  1.0000
  S   S1        1.0  0.2617153979118615  0.2617155253384386  0.7382843677024373  1.0000
  S   S2        1.0  0.7382846639064237  0.738284659337403  0.2617153324309991  1.0000
  S   S3        1.0  0.7382842918861641  0.2617158182809775  0.26171584244856555  1.0000
  S   S4        1.0  0.26171534428649373  0.7382845550119812  0.738284550638797  1.0000
  S   S5        1.0  0.26171584569694645  0.7382840968051139  0.26171580763721364  1.0000
  S   S6        1.0  0.7382844786164902  0.2617156578235641  0.738284202660001  1.0000
