data_image0
_chemical_formula_structural       Tl2VSe6
_chemical_formula_sum              "Tl2 V1 Se6"
_cell_length_a       6.815973948729318
_cell_length_b       6.815974715218381
_cell_length_c       6.815975164974116
_cell_angle_alpha    59.99999472066003
_cell_angle_beta     59.99999615536163
_cell_angle_gamma    59.99999872267164

_space_group_name_H-M_alt    "P 1"
_space_group_IT_number       1

loop_
  _space_group_symop_operation_xyz
  'x, y, z'

loop_
  _atom_site_type_symbol
  _atom_site_label
  _atom_site_symmetry_multiplicity
  _atom_site_fract_x
  _atom_site_fract_y
  _atom_site_fract_z
  _atom_site_occupancy
  Tl  Tl1       1.0  0.25000000462435557  0.2499999975725555  0.24999997750182515  1.0000
  Tl  Tl2       1.0  0.7500000213512312  0.7499999855301649  0.750000043862898  1.0000
  V   V1        1.0  0.9999995731226928  0.9999997610157375  1.3193239886419943e-07  1.0000
  Se  Se1       1.0  0.2509706700058342  0.2509708703966932  0.7490292476393285  1.0000
  Se  Se2       1.0  0.7490292958744552  0.7490289473935963  0.250970958319195  1.0000
  Se  Se3       1.0  0.7490293587527111  0.25097091243015457  0.2509706463564537  1.0000
  Se  Se4       1.0  0.25097105931375024  0.749029149735035  0.7490290675416686  1.0000
  Se  Se5       1.0  0.25097083865451564  0.7490293741387809  0.25097077351996466  1.0000
  Se  Se6       1.0  0.7490292057270826  0.2509710060731356  0.7490291618598899  1.0000
