data_image0
_chemical_formula_structural       Tl2VS6
_chemical_formula_sum              "Tl2 V1 S6"
_cell_length_a       6.507530819274626
_cell_length_b       6.507530376794064
_cell_length_c       6.5075301566484445
_cell_angle_alpha    60.00000522879136
_cell_angle_beta     59.99999739642553
_cell_angle_gamma    60.00000195994922

_space_group_name_H-M_alt    "P 1"
_space_group_IT_number       1

loop_
  _space_group_symop_operation_xyz
  'x, y, z'

loop_
  _atom_site_type_symbol
  _atom_site_label
  _atom_site_symmetry_multiplicity
  _atom_site_fract_x
  _atom_site_fract_y
  _atom_site_fract_z
  _atom_site_occupancy
  Tl  Tl1       1.0  0.2499999916834766  0.2500000235749553  0.2500000459671615  1.0000
  Tl  Tl2       1.0  0.7500000646872604  0.7499999295716763  0.7499999976980737  1.0000
  V   V1        1.0  0.9999999412324704  0.9999998249700625  1.9065943395088138e-07  1.0000
  S   S1        1.0  0.24462598683792344  0.2446257373772772  0.7553740166402442  1.0000
  S   S2        1.0  0.7553739675120976  0.7553742929330804  0.244625882711999  1.0000
  S   S3        1.0  0.7553742681827769  0.24462600349391073  0.24462575001145537  1.0000
  S   S4        1.0  0.24462586496706185  0.7553742037284392  0.7553740560023524  1.0000
  S   S5        1.0  0.24462580897021688  0.7553741232385542  0.24462588797295462  1.0000
  S   S6        1.0  0.7553742364496481  0.2446258148517316  0.7553740749583292  1.0000
