data_image0
_chemical_formula_structural       Tl2VO6
_chemical_formula_sum              "Tl2 V1 O6"
_cell_length_a       5.291227093260198
_cell_length_b       5.29122312078536
_cell_length_c       5.291221993085894
_cell_angle_alpha    60.00001300630024
_cell_angle_beta     60.00001971598765
_cell_angle_gamma    60.000007604992085

_space_group_name_H-M_alt    "P 1"
_space_group_IT_number       1

loop_
  _space_group_symop_operation_xyz
  'x, y, z'

loop_
  _atom_site_type_symbol
  _atom_site_label
  _atom_site_symmetry_multiplicity
  _atom_site_fract_x
  _atom_site_fract_y
  _atom_site_fract_z
  _atom_site_occupancy
  Tl  Tl1       1.0  0.24999881289155026  0.2500014862254533  0.2499995237389337  1.0000
  Tl  Tl2       1.0  0.749998714282167  0.7500002506024573  0.7500010966357364  1.0000
  V   V1        1.0  1.012265676780417e-06  5.508919532891282e-07  0.9999975893078398  1.0000
  O   O1        1.0  0.25132300478357167  0.25132359833854484  0.7486764743832861  1.0000
  O   O2        1.0  0.7486772537483917  0.7486749789618247  0.2513235511887675  1.0000
  O   O3        1.0  0.7486764228370093  0.2513239240881328  0.25132471721949345  1.0000
  O   O4        1.0  0.2513240600765308  0.7486757804579685  0.7486769968321024  1.0000
  O   O5        1.0  0.25132457876499287  0.7486757494674027  0.25132394422951737  1.0000
  O   O6        1.0  0.7486760743981415  0.2513234574240092  0.7486765878997004  1.0000
