data_image0
_chemical_formula_structural       Tl2WO6
_chemical_formula_sum              "Tl2 W1 O6"
_cell_length_a       5.5426218624025205
_cell_length_b       5.542621242372548
_cell_length_c       5.5426221076831075
_cell_angle_alpha    59.99999521345663
_cell_angle_beta     60.00000310603844
_cell_angle_gamma    59.99998850988991

_space_group_name_H-M_alt    "P 1"
_space_group_IT_number       1

loop_
  _space_group_symop_operation_xyz
  'x, y, z'

loop_
  _atom_site_type_symbol
  _atom_site_label
  _atom_site_symmetry_multiplicity
  _atom_site_fract_x
  _atom_site_fract_y
  _atom_site_fract_z
  _atom_site_occupancy
  Tl  Tl1       1.0  0.2500000164946983  0.250000522021205  0.2499991151438904  1.0000
  Tl  Tl2       1.0  0.7500000554642803  0.7500001231389394  0.7499999240343342  1.0000
  W   W1        1.0  2.684255464948582e-07  3.4471092121699547e-07  0.9999995256411564  1.0000
  O   O1        1.0  0.24839207122197043  0.24839296502768232  0.7516077207147006  1.0000
  O   O2        1.0  0.7516080830122063  0.7516067520645203  0.2483926615020061  1.0000
  O   O3        1.0  0.7516075027841166  0.24839237379135368  0.24839339743316077  1.0000
  O   O4        1.0  0.24839257789565225  0.7516065389753167  0.7516078675567641  1.0000
  O   O5        1.0  0.24839210940872383  0.7516078249176912  0.24839264897689198  1.0000
  O   O6        1.0  0.7516072499749002  0.24839275174225875  0.7516072209639351  1.0000
