data_image0
_chemical_formula_structural       Tl2WTe6
_chemical_formula_sum              "Tl2 W1 Te6"
_cell_length_a       7.35563691635649
_cell_length_b       7.355636709003504
_cell_length_c       7.355638473387953
_cell_angle_alpha    59.99999366918242
_cell_angle_beta     59.99999428678528
_cell_angle_gamma    60.000021103663315

_space_group_name_H-M_alt    "P 1"
_space_group_IT_number       1

loop_
  _space_group_symop_operation_xyz
  'x, y, z'

loop_
  _atom_site_type_symbol
  _atom_site_label
  _atom_site_symmetry_multiplicity
  _atom_site_fract_x
  _atom_site_fract_y
  _atom_site_fract_z
  _atom_site_occupancy
  Tl  Tl1       1.0  0.2500000084451524  0.24999985644656192  0.250000034044065  1.0000
  Tl  Tl2       1.0  0.7500000084400934  0.7500000438768185  0.7499999412863808  1.0000
  W   W1        1.0  0.9999995997074427  3.0137258895584923e-07  0.9999998740843175  1.0000
  Te  Te1       1.0  0.26125059670642786  0.26125044590153434  0.7387495532819807  1.0000
  Te  Te2       1.0  0.7387494163753752  0.7387493245485269  0.26125074583258834  1.0000
  Te  Te3       1.0  0.7387489221067612  0.26125103799258065  0.2612510216806255  1.0000
  Te  Te4       1.0  0.2612512477499744  0.7387487707535001  0.7387487734075836  1.0000
  Te  Te5       1.0  0.26125123120028393  0.7387489242411902  0.2612511562611745  1.0000
  Te  Te6       1.0  0.7387489680639107  0.2612512907752965  0.7387489172060784  1.0000
