data_image0
_chemical_formula_structural       Tl2WS6
_chemical_formula_sum              "Tl2 W1 S6"
_cell_length_a       6.746593567961083
_cell_length_b       6.746592182681193
_cell_length_c       6.746592017228824
_cell_angle_alpha    60.00000487567891
_cell_angle_beta     60.000001553053245
_cell_angle_gamma    60.00000603010559

_space_group_name_H-M_alt    "P 1"
_space_group_IT_number       1

loop_
  _space_group_symop_operation_xyz
  'x, y, z'

loop_
  _atom_site_type_symbol
  _atom_site_label
  _atom_site_symmetry_multiplicity
  _atom_site_fract_x
  _atom_site_fract_y
  _atom_site_fract_z
  _atom_site_occupancy
  Tl  Tl1       1.0  0.24999996692230447  0.2500000089534553  0.25000000851515997  1.0000
  Tl  Tl2       1.0  0.7499998714810485  0.750000006891482  0.7500001094620485  1.0000
  W   W1        1.0  0.9999998302617085  1.6519713560622633e-07  3.932633676777516e-08  1.0000
  S   S1        1.0  0.23882968615899255  0.23883022302094659  0.7611700926319364  1.0000
  S   S2        1.0  0.7611701029392492  0.7611697456247911  0.23882990906991647  1.0000
  S   S3        1.0  0.7611701227494507  0.23882990902417855  0.23883002925984634  1.0000
  S   S4        1.0  0.23883000400695403  0.7611699143933301  0.7611699562674307  1.0000
  S   S5        1.0  0.238830155854796  0.7611699292138532  0.23883007218632976  1.0000
  S   S6        1.0  0.76117024794113  0.23883011567678308  0.761169803414222  1.0000
