data_image0
_chemical_formula_structural       Tl2ZrTe6
_chemical_formula_sum              "Tl2 Zr1 Te6"
_cell_length_a       7.559885854158457
_cell_length_b       7.559885340506983
_cell_length_c       7.559887318418401
_cell_angle_alpha    59.99999322993429
_cell_angle_beta     59.999989738000465
_cell_angle_gamma    60.000011303212865

_space_group_name_H-M_alt    "P 1"
_space_group_IT_number       1

loop_
  _space_group_symop_operation_xyz
  'x, y, z'

loop_
  _atom_site_type_symbol
  _atom_site_label
  _atom_site_symmetry_multiplicity
  _atom_site_fract_x
  _atom_site_fract_y
  _atom_site_fract_z
  _atom_site_occupancy
  Tl  Tl1       1.0  0.24999999107491808  0.24999998601217405  0.2500000422307008  1.0000
  Tl  Tl2       1.0  0.7499999617440396  0.7500000795408257  0.7499999274982668  1.0000
  Zr  Zr1       1.0  1.7405812171230468e-07  0.9999993357765059  1.2993311894205037e-06  1.0000
  Te  Te1       1.0  0.2695674738817958  0.2695671917045326  0.7304326501745741  1.0000
  Te  Te2       1.0  0.7304329962164458  0.7304329807723666  0.2695670921101347  1.0000
  Te  Te3       1.0  0.7304326257563842  0.2695672895505627  0.26956763946933976  1.0000
  Te  Te4       1.0  0.26956777685300004  0.7304322835050489  0.7304322431458632  1.0000
  Te  Te5       1.0  0.26956714687618816  0.7304327837436781  0.2695672734910386  1.0000
  Te  Te6       1.0  0.7304318541867376  0.26956806591691884  0.7304318408947479  1.0000
