data_image0
_chemical_formula_structural       Tl2ZrS6
_chemical_formula_sum              "Tl2 Zr1 S6"
_cell_length_a       6.668573733966143
_cell_length_b       6.668573171411671
_cell_length_c       6.668573575201525
_cell_angle_alpha    59.999994962389735
_cell_angle_beta     60.00000136048377
_cell_angle_gamma    59.99999701747811

_space_group_name_H-M_alt    "P 1"
_space_group_IT_number       1

loop_
  _space_group_symop_operation_xyz
  'x, y, z'

loop_
  _atom_site_type_symbol
  _atom_site_label
  _atom_site_symmetry_multiplicity
  _atom_site_fract_x
  _atom_site_fract_y
  _atom_site_fract_z
  _atom_site_occupancy
  Tl  Tl1       1.0  0.24999999514887286  0.2500000043332609  0.2499999914689912  1.0000
  Tl  Tl2       1.0  0.7499999467041553  0.7500000772805101  0.7499999511408424  1.0000
  Zr  Zr1       1.0  0.9999999674845547  4.040501374960651e-08  3.9494111888285126e-07  1.0000
  S   S1        1.0  0.26659796969382277  0.26659798808201596  0.7334018984057308  1.0000
  S   S2        1.0  0.7334018544675023  0.733401999865554  0.26659807790364526  1.0000
  S   S3        1.0  0.7334022314481603  0.2665979746340598  0.26659776421707576  1.0000
  S   S4        1.0  0.2665980216317571  0.7334020096403268  0.733402065450725  1.0000
  S   S5        1.0  0.2665978109702408  0.7334020101800891  0.26659795445315715  1.0000
  S   S6        1.0  0.733402203593193  0.2665979208331238  0.7334019581214875  1.0000
