data_image0
_chemical_formula_structural       Tl2ZrO6
_chemical_formula_sum              "Tl2 Zr1 O6"
_cell_length_a       5.466175303196282
_cell_length_b       5.466174523174967
_cell_length_c       5.466175138448558
_cell_angle_alpha    59.999998022404476
_cell_angle_beta     59.99999794373931
_cell_angle_gamma    60.00000329659284

_space_group_name_H-M_alt    "P 1"
_space_group_IT_number       1

loop_
  _space_group_symop_operation_xyz
  'x, y, z'

loop_
  _atom_site_type_symbol
  _atom_site_label
  _atom_site_symmetry_multiplicity
  _atom_site_fract_x
  _atom_site_fract_y
  _atom_site_fract_z
  _atom_site_occupancy
  Tl  Tl1       1.0  0.24999980665842292  0.24999997280750177  0.2499999798784854  1.0000
  Tl  Tl2       1.0  0.7499998644421445  0.7499999475501952  0.7499997522328488  1.0000
  Zr  Zr1       1.0  0.9999999592705261  0.9999997356105392  4.3063324793021e-07  1.0000
  O   O1        1.0  0.26847431787726533  0.2684743495268572  0.7315256968588417  1.0000
  O   O2        1.0  0.7315257452558689  0.7315260234298089  0.26847429348571666  1.0000
  O   O3        1.0  0.7315256575007822  0.2684743274234572  0.2684746119367236  1.0000
  O   O4        1.0  0.2684748036184768  0.7315252254777782  0.7315256150545268  1.0000
  O   O5        1.0  0.2684742156740314  0.7315256568479119  0.268474566019353  1.0000
  O   O6        1.0  0.7315255589069053  0.2684747452363733  0.7315252027864072  1.0000
