data_image0
_chemical_formula_structural       V2AuO6
_chemical_formula_sum              "V2 Au1 O6"
_cell_length_a       5.12715472981922
_cell_length_b       5.127154651944718
_cell_length_c       5.12715471743262
_cell_angle_alpha    59.9999997689951
_cell_angle_beta     59.99999981599151
_cell_angle_gamma    59.99999908054709

_space_group_name_H-M_alt    "P 1"
_space_group_IT_number       1

loop_
  _space_group_symop_operation_xyz
  'x, y, z'

loop_
  _atom_site_type_symbol
  _atom_site_label
  _atom_site_symmetry_multiplicity
  _atom_site_fract_x
  _atom_site_fract_y
  _atom_site_fract_z
  _atom_site_occupancy
  V   V1        1.0  0.24999984658719995  0.2500000205879936  0.25000011138515194  1.0000
  V   V2        1.0  0.7499998539196344  0.7500002003110048  0.7500000063821521  1.0000
  Au  Au1       1.0  3.419175362965938e-08  0.9999999785013235  6.581824283119489e-08  1.0000
  O   O1        1.0  0.26827007276813597  0.2682697645470196  0.7317300680435577  1.0000
  O   O2        1.0  0.7317300687069862  0.731730086096992  0.268269910995921  1.0000
  O   O3        1.0  0.7317301377018184  0.2682699020057107  0.26826994693983763  1.0000
  O   O4        1.0  0.26826991928135585  0.7317301277939389  0.731730025726186  1.0000
  O   O5        1.0  0.268269933107155  0.7317300427195649  0.2682698829554903  1.0000
  O   O6        1.0  0.7317301294966306  0.26826988914166905  0.7317299798374752  1.0000
