data_image0
_chemical_formula_structural       V2AuS6
_chemical_formula_sum              "V2 Au1 S6"
_cell_length_a       6.198754663601863
_cell_length_b       6.198754535224812
_cell_length_c       6.198754649373841
_cell_angle_alpha    60.00000019763703
_cell_angle_beta     59.999998679438434
_cell_angle_gamma    59.99999919792629

_space_group_name_H-M_alt    "P 1"
_space_group_IT_number       1

loop_
  _space_group_symop_operation_xyz
  'x, y, z'

loop_
  _atom_site_type_symbol
  _atom_site_label
  _atom_site_symmetry_multiplicity
  _atom_site_fract_x
  _atom_site_fract_y
  _atom_site_fract_z
  _atom_site_occupancy
  V   V1        1.0  0.24999999350458257  0.24999996060180546  0.2500000775394992  1.0000
  V   V2        1.0  0.749999953378876  0.7500000023287178  0.7500000584793298  1.0000
  Au  Au1       1.0  2.0942728880764142e-08  0.9999999762904973  0.9999999755717504  1.0000
  S   S1        1.0  0.2675308058545964  0.2675307697535554  0.7324692966057005  1.0000
  S   S2        1.0  0.7324691862621404  0.7324692307170129  0.26753079480001235  1.0000
  S   S3        1.0  0.732469206099905  0.2675307784483631  0.26753081049331956  1.0000
  S   S4        1.0  0.2675308071855581  0.7324691864579496  0.7324691429197038  1.0000
  S   S5        1.0  0.26753084467693033  0.7324691718489731  0.2675307586892023  1.0000
  S   S6        1.0  0.7324692138030363  0.26753089777430733  0.7324691052490401  1.0000
