data_image0
_chemical_formula_structural       V2BeSe6
_chemical_formula_sum              "V2 Be1 Se6"
_cell_length_a       6.054290934398771
_cell_length_b       6.054291010916398
_cell_length_c       6.054291456885113
_cell_angle_alpha    60.000000439458496
_cell_angle_beta     59.9999974953119
_cell_angle_gamma    59.999996834202975

_space_group_name_H-M_alt    "P 1"
_space_group_IT_number       1

loop_
  _space_group_symop_operation_xyz
  'x, y, z'

loop_
  _atom_site_type_symbol
  _atom_site_label
  _atom_site_symmetry_multiplicity
  _atom_site_fract_x
  _atom_site_fract_y
  _atom_site_fract_z
  _atom_site_occupancy
  V   V1        1.0  0.24999956871614815  0.24999982967846338  0.25000037817955467  1.0000
  V   V2        1.0  0.7500000333283148  0.7500001363751444  0.7499998648345879  1.0000
  Be  Be1       1.0  4.1189197022085066e-08  0.9999999737018185  0.9999999842958871  1.0000
  Se  Se1       1.0  0.23394698404286735  0.23394692513671203  0.766053104483978  1.0000
  Se  Se2       1.0  0.766053144344603  0.7660529438159096  0.2339470692605962  1.0000
  Se  Se3       1.0  0.7660530957526401  0.2339469401310687  0.23394695912436422  1.0000
  Se  Se4       1.0  0.23394689829468407  0.7660532059639067  0.7660528987644123  1.0000
  Se  Se5       1.0  0.23394695057258436  0.7660531407680922  0.23394691347492144  1.0000
  Se  Se6       1.0  0.7660532777979867  0.23394688597359578  0.7660528423324079  1.0000
