data_image0
_chemical_formula_structural       V2BeTe6
_chemical_formula_sum              "V2 Be1 Te6"
_cell_length_a       6.851816311617975
_cell_length_b       6.8518161626731215
_cell_length_c       6.851816217003098
_cell_angle_alpha    59.99999945959872
_cell_angle_beta     60.000000748897214
_cell_angle_gamma    60.000000353376564

_space_group_name_H-M_alt    "P 1"
_space_group_IT_number       1

loop_
  _space_group_symop_operation_xyz
  'x, y, z'

loop_
  _atom_site_type_symbol
  _atom_site_label
  _atom_site_symmetry_multiplicity
  _atom_site_fract_x
  _atom_site_fract_y
  _atom_site_fract_z
  _atom_site_occupancy
  V   V1        1.0  0.2500000819626528  0.2499998808401211  0.2500000115464329  1.0000
  V   V2        1.0  0.7499998894914588  0.7500001859127021  0.7499999236277728  1.0000
  Be  Be1       1.0  0.9999999881361203  0.9999999445882807  5.4070338271407464e-08  1.0000
  Te  Te1       1.0  0.24490370718384555  0.24490356990685586  0.7550963502422225  1.0000
  Te  Te2       1.0  0.7550963515292974  0.7550964575215224  0.24490358577563004  1.0000
  Te  Te3       1.0  0.7550963571083283  0.24490356165701335  0.24490368897105577  1.0000
  Te  Te4       1.0  0.2449036963796972  0.7550964157220699  0.7550963505762898  1.0000
  Te  Te5       1.0  0.24490359423089658  0.7550964143187263  0.2449036418803072  1.0000
  Te  Te6       1.0  0.7550963384129172  0.24490356663530577  0.7550963964635203  1.0000
