data_image0
_chemical_formula_structural       V2BeS6
_chemical_formula_sum              "V2 Be1 S6"
_cell_length_a       5.5979215872656
_cell_length_b       5.597922311967475
_cell_length_c       5.5979218789279175
_cell_angle_alpha    59.99999593011574
_cell_angle_beta     59.99999589422196
_cell_angle_gamma    59.999994885378

_space_group_name_H-M_alt    "P 1"
_space_group_IT_number       1

loop_
  _space_group_symop_operation_xyz
  'x, y, z'

loop_
  _atom_site_type_symbol
  _atom_site_label
  _atom_site_symmetry_multiplicity
  _atom_site_fract_x
  _atom_site_fract_y
  _atom_site_fract_z
  _atom_site_occupancy
  V   V1        1.0  0.24999992578740662  0.2499999105111925  0.2499998719923853  1.0000
  V   V2        1.0  0.7499999214172601  0.7499998934348852  0.7500001614724557  1.0000
  Be  Be1       1.0  5.181852480504319e-08  0.9999999868728611  0.9999999627905348  1.0000
  S   S1        1.0  0.25529774147481865  0.2552975894450522  0.7447025192060865  1.0000
  S   S2        1.0  0.7447023694232839  0.7447023764023661  0.2552974104303623  1.0000
  S   S3        1.0  0.7447023990582894  0.255297635157895  0.25529761383333155  1.0000
  S   S4        1.0  0.25529762695318825  0.7447024553973268  0.7447023905705148  1.0000
  S   S5        1.0  0.25529757351149795  0.744702347745814  0.25529772427476666  1.0000
  S   S6        1.0  0.7447023820954081  0.2552977931301013  0.7447023419759563  1.0000
