data_image0
_chemical_formula_structural       V2BeO6
_chemical_formula_sum              "V2 Be1 O6"
_cell_length_a       4.790562108520777
_cell_length_b       4.790561938569212
_cell_length_c       4.790561854751186
_cell_angle_alpha    60.00000375233557
_cell_angle_beta     60.00000169687908
_cell_angle_gamma    60.000006390941984

_space_group_name_H-M_alt    "P 1"
_space_group_IT_number       1

loop_
  _space_group_symop_operation_xyz
  'x, y, z'

loop_
  _atom_site_type_symbol
  _atom_site_label
  _atom_site_symmetry_multiplicity
  _atom_site_fract_x
  _atom_site_fract_y
  _atom_site_fract_z
  _atom_site_occupancy
  V   V1        1.0  0.24999944495876858  0.25000059065163543  0.24999946886189833  1.0000
  V   V2        1.0  0.7499995342282739  0.7499995911935384  0.750001594260007  1.0000
  Be  Be1       1.0  1.3142547469813263e-07  1.7896062846616164e-08  7.980963036430827e-08  1.0000
  O   O1        1.0  0.24509162331223427  0.24509188811773056  0.7549084745121367  1.0000
  O   O2        1.0  0.7549081940555318  0.754907905127507  0.24509132636276823  1.0000
  O   O3        1.0  0.7549083272390442  0.2450922978996304  0.24509129147810502  1.0000
  O   O4        1.0  0.24509201451041862  0.7549078890587458  0.7549082778801138  1.0000
  O   O5        1.0  0.24509241940677098  0.7549080419014444  0.24509142549578214  1.0000
  O   O6        1.0  0.7549082861451497  0.24509168998595937  0.754908062162976  1.0000
