data_image0
_chemical_formula_structural       V2CN6
_chemical_formula_sum              "V2 C1 N6"
_cell_length_a       4.6832007891749265
_cell_length_b       4.68320089766466
_cell_length_c       4.683200641790533
_cell_angle_alpha    59.999998449563186
_cell_angle_beta     59.99999849878316
_cell_angle_gamma    59.99999732428453

_space_group_name_H-M_alt    "P 1"
_space_group_IT_number       1

loop_
  _space_group_symop_operation_xyz
  'x, y, z'

loop_
  _atom_site_type_symbol
  _atom_site_label
  _atom_site_symmetry_multiplicity
  _atom_site_fract_x
  _atom_site_fract_y
  _atom_site_fract_z
  _atom_site_occupancy
  V   V1        1.0  0.2500000044464071  0.24999996415634884  0.2500000385246952  1.0000
  V   V2        1.0  0.7499999063174134  0.7500001173751877  0.7499999071614882  1.0000
  C   C1        1.0  3.678821935709939e-07  0.9999996286433543  0.9999998800255949  1.0000
  N   N1        1.0  0.2413129463393127  0.24131282776874405  0.7586871338329432  1.0000
  N   N2        1.0  0.7586871066102103  0.7586871674615945  0.24131290775791275  1.0000
  N   N3        1.0  0.7586870492952761  0.2413128728927369  0.24131300168527345  1.0000
  N   N4        1.0  0.24131275903192706  0.7586872792488598  0.7586872310962494  1.0000
  N   N5        1.0  0.24131275365681243  0.7586871945953154  0.24131284880574866  1.0000
  N   N6        1.0  0.7586870523800004  0.2413129052425384  0.7586870845731942  1.0000
