data_image0
_chemical_formula_structural       V2CoN6
_chemical_formula_sum              "V2 Co1 N6"
_cell_length_a       4.751044357062777
_cell_length_b       4.751044592161279
_cell_length_c       4.751044515833526
_cell_angle_alpha    60.00000143980088
_cell_angle_beta     59.99999934833159
_cell_angle_gamma    60.00000245969791

_space_group_name_H-M_alt    "P 1"
_space_group_IT_number       1

loop_
  _space_group_symop_operation_xyz
  'x, y, z'

loop_
  _atom_site_type_symbol
  _atom_site_label
  _atom_site_symmetry_multiplicity
  _atom_site_fract_x
  _atom_site_fract_y
  _atom_site_fract_z
  _atom_site_occupancy
  V   V1        1.0  0.25000002744792993  0.25000015086525473  0.24999995384670978  1.0000
  V   V2        1.0  0.7499999435449489  0.7500001690330018  0.7500000979785324  1.0000
  Co  Co1       1.0  0.9999999802618287  1.546705929409945e-08  0.9999999831923532  1.0000
  N   N1        1.0  0.2608418156332552  0.26084158712123334  0.7391583000801392  1.0000
  N   N2        1.0  0.7391583943575645  0.7391583074328824  0.26084156918935947  1.0000
  N   N3        1.0  0.7391582537280948  0.2608416705665222  0.2608416882528186  1.0000
  N   N4        1.0  0.26084155062783443  0.7391582961672015  0.7391584592987369  1.0000
  N   N5        1.0  0.2608416613132242  0.7391583075290522  0.2608416086877837  1.0000
  N   N6        1.0  0.7391583259893615  0.2608414968005457  0.7391583791516837  1.0000
