data_image0
_chemical_formula_structural       V2CoSe6
_chemical_formula_sum              "V2 Co1 Se6"
_cell_length_a       6.139256373624233
_cell_length_b       6.139256347586973
_cell_length_c       6.1392568521731565
_cell_angle_alpha    59.99999917807135
_cell_angle_beta     60.000000115446966
_cell_angle_gamma    59.99999631696228

_space_group_name_H-M_alt    "P 1"
_space_group_IT_number       1

loop_
  _space_group_symop_operation_xyz
  'x, y, z'

loop_
  _atom_site_type_symbol
  _atom_site_label
  _atom_site_symmetry_multiplicity
  _atom_site_fract_x
  _atom_site_fract_y
  _atom_site_fract_z
  _atom_site_occupancy
  V   V1        1.0  0.25000018526916146  0.25000013088531753  0.24999976490442613  1.0000
  V   V2        1.0  0.7499997803899241  0.7500001233390657  0.7500002927080819  1.0000
  Co  Co1       1.0  0.9999999656883716  2.3939282696607e-08  0.9999999726089397  1.0000
  Se  Se1       1.0  0.2627294456376888  0.26272936840568345  0.7372706180284919  1.0000
  Se  Se2       1.0  0.737270593778821  0.7372705686232099  0.2627292909120133  1.0000
  Se  Se3       1.0  0.73727060325286  0.2627294042488734  0.2627293359769118  1.0000
  Se  Se4       1.0  0.26272946063424807  0.7372704988660381  0.7372707128808015  1.0000
  Se  Se5       1.0  0.26272945558358846  0.7372705712950739  0.2627293527493515  1.0000
  Se  Se6       1.0  0.7372705293274959  0.26272929790585703  0.7372706759968647  1.0000
