data_image0
_chemical_formula_structural       V2CoS6
_chemical_formula_sum              "V2 Co1 S6"
_cell_length_a       5.88459314991357
_cell_length_b       5.884593199712265
_cell_length_c       5.88459320235386
_cell_angle_alpha    60.0000002192053
_cell_angle_beta     59.99999963494213
_cell_angle_gamma    59.99999944046113

_space_group_name_H-M_alt    "P 1"
_space_group_IT_number       1

loop_
  _space_group_symop_operation_xyz
  'x, y, z'

loop_
  _atom_site_type_symbol
  _atom_site_label
  _atom_site_symmetry_multiplicity
  _atom_site_fract_x
  _atom_site_fract_y
  _atom_site_fract_z
  _atom_site_occupancy
  V   V1        1.0  0.24999987255942832  0.24999998511527147  0.2500000831675699  1.0000
  V   V2        1.0  0.7499999320521193  0.7500000365154841  0.7500001944765936  1.0000
  Co  Co1       1.0  1.093313384499619e-07  0.9999999604557995  0.9999998223607948  1.0000
  S   S1        1.0  0.2576945795291274  0.25769438230616487  0.7423055139032676  1.0000
  S   S2        1.0  0.742305486914457  0.7423055602361895  0.25769447014609315  1.0000
  S   S3        1.0  0.7423055083137929  0.25769462099719387  0.2576943735223393  1.0000
  S   S4        1.0  0.25769435518198186  0.742305571297999  0.742305602418683  1.0000
  S   S5        1.0  0.25769456659268913  0.7423054679010898  0.25769438465975175  1.0000
  S   S6        1.0  0.7423056105901717  0.2576943955528654  0.7423055427797028  1.0000
