data_image0
_chemical_formula_structural       V2CoO6
_chemical_formula_sum              "V2 Co1 O6"
_cell_length_a       4.94286697834929
_cell_length_b       4.942866851680739
_cell_length_c       4.942866778242944
_cell_angle_alpha    59.99999966535164
_cell_angle_beta     60.00000056783665
_cell_angle_gamma    59.999999456231336

_space_group_name_H-M_alt    "P 1"
_space_group_IT_number       1

loop_
  _space_group_symop_operation_xyz
  'x, y, z'

loop_
  _atom_site_type_symbol
  _atom_site_label
  _atom_site_symmetry_multiplicity
  _atom_site_fract_x
  _atom_site_fract_y
  _atom_site_fract_z
  _atom_site_occupancy
  V   V1        1.0  0.25000004588034097  0.24999992153053854  0.2500000458239316  1.0000
  V   V2        1.0  0.7499998209643787  0.7500001189174017  0.7500000781848746  1.0000
  Co  Co1       1.0  0.9999999804853077  2.47780207995017e-09  1.056280825111522e-07  1.0000
  O   O1        1.0  0.2580787749224894  0.25807859824458307  0.7419213005405716  1.0000
  O   O2        1.0  0.7419213016768631  0.7419213455690531  0.2580785969662045  1.0000
  O   O3        1.0  0.7419213479190886  0.2580786714023235  0.25807863958610905  1.0000
  O   O4        1.0  0.2580787447251966  0.7419213294007745  0.7419212557964656  1.0000
  O   O5        1.0  0.2580787305261526  0.7419213622553767  0.2580786330025515  1.0000
  O   O6        1.0  0.741921281840665  0.2580786831481698  0.7419212680798284  1.0000
