data_image0
_chemical_formula_structural       V2CO6
_chemical_formula_sum              "V2 C1 O6"
_cell_length_a       4.542081971762117
_cell_length_b       4.54208176944665
_cell_length_c       4.542082818911951
_cell_angle_alpha    59.99999446587962
_cell_angle_beta     59.99999510588575
_cell_angle_gamma    59.99999931981331

_space_group_name_H-M_alt    "P 1"
_space_group_IT_number       1

loop_
  _space_group_symop_operation_xyz
  'x, y, z'

loop_
  _atom_site_type_symbol
  _atom_site_label
  _atom_site_symmetry_multiplicity
  _atom_site_fract_x
  _atom_site_fract_y
  _atom_site_fract_z
  _atom_site_occupancy
  V   V1        1.0  0.24999841755270977  0.2500006605594437  0.2500011059322842  1.0000
  V   V2        1.0  0.7500002473935652  0.7499957529029205  0.7500007446503876  1.0000
  C   C1        1.0  0.9999998293978576  0.9999994364441099  3.979018693892067e-07  1.0000
  O   O1        1.0  0.2333402769996666  0.23334147483396983  0.7666587626188469  1.0000
  O   O2        1.0  0.7666596972180104  0.7666595603259948  0.23334078737261388  1.0000
  O   O3        1.0  0.7666598660318031  0.2333418368906044  0.2333396584465648  1.0000
  O   O4        1.0  0.23334108855589364  0.766659513752839  0.7666593074655221  1.0000
  O   O5        1.0  0.23334063514619968  0.7666594577329577  0.2333404932470177  1.0000
  O   O6        1.0  0.76665975600965  0.23334233243012867  0.7666588340432782  1.0000
