data_image0
_chemical_formula_structural       V2CrN6
_chemical_formula_sum              "V2 Cr1 N6"
_cell_length_a       4.624085387315376
_cell_length_b       4.624083680690286
_cell_length_c       4.624086040500091
_cell_angle_alpha    59.999996064269396
_cell_angle_beta     59.99999780024283
_cell_angle_gamma    59.99999770745261

_space_group_name_H-M_alt    "P 1"
_space_group_IT_number       1

loop_
  _space_group_symop_operation_xyz
  'x, y, z'

loop_
  _atom_site_type_symbol
  _atom_site_label
  _atom_site_symmetry_multiplicity
  _atom_site_fract_x
  _atom_site_fract_y
  _atom_site_fract_z
  _atom_site_occupancy
  V   V1        1.0  0.2500002060479705  0.24999889485988716  0.25000089816623017  1.0000
  V   V2        1.0  0.7499994116274331  0.7500006787013018  0.7500000853211689  1.0000
  Cr  Cr1       1.0  0.9999997476675079  0.9999997007055663  0.9999992831848403  1.0000
  N   N1        1.0  0.280664648779693  0.28066379944302594  0.719335975005062  1.0000
  N   N2        1.0  0.7193364061121343  0.7193359648189432  0.2806634678937024  1.0000
  N   N3        1.0  0.7193354874951582  0.2806640700280802  0.28066459416000544  1.0000
  N   N4        1.0  0.2806633201394984  0.7193374317298251  0.7193358129488663  1.0000
  N   N5        1.0  0.28066446419096963  0.7193358246555656  0.28066384800146243  1.0000
  N   N6        1.0  0.719336341267931  0.28066370652768885  0.719336080525711  1.0000
