data_image0
_chemical_formula_structural       V2CS6
_chemical_formula_sum              "V2 C1 S6"
_cell_length_a       5.784371759588877
_cell_length_b       5.784371709884862
_cell_length_c       5.784371456485311
_cell_angle_alpha    60.00000133520628
_cell_angle_beta     60.00000087535622
_cell_angle_gamma    60.00000143005136

_space_group_name_H-M_alt    "P 1"
_space_group_IT_number       1

loop_
  _space_group_symop_operation_xyz
  'x, y, z'

loop_
  _atom_site_type_symbol
  _atom_site_label
  _atom_site_symmetry_multiplicity
  _atom_site_fract_x
  _atom_site_fract_y
  _atom_site_fract_z
  _atom_site_occupancy
  V   V1        1.0  0.24999999041937385  0.2500000688325655  0.2499999982309527  1.0000
  V   V2        1.0  0.7499999980396993  0.7499999884122655  0.7500001335646922  1.0000
  C   C1        1.0  0.9999983137674344  0.9999995850024611  0.9999984038279207  1.0000
  S   S1        1.0  0.23957166410458816  0.2395716436387081  0.7604283346033718  1.0000
  S   S2        1.0  0.7604294900623983  0.7604293960492393  0.23957048800045247  1.0000
  S   S3        1.0  0.7604283118407122  0.23957172383439845  0.23957155574926686  1.0000
  S   S4        1.0  0.23957052275194643  0.7604294174855765  0.7604293750699868  1.0000
  S   S5        1.0  0.23957202935678462  0.7604279893862588  0.2395719198187902  1.0000
  S   S6        1.0  0.760429679631897  0.23957023001243313  0.7604297452983584  1.0000
