data_image0
_chemical_formula_structural       V2CuO6
_chemical_formula_sum              "V2 Cu1 O6"
_cell_length_a       4.99136337120377
_cell_length_b       4.991363341571265
_cell_length_c       4.991363490256323
_cell_angle_alpha    59.99999999138152
_cell_angle_beta     59.99999983795039
_cell_angle_gamma    59.99999984243724

_space_group_name_H-M_alt    "P 1"
_space_group_IT_number       1

loop_
  _space_group_symop_operation_xyz
  'x, y, z'

loop_
  _atom_site_type_symbol
  _atom_site_label
  _atom_site_symmetry_multiplicity
  _atom_site_fract_x
  _atom_site_fract_y
  _atom_site_fract_z
  _atom_site_occupancy
  V   V1        1.0  0.2499998547679081  0.2500000766857323  0.2500000963796453  1.0000
  V   V2        1.0  0.7500000637890601  0.7500001196394287  0.7499999243110043  1.0000
  Cu  Cu1       1.0  3.811292480756058e-08  0.9999999828239033  2.759733705079402e-08  1.0000
  O   O1        1.0  0.2554539525490337  0.25545399240312144  0.7445459945064371  1.0000
  O   O2        1.0  0.7445459929308442  0.7445460051700592  0.2554540640156923  1.0000
  O   O3        1.0  0.7445460604574541  0.2554539434982602  0.25545396052800123  1.0000
  O   O4        1.0  0.2554539895462851  0.7445460319913666  0.744546008690921  1.0000
  O   O5        1.0  0.2554539560491331  0.7445459982896426  0.255453984626044  1.0000
  O   O6        1.0  0.7445460829970989  0.25545386432848843  0.7445459383205074  1.0000
