data_image0
_chemical_formula_structural       V2CuTe6
_chemical_formula_sum              "V2 Cu1 Te6"
_cell_length_a       6.9211807749440775
_cell_length_b       6.9211808189242285
_cell_length_c       6.921180902679205
_cell_angle_alpha    59.99999968424347
_cell_angle_beta     59.99999864326188
_cell_angle_gamma    59.999998977742024

_space_group_name_H-M_alt    "P 1"
_space_group_IT_number       1

loop_
  _space_group_symop_operation_xyz
  'x, y, z'

loop_
  _atom_site_type_symbol
  _atom_site_label
  _atom_site_symmetry_multiplicity
  _atom_site_fract_x
  _atom_site_fract_y
  _atom_site_fract_z
  _atom_site_occupancy
  V   V1        1.0  0.2500000148133243  0.25000012662990767  0.24999990760691135  1.0000
  V   V2        1.0  0.7499999619388691  0.7499999817385932  0.7500000989618242  1.0000
  Cu  Cu1       1.0  4.592175796013468e-08  1.2386923559482074e-08  0.9999999361694956  1.0000
  Te  Te1       1.0  0.2618289276802332  0.2618289614020976  0.7381710739901826  1.0000
  Te  Te2       1.0  0.7381710576856099  0.7381710160189198  0.2618289388415443  1.0000
  Te  Te3       1.0  0.7381710681154069  0.26182893702296767  0.26182890155668637  1.0000
  Te  Te4       1.0  0.2618289308170677  0.7381709996981562  0.7381711262865114  1.0000
  Te  Te5       1.0  0.2618289608829428  0.7381710403678513  0.2618288963773609  1.0000
  Te  Te6       1.0  0.7381710391106724  0.2618289282053629  0.7381711193437419  1.0000
