data_image0
_chemical_formula_structural       V2FeN6
_chemical_formula_sum              "V2 Fe1 N6"
_cell_length_a       4.995687325907001
_cell_length_b       4.995510254735127
_cell_length_c       4.995631703523432
_cell_angle_alpha    60.002201215911505
_cell_angle_beta     60.00025962541902
_cell_angle_gamma    60.001378219726135

_space_group_name_H-M_alt    "P 1"
_space_group_IT_number       1

loop_
  _space_group_symop_operation_xyz
  'x, y, z'

loop_
  _atom_site_type_symbol
  _atom_site_label
  _atom_site_symmetry_multiplicity
  _atom_site_fract_x
  _atom_site_fract_y
  _atom_site_fract_z
  _atom_site_occupancy
  V   V1        1.0  0.250023438492016  0.25001180688103347  0.24996477021429078  1.0000
  V   V2        1.0  0.7500171134622585  0.7500104245728797  0.7499707117506021  1.0000
  Fe  Fe1       1.0  8.042027780246685e-06  0.9999957679880651  0.9999816725418064  1.0000
  N   N1        1.0  0.2689399013901384  0.268929812101712  0.7310513150924223  1.0000
  N   N2        1.0  0.7310748039052162  0.7310779009413656  0.2689161494082723  1.0000
  N   N3        1.0  0.7310747298405866  0.2689267939555422  0.26893018700048854  1.0000
  N   N4        1.0  0.26895271374499236  0.7310598379822427  0.7310524119968944  1.0000
  N   N5        1.0  0.2689320756297216  0.7310731922663114  0.26890513960716617  1.0000
  N   N6        1.0  0.7310949611275763  0.2689174894287793  0.7310658214416745  1.0000
