data_image0
_chemical_formula_structural       V2FeS6
_chemical_formula_sum              "V2 Fe1 S6"
_cell_length_a       5.853265412186581
_cell_length_b       5.8532649335218805
_cell_length_c       5.853265442021723
_cell_angle_alpha    60.000002936710125
_cell_angle_beta     60.00000076373819
_cell_angle_gamma    60.00000124434236

_space_group_name_H-M_alt    "P 1"
_space_group_IT_number       1

loop_
  _space_group_symop_operation_xyz
  'x, y, z'

loop_
  _atom_site_type_symbol
  _atom_site_label
  _atom_site_symmetry_multiplicity
  _atom_site_fract_x
  _atom_site_fract_y
  _atom_site_fract_z
  _atom_site_occupancy
  V   V1        1.0  0.24999986108778127  0.25000017581249734  0.24999998215779906  1.0000
  V   V2        1.0  0.7500000217227102  0.7499998453107926  0.7499996753639827  1.0000
  Fe  Fe1       1.0  0.9999999548867122  0.9999999518744906  0.9999999372787202  1.0000
  S   S1        1.0  0.2590891460822495  0.2590892647188609  0.7409107562035508  1.0000
  S   S2        1.0  0.7409108204177078  0.7409109196126904  0.2590893638670601  1.0000
  S   S3        1.0  0.7409109356264221  0.25908916937915133  0.2590892543402177  1.0000
  S   S4        1.0  0.25908916671965254  0.7409106843511282  0.7409109784839893  1.0000
  S   S5        1.0  0.2590892688501945  0.7409106898824463  0.25908919660481144  1.0000
  S   S6        1.0  0.7409108813579909  0.25908927474572035  0.7409108082044206  1.0000
