data_image0
_chemical_formula_structural       V2FeO6
_chemical_formula_sum              "V2 Fe1 O6"
_cell_length_a       5.052764560904976
_cell_length_b       5.0527646159330315
_cell_length_c       5.0527645550356075
_cell_angle_alpha    59.99999955392893
_cell_angle_beta     59.99999935173084
_cell_angle_gamma    60.000000670944026

_space_group_name_H-M_alt    "P 1"
_space_group_IT_number       1

loop_
  _space_group_symop_operation_xyz
  'x, y, z'

loop_
  _atom_site_type_symbol
  _atom_site_label
  _atom_site_symmetry_multiplicity
  _atom_site_fract_x
  _atom_site_fract_y
  _atom_site_fract_z
  _atom_site_occupancy
  V   V1        1.0  0.2500000601268777  0.25000002101259744  0.25000002233881047  1.0000
  V   V2        1.0  0.750000039180211  0.7499999176031656  0.750000400328957  1.0000
  Fe  Fe1       1.0  0.9999999783472164  1.6967372598051767e-08  4.321820046037051e-09  1.0000
  O   O1        1.0  0.24735405323824108  0.24735417628274162  0.7526458200274877  1.0000
  O   O2        1.0  0.7526459173284284  0.7526459223111114  0.2473539556838928  1.0000
  O   O3        1.0  0.7526458823147157  0.24735418517840763  0.24735403770355538  1.0000
  O   O4        1.0  0.24735398760836985  0.7526458382742212  0.7526459129812717  1.0000
  O   O5        1.0  0.24735425984594026  0.7526458684649504  0.24735394929674737  1.0000
  O   O6        1.0  0.7526458141843937  0.24735407742254753  0.7526459321796768  1.0000
