data_image0
_chemical_formula_structural       V2FeTe6
_chemical_formula_sum              "V2 Fe1 Te6"
_cell_length_a       6.853535210364191
_cell_length_b       6.853535369362015
_cell_length_c       6.8535354765459715
_cell_angle_alpha    59.99999926190429
_cell_angle_beta     59.99999929959139
_cell_angle_gamma    59.99999990704024

_space_group_name_H-M_alt    "P 1"
_space_group_IT_number       1

loop_
  _space_group_symop_operation_xyz
  'x, y, z'

loop_
  _atom_site_type_symbol
  _atom_site_label
  _atom_site_symmetry_multiplicity
  _atom_site_fract_x
  _atom_site_fract_y
  _atom_site_fract_z
  _atom_site_occupancy
  V   V1        1.0  0.2500001046563883  0.2500000561559884  0.24999993804200407  1.0000
  V   V2        1.0  0.7500000483480073  0.7500000201447732  0.7499998518424781  1.0000
  Fe  Fe1       1.0  5.335378389860808e-08  0.9999999410281287  0.9999998846218685  1.0000
  Te  Te1       1.0  0.24922334324590478  0.24922342462798489  0.7507766362202025  1.0000
  Te  Te2       1.0  0.7507766125493341  0.750776626654406  0.24922344132925506  1.0000
  Te  Te3       1.0  0.7507764842993699  0.249223374037335  0.2492234880659648  1.0000
  Te  Te4       1.0  0.24922338055040438  0.7507766164861576  0.7507766478264628  1.0000
  Te  Te5       1.0  0.24922337357711571  0.7507765527288415  0.24922345102955606  1.0000
  Te  Te6       1.0  0.7507765971450796  0.2492233931189909  0.7507766601008954  1.0000
