data_image0
_chemical_formula_structural       V2GeN6
_chemical_formula_sum              "V2 Ge1 N6"
_cell_length_a       4.673756646227448
_cell_length_b       4.673759642922295
_cell_length_c       4.673758559007046
_cell_angle_alpha    59.99993456046922
_cell_angle_beta     59.99993031749057
_cell_angle_gamma    59.99996873926042

_space_group_name_H-M_alt    "P 1"
_space_group_IT_number       1

loop_
  _space_group_symop_operation_xyz
  'x, y, z'

loop_
  _atom_site_type_symbol
  _atom_site_label
  _atom_site_symmetry_multiplicity
  _atom_site_fract_x
  _atom_site_fract_y
  _atom_site_fract_z
  _atom_site_occupancy
  V   V1        1.0  0.2500005148277953  0.24999981829468898  0.25000011353626855  1.0000
  V   V2        1.0  0.7499997798841413  0.7500002200627336  0.7499993276182593  1.0000
  Ge  Ge1       1.0  0.9999987489479489  4.6277544561225444e-06  0.9999963902809398  1.0000
  N   N1        1.0  0.3079275037343984  0.3079250473157647  0.6920725915839141  1.0000
  N   N2        1.0  0.6920721269198111  0.6920728029471435  0.30792907372111505  1.0000
  N   N3        1.0  0.6920717307226187  0.30792468909708426  0.30792764348407736  1.0000
  N   N4        1.0  0.30792700691217983  0.6920736092665187  0.6920741929299067  1.0000
  N   N5        1.0  0.3079279200027708  0.6920723891696134  0.30792665730199664  1.0000
  N   N6        1.0  0.6920747148610635  0.3079268027742075  0.6920740738873918  1.0000
