data_image0
_chemical_formula_structural       V2GeS6
_chemical_formula_sum              "V2 Ge1 S6"
_cell_length_a       6.315405483769302
_cell_length_b       6.31540539252631
_cell_length_c       6.315405697513884
_cell_angle_alpha    59.999999592325615
_cell_angle_beta     59.99999994341916
_cell_angle_gamma    59.99999906351896

_space_group_name_H-M_alt    "P 1"
_space_group_IT_number       1

loop_
  _space_group_symop_operation_xyz
  'x, y, z'

loop_
  _atom_site_type_symbol
  _atom_site_label
  _atom_site_symmetry_multiplicity
  _atom_site_fract_x
  _atom_site_fract_y
  _atom_site_fract_z
  _atom_site_occupancy
  V   V1        1.0  0.24999968917921325  0.2500000524295375  0.2500001320654687  1.0000
  V   V2        1.0  0.7499999660330096  0.7500001495314187  0.7499999951633529  1.0000
  Ge  Ge1       1.0  0.9999999816052194  5.817891985323987e-09  0.9999999952044374  1.0000
  S   S1        1.0  0.25721809573261223  0.2572177765921239  0.742782040108896  1.0000
  S   S2        1.0  0.742782229100405  0.7427820510844427  0.2572178175276496  1.0000
  S   S3        1.0  0.742782151398235  0.25721790737789724  0.257217902656302  1.0000
  S   S4        1.0  0.2572178902723783  0.7427820676852689  0.7427821273744952  1.0000
  S   S5        1.0  0.25721798046035965  0.7427821270830927  0.2572177330625537  1.0000
  S   S6        1.0  0.7427820273010937  0.25721790034110115  0.742782238655994  1.0000
