data_image0
_chemical_formula_structural       V2GeSe6
_chemical_formula_sum              "V2 Ge1 Se6"
_cell_length_a       6.296732348706991
_cell_length_b       6.296733021136776
_cell_length_c       6.29673224776093
_cell_angle_alpha    60.00000412155829
_cell_angle_beta     60.00000007409625
_cell_angle_gamma    60.00000139902972

_space_group_name_H-M_alt    "P 1"
_space_group_IT_number       1

loop_
  _space_group_symop_operation_xyz
  'x, y, z'

loop_
  _atom_site_type_symbol
  _atom_site_label
  _atom_site_symmetry_multiplicity
  _atom_site_fract_x
  _atom_site_fract_y
  _atom_site_fract_z
  _atom_site_occupancy
  V   V1        1.0  0.25000022210087686  0.24999955062598964  0.249999670770285  1.0000
  V   V2        1.0  0.7499991683100764  0.7499971327955136  0.7500032937151965  1.0000
  Ge  Ge1       1.0  9.13600102446924e-08  0.9999998249456757  6.566903659949286e-08  1.0000
  Se  Se1       1.0  0.27836949856297005  0.2783696285487289  0.7216304915477166  1.0000
  Se  Se2       1.0  0.7216304502203053  0.7216311122429238  0.27836852135680884  1.0000
  Se  Se3       1.0  0.7216306653763211  0.2783707341591222  0.2783680845890743  1.0000
  Se  Se4       1.0  0.27836950068908556  0.7216308896843255  0.7216305051985143  1.0000
  Se  Se5       1.0  0.2783696101812272  0.7216309139110844  0.27836908146741124  1.0000
  Se  Se6       1.0  0.7216307220459293  0.2783702664614119  0.7216302742842842  1.0000
