data_image0
_chemical_formula_structural       V2GeO6
_chemical_formula_sum              "V2 Ge1 O6"
_cell_length_a       5.063491890035613
_cell_length_b       5.063491774907422
_cell_length_c       5.063491922073028
_cell_angle_alpha    59.999998307393106
_cell_angle_beta     59.999998698337926
_cell_angle_gamma    59.999997587150794

_space_group_name_H-M_alt    "P 1"
_space_group_IT_number       1

loop_
  _space_group_symop_operation_xyz
  'x, y, z'

loop_
  _atom_site_type_symbol
  _atom_site_label
  _atom_site_symmetry_multiplicity
  _atom_site_fract_x
  _atom_site_fract_y
  _atom_site_fract_z
  _atom_site_occupancy
  V   V1        1.0  0.24999997831379242  0.24999986078185185  0.2500000787770522  1.0000
  V   V2        1.0  0.7499998177294219  0.7500002281585707  0.750000023378588  1.0000
  Ge  Ge1       1.0  0.9999999930203382  7.256326062382534e-09  3.811511268787818e-09  1.0000
  O   O1        1.0  0.25609065225008776  0.25609049456412686  0.7439094285789696  1.0000
  O   O2        1.0  0.7439094281134715  0.7439094734375261  0.2560905425128392  1.0000
  O   O3        1.0  0.7439094961664953  0.2560905264769803  0.2560905760945489  1.0000
  O   O4        1.0  0.25609055210879234  0.7439094899001797  0.7439093769790337  1.0000
  O   O5        1.0  0.25609064011899313  0.7439094677422529  0.256090487419125  1.0000
  O   O6        1.0  0.7439094478921545  0.2560904978406248  0.7439094494595303  1.0000
