data_image0
_chemical_formula_structural       V2HfN6
_chemical_formula_sum              "V2 Hf1 N6"
_cell_length_a       4.922790325409919
_cell_length_b       4.922790266166486
_cell_length_c       4.922790254286852
_cell_angle_alpha    60.00000046094375
_cell_angle_beta     60.00000006527687
_cell_angle_gamma    59.99999965463765

_space_group_name_H-M_alt    "P 1"
_space_group_IT_number       1

loop_
  _space_group_symop_operation_xyz
  'x, y, z'

loop_
  _atom_site_type_symbol
  _atom_site_label
  _atom_site_symmetry_multiplicity
  _atom_site_fract_x
  _atom_site_fract_y
  _atom_site_fract_z
  _atom_site_occupancy
  V   V1        1.0  0.24999997512552583  0.24999998755517625  0.2500000273058192  1.0000
  V   V2        1.0  0.7500000511864512  0.7500000074478701  0.7500000006840866  1.0000
  Hf  Hf1       1.0  6.49213524396455e-09  0.9999999875604605  0.9999999968795972  1.0000
  N   N1        1.0  0.28841168602529277  0.28841170814842854  0.7115882938481165  1.0000
  N   N2        1.0  0.7115883168304644  0.7115882868546175  0.28841170930527027  1.0000
  N   N3        1.0  0.7115883464330703  0.28841168514136833  0.28841163749927734  1.0000
  N   N4        1.0  0.2884116205269273  0.7115883471802958  0.7115883365035246  1.0000
  N   N5        1.0  0.2884116624711947  0.7115882899581616  0.2884117019554573  1.0000
  N   N6        1.0  0.7115883361201761  0.28841168265371364  0.7115883104629717  1.0000
