data_image0
_chemical_formula_structural       V2IrN6
_chemical_formula_sum              "V2 Ir1 N6"
_cell_length_a       3.7036913940360328
_cell_length_b       2.115630812781617
_cell_length_c       3.930741608422172
_cell_angle_alpha    81.08089819309188
_cell_angle_beta     45.72370625117012
_cell_angle_gamma    82.75960098880024

_space_group_name_H-M_alt    "P 1"
_space_group_IT_number       1

loop_
  _space_group_symop_operation_xyz
  'x, y, z'

loop_
  _atom_site_type_symbol
  _atom_site_label
  _atom_site_symmetry_multiplicity
  _atom_site_fract_x
  _atom_site_fract_y
  _atom_site_fract_z
  _atom_site_occupancy
  V   V1        1.0  0.7667943584944201  0.4390286757504491  0.44001964753341727  1.0000
  V   V2        1.0  0.8178994596960192  0.9755135641987919  0.3483553563034667  1.0000
  Ir  Ir1       1.0  0.7921356745641033  0.398136516385203  0.8239142581290844  1.0000
  N   N1        1.0  0.5489020311962961  0.6789736721282054  0.3652976019664864  1.0000
  N   N2        1.0  0.6413158669949438  0.14426718388887547  0.1981567081035971  1.0000
  N   N3        1.0  0.8036345084813337  0.8352070575112274  0.27996912697288745  1.0000
  N   N4        1.0  0.4371716962023483  0.040167417996734116  0.592438073821389  1.0000
  N   N5        1.0  0.36249630547979567  0.5433532133605385  0.11636697599880974  1.0000
  N   N6        1.0  0.47647606701542383  0.6946529888142254  0.6585524378535195  1.0000
