data_image0
_chemical_formula_structural       V2MgS6
_chemical_formula_sum              "V2 Mg1 S6"
_cell_length_a       5.8821328985547705
_cell_length_b       5.882133337864972
_cell_length_c       5.882132451076299
_cell_angle_alpha    59.99999810291714
_cell_angle_beta     59.99999824560804
_cell_angle_gamma    60.000000013018756

_space_group_name_H-M_alt    "P 1"
_space_group_IT_number       1

loop_
  _space_group_symop_operation_xyz
  'x, y, z'

loop_
  _atom_site_type_symbol
  _atom_site_label
  _atom_site_symmetry_multiplicity
  _atom_site_fract_x
  _atom_site_fract_y
  _atom_site_fract_z
  _atom_site_occupancy
  V   V1        1.0  0.2499997637558561  0.25000003409448457  0.25000008245731953  1.0000
  V   V2        1.0  0.7499998613897859  0.7500000585583987  0.7500004771918413  1.0000
  Mg  Mg1       1.0  8.950826759917219e-08  0.999999972932138  0.999999800473487  1.0000
  S   S1        1.0  0.26746491204425443  0.2674651314093037  0.7325350711460727  1.0000
  S   S2        1.0  0.7325348902535156  0.7325349362578925  0.2674647442948195  1.0000
  S   S3        1.0  0.7325351126992778  0.267465210448579  0.26746490770423237  1.0000
  S   S4        1.0  0.26746529852961354  0.7325345969505975  0.7325349867145975  1.0000
  S   S5        1.0  0.26746522016797497  0.7325349921967024  0.2674649539108041  1.0000
  S   S6        1.0  0.7325348065927468  0.2674651087847821  0.7325349978514  1.0000
