data_image0
_chemical_formula_structural       V2MgTe6
_chemical_formula_sum              "V2 Mg1 Te6"
_cell_length_a       7.181418294785797
_cell_length_b       7.1814183296646075
_cell_length_c       7.181418124325245
_cell_angle_alpha    60.00000032533624
_cell_angle_beta     60.000000311093125
_cell_angle_gamma    59.99999979274865

_space_group_name_H-M_alt    "P 1"
_space_group_IT_number       1

loop_
  _space_group_symop_operation_xyz
  'x, y, z'

loop_
  _atom_site_type_symbol
  _atom_site_label
  _atom_site_symmetry_multiplicity
  _atom_site_fract_x
  _atom_site_fract_y
  _atom_site_fract_z
  _atom_site_occupancy
  V   V1        1.0  0.2499999481811808  0.2499998746929037  0.2500001349305701  1.0000
  V   V2        1.0  0.749999996750456  0.7500000743137909  0.7499998905208681  1.0000
  Mg  Mg1       1.0  0.9999999740283191  9.720984734573161e-08  0.999999879439476  1.0000
  Te  Te1       1.0  0.2690190371480184  0.2690189477825214  0.7309809796422853  1.0000
  Te  Te2       1.0  0.7309809495082279  0.7309809773480701  0.269019074481931  1.0000
  Te  Te3       1.0  0.7309810025824166  0.2690189634184262  0.2690190681845541  1.0000
  Te  Te4       1.0  0.26901894179460434  0.7309811271394487  0.7309808756287404  1.0000
  Te  Te5       1.0  0.2690190774163728  0.7309809487852348  0.2690190723850489  1.0000
  Te  Te6       1.0  0.73098108260051  0.2690189916942781  0.7309810224552028  1.0000
