data_image0
_chemical_formula_structural       V2MgO6
_chemical_formula_sum              "V2 Mg1 O6"
_cell_length_a       5.020758815603789
_cell_length_b       5.0207589779983985
_cell_length_c       5.020758864340472
_cell_angle_alpha    60.00000018158071
_cell_angle_beta     59.99999976331675
_cell_angle_gamma    60.00000183691161

_space_group_name_H-M_alt    "P 1"
_space_group_IT_number       1

loop_
  _space_group_symop_operation_xyz
  'x, y, z'

loop_
  _atom_site_type_symbol
  _atom_site_label
  _atom_site_symmetry_multiplicity
  _atom_site_fract_x
  _atom_site_fract_y
  _atom_site_fract_z
  _atom_site_occupancy
  V   V1        1.0  0.25000002440125624  0.25000013526096165  0.24999981724609827  1.0000
  V   V2        1.0  0.7499999941361556  0.7499998081391952  0.7500001944152984  1.0000
  Mg  Mg1       1.0  0.9999999503798067  0.9999999487733982  0.9999999807128203  1.0000
  O   O1        1.0  0.2669424268100848  0.2669424231783627  0.7330575134152537  1.0000
  O   O2        1.0  0.733057615491104  0.7330576007207401  0.26694239632151134  1.0000
  O   O3        1.0  0.7330575352570398  0.26694256064573335  0.266942392553226  1.0000
  O   O4        1.0  0.2669424611626709  0.7330574974044365  0.7330575847923989  1.0000
  O   O5        1.0  0.26694252776038807  0.7330575103080074  0.26694246498454616  1.0000
  O   O6        1.0  0.733057456928911  0.26694247944002575  0.7330576818398542  1.0000
