data_image0
_chemical_formula_structural       V2MnN6
_chemical_formula_sum              "V2 Mn1 N6"
_cell_length_a       5.030617413315251
_cell_length_b       5.030617410333739
_cell_length_c       5.030617550803054
_cell_angle_alpha    59.99999894811802
_cell_angle_beta     59.99999877892647
_cell_angle_gamma    60.000000590294306

_space_group_name_H-M_alt    "P 1"
_space_group_IT_number       1

loop_
  _space_group_symop_operation_xyz
  'x, y, z'

loop_
  _atom_site_type_symbol
  _atom_site_label
  _atom_site_symmetry_multiplicity
  _atom_site_fract_x
  _atom_site_fract_y
  _atom_site_fract_z
  _atom_site_occupancy
  V   V1        1.0  0.25000000787655197  0.2499999809278986  0.24999999771941547  1.0000
  V   V2        1.0  0.7500000608882404  0.7499999549566045  0.7499999863329472  1.0000
  Mn  Mn1       1.0  0.9999995600812863  3.895329958228264e-08  2.501783960379531e-07  1.0000
  N   N1        1.0  0.2656123881861093  0.2656123103574287  0.7343876536505775  1.0000
  N   N2        1.0  0.734387747676761  0.7343876376999835  0.26561225100974156  1.0000
  N   N3        1.0  0.7343877506742646  0.2656123393939736  0.26561227809702426  1.0000
  N   N4        1.0  0.2656123582450839  0.7343877376962652  0.7343876649708804  1.0000
  N   N5        1.0  0.2656123717601258  0.7343876672131504  0.26561224269071626  1.0000
  N   N6        1.0  0.7343877512575453  0.26561231249382294  0.7343876784091793  1.0000
