data_image0
_chemical_formula_structural       V2MoN6
_chemical_formula_sum              "V2 Mo1 N6"
_cell_length_a       4.65899262019678
_cell_length_b       4.658989963348432
_cell_length_c       4.658994841549878
_cell_angle_alpha    59.9999748579162
_cell_angle_beta     59.99996316522035
_cell_angle_gamma    59.999988289587314

_space_group_name_H-M_alt    "P 1"
_space_group_IT_number       1

loop_
  _space_group_symop_operation_xyz
  'x, y, z'

loop_
  _atom_site_type_symbol
  _atom_site_label
  _atom_site_symmetry_multiplicity
  _atom_site_fract_x
  _atom_site_fract_y
  _atom_site_fract_z
  _atom_site_occupancy
  V   V1        1.0  0.24999502023854742  0.25002596312829134  0.2499858889529308  1.0000
  V   V2        1.0  0.7499948126414783  0.7500240598946142  0.749986754366296  1.0000
  Mo  Mo1       1.0  3.392623445318133e-06  0.9999839407943709  8.5633841631863e-06  1.0000
  N   N1        1.0  0.29552528388437754  0.29551900860596597  0.70447859169726  1.0000
  N   N2        1.0  0.7044757420765795  0.7044693222513707  0.2955281614383317  1.0000
  N   N3        1.0  0.7044766665631658  0.2955193277812446  0.2955271348319977  1.0000
  N   N4        1.0  0.2955260252664035  0.704469894232169  0.7044779148066754  1.0000
  N   N5        1.0  0.2955261720329202  0.7044697440633594  0.2955277835288398  1.0000
  N   N6        1.0  0.7044770645109291  0.2955188996192109  0.7044787939735341  1.0000
