data_image0
_chemical_formula_structural       V2NbN6
_chemical_formula_sum              "V2 Nb1 N6"
_cell_length_a       4.917914162912394
_cell_length_b       4.917914141539962
_cell_length_c       4.917914207617995
_cell_angle_alpha    60.0000015969134
_cell_angle_beta     59.999999871287386
_cell_angle_gamma    60.000001975528825

_space_group_name_H-M_alt    "P 1"
_space_group_IT_number       1

loop_
  _space_group_symop_operation_xyz
  'x, y, z'

loop_
  _atom_site_type_symbol
  _atom_site_label
  _atom_site_symmetry_multiplicity
  _atom_site_fract_x
  _atom_site_fract_y
  _atom_site_fract_z
  _atom_site_occupancy
  V   V1        1.0  0.25000000751865065  0.2500000663782169  0.24999997052570697  1.0000
  V   V2        1.0  0.7499999912066956  0.7499999550779372  0.7499999252437782  1.0000
  Nb  Nb1       1.0  0.9999999433399658  5.72786135865367e-08  0.999999942756005  1.0000
  N   N1        1.0  0.2869291130215558  0.28692904859440743  0.7130708634745232  1.0000
  N   N2        1.0  0.7130709992842766  0.7130708856986397  0.28692912278877164  1.0000
  N   N3        1.0  0.713070890088445  0.2869290723525889  0.28692904660461954  1.0000
  N   N4        1.0  0.2869290819793506  0.7130709515939418  0.7130709710511001  1.0000
  N   N5        1.0  0.28692899165717667  0.7130708822403143  0.2869291538315737  1.0000
  N   N6        1.0  0.7130709819773127  0.2869290595238577  0.7130710302016836  1.0000
