data_image0
_chemical_formula_structural       V2NiO6
_chemical_formula_sum              "V2 Ni1 O6"
_cell_length_a       4.896796122887471
_cell_length_b       4.896795875383455
_cell_length_c       4.896795953860015
_cell_angle_alpha    60.00000021387413
_cell_angle_beta     60.000001468887284
_cell_angle_gamma    59.99999982581303

_space_group_name_H-M_alt    "P 1"
_space_group_IT_number       1

loop_
  _space_group_symop_operation_xyz
  'x, y, z'

loop_
  _atom_site_type_symbol
  _atom_site_label
  _atom_site_symmetry_multiplicity
  _atom_site_fract_x
  _atom_site_fract_y
  _atom_site_fract_z
  _atom_site_occupancy
  V   V1        1.0  0.25000037215278176  0.2499998099242804  0.250000226103388  1.0000
  V   V2        1.0  0.7500003070010182  0.7500005352655865  0.7499997644855853  1.0000
  Ni  Ni1       1.0  3.6594964646281525e-18  2.9400901426388077e-17  4.08430330924643e-09  1.0000
  O   O1        1.0  0.2532621014659902  0.25326201510305796  0.7467378939655911  1.0000
  O   O2        1.0  0.7467378237052112  0.7467380099441036  0.25326195364952697  1.0000
  O   O3        1.0  0.7467376326923416  0.25326196253799055  0.25326220692139395  1.0000
  O   O4        1.0  0.2532619088526277  0.7467379824734948  0.7467378398502502  1.0000
  O   O5        1.0  0.2532618994318511  0.7467379138922192  0.25326218928426913  1.0000
  O   O6        1.0  0.7467379722476248  0.2532617835088999  0.7467378734055509  1.0000
