data_image0
_chemical_formula_structural       V2NiTe6
_chemical_formula_sum              "V2 Ni1 Te6"
_cell_length_a       6.906225711081245
_cell_length_b       6.906225748509504
_cell_length_c       6.906225480778409
_cell_angle_alpha    60.000000068779016
_cell_angle_beta     60.00000133363117
_cell_angle_gamma    60.00000053139736

_space_group_name_H-M_alt    "P 1"
_space_group_IT_number       1

loop_
  _space_group_symop_operation_xyz
  'x, y, z'

loop_
  _atom_site_type_symbol
  _atom_site_label
  _atom_site_symmetry_multiplicity
  _atom_site_fract_x
  _atom_site_fract_y
  _atom_site_fract_z
  _atom_site_occupancy
  V   V1        1.0  0.2500000905258061  0.25000003251467406  0.2499999322220648  1.0000
  V   V2        1.0  0.7499997554630644  0.7500000407954629  0.7500000526903027  1.0000
  Ni  Ni1       1.0  2.5789509739244068e-08  0.9999999627587601  0.9999998754086606  1.0000
  Te  Te1       1.0  0.25742886425262046  0.2574287910816889  0.7425711934750107  1.0000
  Te  Te2       1.0  0.7425711535957213  0.7425712130661407  0.2574288226230053  1.0000
  Te  Te3       1.0  0.7425711296650404  0.25742881692892083  0.2574288707491581  1.0000
  Te  Te4       1.0  0.25742892930741124  0.7425711641648061  0.7425712014724571  1.0000
  Te  Te5       1.0  0.2574288593242788  0.7425711801288468  0.25742877992957575  1.0000
  Te  Te6       1.0  0.7425711918794514  0.25742879919148776  0.7425712738955933  1.0000
