data_image0
_chemical_formula_structural       V2NiSe6
_chemical_formula_sum              "V2 Ni1 Se6"
_cell_length_a       6.162308287644566
_cell_length_b       6.162308229049168
_cell_length_c       6.162308580728267
_cell_angle_alpha    59.99999894669864
_cell_angle_beta     59.999994573750335
_cell_angle_gamma    59.9999981720189

_space_group_name_H-M_alt    "P 1"
_space_group_IT_number       1

loop_
  _space_group_symop_operation_xyz
  'x, y, z'

loop_
  _atom_site_type_symbol
  _atom_site_label
  _atom_site_symmetry_multiplicity
  _atom_site_fract_x
  _atom_site_fract_y
  _atom_site_fract_z
  _atom_site_occupancy
  V   V1        1.0  0.24999990771916952  0.2500003589695501  0.24999967752080174  1.0000
  V   V2        1.0  0.7499997510378994  0.7499999420590205  0.7499999560382257  1.0000
  Ni  Ni1       1.0  1.839712040352234e-08  1.788729754101198e-08  0.9999999948399383  1.0000
  Se  Se1       1.0  0.26524222523537233  0.2652421886240785  0.7347577658054864  1.0000
  Se  Se2       1.0  0.7347578356574114  0.7347578560199033  0.265242067503066  1.0000
  Se  Se3       1.0  0.7347579117049122  0.2652421061853586  0.265242405758448  1.0000
  Se  Se4       1.0  0.26524240749807154  0.7347574614640412  0.7347580707831075  1.0000
  Se  Se5       1.0  0.2652422437481788  0.7347576588714622  0.26524239888826223  1.0000
  Se  Se6       1.0  0.7347577004194377  0.2652423817975693  0.7347576732748826  1.0000
