data_image0
_chemical_formula_structural       V2NiS6
_chemical_formula_sum              "V2 Ni1 S6"
_cell_length_a       5.905707041830697
_cell_length_b       5.905706852269527
_cell_length_c       5.905706989858367
_cell_angle_alpha    60.00000015061337
_cell_angle_beta     60.00000095660832
_cell_angle_gamma    59.999999213135204

_space_group_name_H-M_alt    "P 1"
_space_group_IT_number       1

loop_
  _space_group_symop_operation_xyz
  'x, y, z'

loop_
  _atom_site_type_symbol
  _atom_site_label
  _atom_site_symmetry_multiplicity
  _atom_site_fract_x
  _atom_site_fract_y
  _atom_site_fract_z
  _atom_site_occupancy
  V   V1        1.0  0.25000001975577524  0.25000009864557654  0.24999984983245543  1.0000
  V   V2        1.0  0.750000065258608  0.7499998790963327  0.7500001206698327  1.0000
  Ni  Ni1       1.0  0.9999999691907666  0.9999999751140066  9.049887575333102e-08  1.0000
  S   S1        1.0  0.25585915652642927  0.2558591884233775  0.7441408086047705  1.0000
  S   S2        1.0  0.7441408130684362  0.7441408950840063  0.2558590837539482  1.0000
  S   S3        1.0  0.7441409383019497  0.25585914851614366  0.25585912811594663  1.0000
  S   S4        1.0  0.25585918404142527  0.7441407172387926  0.7441409186607107  1.0000
  S   S5        1.0  0.255859100507186  0.7441409228241952  0.2558591218578601  1.0000
  S   S6        1.0  0.7441407552100222  0.2558591855691836  0.7441408691815649  1.0000
