data_image0
_chemical_formula_structural       V2NiN6
_chemical_formula_sum              "V2 Ni1 N6"
_cell_length_a       4.6826051564590765
_cell_length_b       4.682604431091178
_cell_length_c       4.6826045549078765
_cell_angle_alpha    60.00000064766581
_cell_angle_beta     60.00000200331782
_cell_angle_gamma    59.99999408608389

_space_group_name_H-M_alt    "P 1"
_space_group_IT_number       1

loop_
  _space_group_symop_operation_xyz
  'x, y, z'

loop_
  _atom_site_type_symbol
  _atom_site_label
  _atom_site_symmetry_multiplicity
  _atom_site_fract_x
  _atom_site_fract_y
  _atom_site_fract_z
  _atom_site_occupancy
  V   V1        1.0  0.25000054119431914  0.24999980571925562  0.24999991114172437  1.0000
  V   V2        1.0  0.7499995691757897  0.749999906260235  0.7500002704877454  1.0000
  Ni  Ni1       1.0  1.1483508247445633e-08  0.9999999581516686  6.430037445229703e-08  1.0000
  N   N1        1.0  0.2781553757708994  0.2781553411356081  0.7218447991441224  1.0000
  N   N2        1.0  0.721844313864103  0.7218447527099408  0.27815574147450084  1.0000
  N   N3        1.0  0.7218443519512044  0.27815575204915705  0.27815532603295057  1.0000
  N   N4        1.0  0.2781560653102412  0.721844289485923  0.7218440760913097  1.0000
  N   N5        1.0  0.278155816827184  0.7218441551332923  0.27815533635172396  1.0000
  N   N6        1.0  0.7218439902239239  0.27815607471931497  0.7218444731908086  1.0000
