data_image0
_chemical_formula_structural       V2OsN6
_chemical_formula_sum              "V2 Os1 N6"
_cell_length_a       4.811245167753426
_cell_length_b       4.811246322431969
_cell_length_c       4.811245250860931
_cell_angle_alpha    60.00000310194145
_cell_angle_beta     60.000001929440096
_cell_angle_gamma    60.00000769961239

_space_group_name_H-M_alt    "P 1"
_space_group_IT_number       1

loop_
  _space_group_symop_operation_xyz
  'x, y, z'

loop_
  _atom_site_type_symbol
  _atom_site_label
  _atom_site_symmetry_multiplicity
  _atom_site_fract_x
  _atom_site_fract_y
  _atom_site_fract_z
  _atom_site_occupancy
  V   V1        1.0  0.24999961005958746  0.2500013200316481  0.24999867416409885  1.0000
  V   V2        1.0  0.7499997136480869  0.7499995816844856  0.750001324136444  1.0000
  Os  Os1       1.0  0.999999828651325  1.7564553302959656e-07  0.9999998544375468  1.0000
  N   N1        1.0  0.27757530037083394  0.2775758781131638  0.7224242052658831  1.0000
  N   N2        1.0  0.7224244079446237  0.722424949781048  0.2775738439273156  1.0000
  N   N3        1.0  0.7224260307975169  0.27757622108230806  0.2775751703360197  1.0000
  N   N4        1.0  0.2775759119675926  0.722423303470999  0.722426212735063  1.0000
  N   N5        1.0  0.277575590891296  0.7224238586684255  0.27757531206143404  1.0000
  N   N6        1.0  0.7224236348662975  0.27757479529409385  0.722425285434966  1.0000
