data_image0
_chemical_formula_structural       V2PdN6
_chemical_formula_sum              "V2 Pd1 N6"
_cell_length_a       4.815212922693565
_cell_length_b       4.815207192786111
_cell_length_c       4.815210076385696
_cell_angle_alpha    59.99973962291389
_cell_angle_beta     59.999799822162444
_cell_angle_gamma    59.99975113389577

_space_group_name_H-M_alt    "P 1"
_space_group_IT_number       1

loop_
  _space_group_symop_operation_xyz
  'x, y, z'

loop_
  _atom_site_type_symbol
  _atom_site_label
  _atom_site_symmetry_multiplicity
  _atom_site_fract_x
  _atom_site_fract_y
  _atom_site_fract_z
  _atom_site_occupancy
  V   V1        1.0  0.25001337192728995  0.2500315294523825  0.24999108013364932  1.0000
  V   V2        1.0  0.7500097270008689  0.7499964067958793  0.7499759127051935  1.0000
  Pd  Pd1       1.0  0.9999956624429385  0.9999947756485891  6.147474142159437e-06  1.0000
  N   N1        1.0  0.28262716256796955  0.2826372538418269  0.7173708735586702  1.0000
  N   N2        1.0  0.7173922967567598  0.7173763496971337  0.2826478886487575  1.0000
  N   N3        1.0  0.7173516598104804  0.2826268050238189  0.28262009508316027  1.0000
  N   N4        1.0  0.2826239163347921  0.7173701997490082  0.7173804617156819  1.0000
  N   N5        1.0  0.2826151281646719  0.7173406117890401  0.28263029673757734  1.0000
  N   N6        1.0  0.7173711059703729  0.28262639746826823  0.7173770816331723  1.0000
