data_image0
_chemical_formula_structural       V2PN6
_chemical_formula_sum              "V2 P1 N6"
_cell_length_a       4.8059579652628726
_cell_length_b       4.805957754572721
_cell_length_c       4.8059578028370105
_cell_angle_alpha    60.000000404552324
_cell_angle_beta     60.00000046666202
_cell_angle_gamma    59.99999932912353

_space_group_name_H-M_alt    "P 1"
_space_group_IT_number       1

loop_
  _space_group_symop_operation_xyz
  'x, y, z'

loop_
  _atom_site_type_symbol
  _atom_site_label
  _atom_site_symmetry_multiplicity
  _atom_site_fract_x
  _atom_site_fract_y
  _atom_site_fract_z
  _atom_site_occupancy
  V   V1        1.0  0.24999990307160408  0.2499999700111066  0.25000002379064057  1.0000
  V   V2        1.0  0.7500000301695834  0.7500001725173632  0.7499999003360539  1.0000
  P   P1        1.0  4.805287744810209e-08  0.9999999999999993  0.9999999281162956  1.0000
  N   N1        1.0  0.2454155199742427  0.24541540365574777  0.7545845564799035  1.0000
  N   N2        1.0  0.7545844992791696  0.7545845961629517  0.2454154584180831  1.0000
  N   N3        1.0  0.7545846103251489  0.24541538940578142  0.2454155084857409  1.0000
  N   N4        1.0  0.24541538182046937  0.754584561993532  0.7545845816293479  1.0000
  N   N5        1.0  0.24541542898340474  0.7545845386490252  0.2454155298764038  1.0000
  N   N6        1.0  0.7545845709531249  0.24541538216962294  0.7545845633105591  1.0000
