data_image0
_chemical_formula_structural       V2PtN6
_chemical_formula_sum              "V2 Pt1 N6"
_cell_length_a       4.070729277332669
_cell_length_b       2.785857930947579
_cell_length_c       3.882740080599166
_cell_angle_alpha    40.69595835870528
_cell_angle_beta     26.929091172886046
_cell_angle_gamma    37.02717875352016

_space_group_name_H-M_alt    "P 1"
_space_group_IT_number       1

loop_
  _space_group_symop_operation_xyz
  'x, y, z'

loop_
  _atom_site_type_symbol
  _atom_site_label
  _atom_site_symmetry_multiplicity
  _atom_site_fract_x
  _atom_site_fract_y
  _atom_site_fract_z
  _atom_site_occupancy
  V   V1        1.0  0.9072291934968949  0.2611630639294814  0.2637049023181559  1.0000
  V   V2        1.0  0.8306213775193705  0.2672899636145569  0.32549353514262924  1.0000
  Pt  Pt1       1.0  0.16830151090353762  0.7343898496737726  0.9758555731700486  1.0000
  N   N1        1.0  0.5420617783708434  0.06496031616830478  0.16188701214354448  1.0000
  N   N2        1.0  0.34787627287275624  0.5189781772815943  0.6916342982162438  1.0000
  N   N3        1.0  0.5420407652155605  0.06701068555821729  0.6881427584926894  1.0000
  N   N4        1.0  0.04986970579018393  0.755049348272844  0.1118501156167607  1.0000
  N   N5        1.0  0.5373324721313044  0.7480040508931977  0.34124690525911494  1.0000
  N   N6        1.0  0.6952384718004602  0.3334305920404543  0.42442423266976864  1.0000
