data_image0
_chemical_formula_structural       V2ReN6
_chemical_formula_sum              "V2 Re1 N6"
_cell_length_a       4.92866493714901
_cell_length_b       4.928664869315522
_cell_length_c       4.928665008566497
_cell_angle_alpha    59.99999766598569
_cell_angle_beta     59.99999852124562
_cell_angle_gamma    59.99999718897161

_space_group_name_H-M_alt    "P 1"
_space_group_IT_number       1

loop_
  _space_group_symop_operation_xyz
  'x, y, z'

loop_
  _atom_site_type_symbol
  _atom_site_label
  _atom_site_symmetry_multiplicity
  _atom_site_fract_x
  _atom_site_fract_y
  _atom_site_fract_z
  _atom_site_occupancy
  V   V1        1.0  0.24999996407836503  0.2499999974345282  0.25000001384222753  1.0000
  V   V2        1.0  0.7500000519492448  0.7500000121831218  0.7500000247719292  1.0000
  Re  Re1       1.0  0.9999999940840683  0.9999999826054021  1.3684212011226573e-08  1.0000
  N   N1        1.0  0.2695182733155811  0.269518168768201  0.730481725668106  1.0000
  N   N2        1.0  0.7304819027835658  0.730481719087264  0.2695180969835175  1.0000
  N   N3        1.0  0.7304818000538191  0.2695182399888611  0.2695182272455437  1.0000
  N   N4        1.0  0.26951810668927145  0.7304817671438484  0.7304818347901921  1.0000
  N   N5        1.0  0.26951816264869316  0.7304818099898441  0.2695182737568163  1.0000
  N   N6        1.0  0.7304817808446505  0.2695182766610256  0.7304818092736439  1.0000
