data_image0
_chemical_formula_structural       V2RhN6
_chemical_formula_sum              "V2 Rh1 N6"
_cell_length_a       2.8498290213891715
_cell_length_b       3.8245538008554374
_cell_length_c       2.8448078280851252
_cell_angle_alpha    79.82619147381973
_cell_angle_beta     80.4201372922622
_cell_angle_gamma    42.767167226240375

_space_group_name_H-M_alt    "P 1"
_space_group_IT_number       1

loop_
  _space_group_symop_operation_xyz
  'x, y, z'

loop_
  _atom_site_type_symbol
  _atom_site_label
  _atom_site_symmetry_multiplicity
  _atom_site_fract_x
  _atom_site_fract_y
  _atom_site_fract_z
  _atom_site_occupancy
  V   V1        1.0  0.5675868469948782  0.9212890719341061  0.2050090763074555  1.0000
  V   V2        1.0  0.5326404076918066  0.9450375928329334  0.21343323414203086  1.0000
  Rh  Rh1       1.0  0.2696307605534869  0.4933321299374374  0.11801950709541281  1.0000
  N   N1        1.0  0.6124873052423166  0.008016001439415499  0.7614604617621544  1.0000
  N   N2        1.0  0.4305554875867611  0.8423828299241992  0.8061755107647458  1.0000
  N   N3        1.0  0.25827338332923716  0.18975255523600748  0.36290371070574895  1.0000
  N   N4        1.0  0.1388484646698145  0.7670278736912978  0.4094551076553794  1.0000
  N   N5        1.0  0.8995959966785182  0.8105381050693827  0.468570811393925  1.0000
  N   N6        1.0  0.007613006918041787  0.5854455198535058  0.07613183276519941  1.0000
