data_image0
_chemical_formula_structural       V2RuN6
_chemical_formula_sum              "V2 Ru1 N6"
_cell_length_a       5.040225443549175
_cell_length_b       4.876477280714852
_cell_length_c       5.171358175578197
_cell_angle_alpha    71.04311133553618
_cell_angle_beta     49.86134937598695
_cell_angle_gamma    59.43235524787512

_space_group_name_H-M_alt    "P 1"
_space_group_IT_number       1

loop_
  _space_group_symop_operation_xyz
  'x, y, z'

loop_
  _atom_site_type_symbol
  _atom_site_label
  _atom_site_symmetry_multiplicity
  _atom_site_fract_x
  _atom_site_fract_y
  _atom_site_fract_z
  _atom_site_occupancy
  V   V1        1.0  0.3130715382588922  0.36073335477038393  0.0025346824905878177  1.0000
  V   V2        1.0  0.6833581126411783  0.6380131454976549  0.9997627830099364  1.0000
  Ru  Ru1       1.0  0.9996810782070121  0.00045449859666610846  0.9979142637483093  1.0000
  N   N1        1.0  0.2209629251551543  0.34816874111350005  0.6561819716461198  1.0000
  N   N2        1.0  0.7805032881491051  0.6479506593772536  0.34551259377459786  1.0000
  N   N3        1.0  0.4304678033352826  0.348276578669612  0.3411208558272476  1.0000
  N   N4        1.0  0.5694748275366917  0.6571325670105183  0.659836494091149  1.0000
  N   N5        1.0  0.17804925219880174  0.9983275399464486  0.22911327727865877  1.0000
  N   N6        1.0  0.8243238729589294  0.0012130601763245554  0.7679685118292017  1.0000
