data_image0
_chemical_formula_structural       V2SeN6
_chemical_formula_sum              "V2 Se1 N6"
_cell_length_a       4.805020122243808
_cell_length_b       4.805020524138366
_cell_length_c       4.805020637617267
_cell_angle_alpha    60.00000246289437
_cell_angle_beta     59.999998876054335
_cell_angle_gamma    60.000000130996696

_space_group_name_H-M_alt    "P 1"
_space_group_IT_number       1

loop_
  _space_group_symop_operation_xyz
  'x, y, z'

loop_
  _atom_site_type_symbol
  _atom_site_label
  _atom_site_symmetry_multiplicity
  _atom_site_fract_x
  _atom_site_fract_y
  _atom_site_fract_z
  _atom_site_occupancy
  V   V1        1.0  0.24999895805780423  0.25000114465638623  0.25000044450972503  1.0000
  V   V2        1.0  0.7499997124175812  0.7500006939168612  0.7499996777803957  1.0000
  Se  Se1       1.0  1.759896063373294e-07  0.9999997604047337  0.9999999797739145  1.0000
  N   N1        1.0  0.27154605966094353  0.2715456350796405  0.7284540378074175  1.0000
  N   N2        1.0  0.7284543806145036  0.7284537922476302  0.2715459307019488  1.0000
  N   N3        1.0  0.7284542963762561  0.27154562961987605  0.2715459544307345  1.0000
  N   N4        1.0  0.2715460161926463  0.7284538996628325  0.7284541913655501  1.0000
  N   N5        1.0  0.27154598892180004  0.7284538182248439  0.2715458959800374  1.0000
  N   N6        1.0  0.7284543748663443  0.27154562949351324  0.7284540443862103  1.0000
