data_image0
_chemical_formula_structural       V2SiN6
_chemical_formula_sum              "V2 Si1 N6"
_cell_length_a       4.479529860239124
_cell_length_b       4.4795322780377855
_cell_length_c       4.479529913783721
_cell_angle_alpha    59.99999799248981
_cell_angle_beta     59.99999124102434
_cell_angle_gamma    60.00001106201378

_space_group_name_H-M_alt    "P 1"
_space_group_IT_number       1

loop_
  _space_group_symop_operation_xyz
  'x, y, z'

loop_
  _atom_site_type_symbol
  _atom_site_label
  _atom_site_symmetry_multiplicity
  _atom_site_fract_x
  _atom_site_fract_y
  _atom_site_fract_z
  _atom_site_occupancy
  V   V1        1.0  0.24999871103807375  0.24999907252516573  0.250000679058968  1.0000
  V   V2        1.0  0.7500001454017092  0.7500009332050018  0.7499984366381053  1.0000
  Si  Si1       1.0  0.9999998662931926  2.077908529362521e-07  1.6387189414719449e-07  1.0000
  N   N1        1.0  0.28494879291931546  0.28494748950346965  0.7150515524502257  1.0000
  N   N2        1.0  0.715051213731785  0.7150526228559003  0.2849490354933507  1.0000
  N   N3        1.0  0.7150530388560963  0.2849460242279007  0.2849488196082547  1.0000
  N   N4        1.0  0.2849483002835988  0.7150533772680854  0.7150506918173911  1.0000
  N   N5        1.0  0.28494705379855495  0.7150526164897473  0.28494926571180945  1.0000
  N   N6        1.0  0.7150527696998354  0.2849477282673273  0.7150512998416239  1.0000
