data_image0
_chemical_formula_structural       V2SN6
_chemical_formula_sum              "V2 S1 N6"
_cell_length_a       4.8249433623160165
_cell_length_b       4.824943379021502
_cell_length_c       4.824943598981793
_cell_angle_alpha    60.0000016514657
_cell_angle_beta     60.000002217287076
_cell_angle_gamma    60.00000145122014

_space_group_name_H-M_alt    "P 1"
_space_group_IT_number       1

loop_
  _space_group_symop_operation_xyz
  'x, y, z'

loop_
  _atom_site_type_symbol
  _atom_site_label
  _atom_site_symmetry_multiplicity
  _atom_site_fract_x
  _atom_site_fract_y
  _atom_site_fract_z
  _atom_site_occupancy
  V   V1        1.0  0.2499999484341714  0.250000267619321  0.24999993846421983  1.0000
  V   V2        1.0  0.7499999662564572  0.7500000235811108  0.7500001652797298  1.0000
  S   S1        1.0  0.9999999274079988  0.9999999162340825  1.494121064033405e-09  1.0000
  N   N1        1.0  0.24347083347143963  0.2434709891140764  0.7565290271850632  1.0000
  N   N2        1.0  0.7565291267189654  0.7565290076364636  0.24347090465741675  1.0000
  N   N3        1.0  0.7565290128451759  0.24347092388303238  0.24347089930271998  1.0000
  N   N4        1.0  0.24347097877194962  0.7565290144852049  0.7565291517182681  1.0000
  N   N5        1.0  0.24347100305334748  0.756529097472781  0.24347085207187172  1.0000
  N   N6        1.0  0.7565291131797219  0.24347079012823306  0.7565290666868567  1.0000
