data_image0
_chemical_formula_structural       V2SnN6
_chemical_formula_sum              "V2 Sn1 N6"
_cell_length_a       4.736778577767808
_cell_length_b       4.736778087989465
_cell_length_c       4.736778014065166
_cell_angle_alpha    59.99999372628603
_cell_angle_beta     59.99999757098316
_cell_angle_gamma    60.00000656674562

_space_group_name_H-M_alt    "P 1"
_space_group_IT_number       1

loop_
  _space_group_symop_operation_xyz
  'x, y, z'

loop_
  _atom_site_type_symbol
  _atom_site_label
  _atom_site_symmetry_multiplicity
  _atom_site_fract_x
  _atom_site_fract_y
  _atom_site_fract_z
  _atom_site_occupancy
  V   V1        1.0  0.24999885974452654  0.2500000863511998  0.250001501291753  1.0000
  V   V2        1.0  0.7500004008522319  0.7500008097886462  0.7499999004432689  1.0000
  Sn  Sn1       1.0  0.9999999978580135  0.9999999844863565  0.999999968716162  1.0000
  N   N1        1.0  0.2882496425910836  0.28825204721695574  0.7117507596008626  1.0000
  N   N2        1.0  0.7117491000397079  0.7117493789722235  0.2882533573515157  1.0000
  N   N3        1.0  0.7117495184800687  0.28825066980798353  0.2882507393666189  1.0000
  N   N4        1.0  0.28824915153003994  0.7117511131953393  0.7117473327424813  1.0000
  N   N5        1.0  0.2882507973468553  0.7117478880833222  0.28825051831342247  1.0000
  N   N6        1.0  0.7117526000441882  0.2882481083310663  0.7117458920367637  1.0000
