data_image0
_chemical_formula_structural       V2SO6
_chemical_formula_sum              "V2 S1 O6"
_cell_length_a       4.879260611811073
_cell_length_b       4.879260082951848
_cell_length_c       4.879260304386739
_cell_angle_alpha    60.000008368736474
_cell_angle_beta     60.000007381513534
_cell_angle_gamma    60.00000797209495

_space_group_name_H-M_alt    "P 1"
_space_group_IT_number       1

loop_
  _space_group_symop_operation_xyz
  'x, y, z'

loop_
  _atom_site_type_symbol
  _atom_site_label
  _atom_site_symmetry_multiplicity
  _atom_site_fract_x
  _atom_site_fract_y
  _atom_site_fract_z
  _atom_site_occupancy
  V   V1        1.0  0.2500005126358168  0.24999980426646468  0.24999968530180142  1.0000
  V   V2        1.0  0.7500007508842538  0.7500002687447413  0.7500001671098211  1.0000
  S   S1        1.0  0.9999998307077267  2.5101024397167947e-08  5.160070969955677e-08  1.0000
  O   O1        1.0  0.23859672074433866  0.23859749381106043  0.7614027900549044  1.0000
  O   O2        1.0  0.7614028026205456  0.7614026595233014  0.23859714010947866  1.0000
  O   O3        1.0  0.7614026056413957  0.238597314850389  0.2385972083308956  1.0000
  O   O4        1.0  0.2385969084297006  0.7614025397816456  0.7614027159712258  1.0000
  O   O5        1.0  0.2385971571363939  0.7614027251903623  0.23859727212402498  1.0000
  O   O6        1.0  0.7614025487932735  0.23859707923961287  0.7614025854488266  1.0000
