data_image0
_chemical_formula_structural       V2TaN6
_chemical_formula_sum              "V2 Ta1 N6"
_cell_length_a       4.887053686324298
_cell_length_b       4.887053892082368
_cell_length_c       4.88705376066476
_cell_angle_alpha    60.00000077458484
_cell_angle_beta     60.00000194811395
_cell_angle_gamma    59.99999902080666

_space_group_name_H-M_alt    "P 1"
_space_group_IT_number       1

loop_
  _space_group_symop_operation_xyz
  'x, y, z'

loop_
  _atom_site_type_symbol
  _atom_site_label
  _atom_site_symmetry_multiplicity
  _atom_site_fract_x
  _atom_site_fract_y
  _atom_site_fract_z
  _atom_site_occupancy
  V   V1        1.0  0.24999989404161294  0.25000004033164896  0.2500000412520435  1.0000
  V   V2        1.0  0.7499999541305445  0.7500001059583364  0.7499999482084674  1.0000
  Ta  Ta1       1.0  0.9999999984479986  4.009761049991911e-08  0.9999998968320676  1.0000
  N   N1        1.0  0.2815890505895209  0.28158895356890795  0.7184110273114432  1.0000
  N   N2        1.0  0.7184109894015654  0.7184109220622071  0.28158905477083035  1.0000
  N   N3        1.0  0.7184110930419989  0.2815889240049292  0.28158896735211036  1.0000
  N   N4        1.0  0.2815889353235027  0.7184111070044229  0.718411069454731  1.0000
  N   N5        1.0  0.28158890299540196  0.7184110865589355  0.281588894869948  1.0000
  N   N6        1.0  0.7184111656110358  0.28158881663928614  0.7184110793184145  1.0000
