data_image0
_chemical_formula_structural       V2TiN6
_chemical_formula_sum              "V2 Ti1 N6"
_cell_length_a       4.684759165162987
_cell_length_b       4.684758314130558
_cell_length_c       4.684758983943463
_cell_angle_alpha    60.00000092151196
_cell_angle_beta     60.000002376403664
_cell_angle_gamma    60.000002041241515

_space_group_name_H-M_alt    "P 1"
_space_group_IT_number       1

loop_
  _space_group_symop_operation_xyz
  'x, y, z'

loop_
  _atom_site_type_symbol
  _atom_site_label
  _atom_site_symmetry_multiplicity
  _atom_site_fract_x
  _atom_site_fract_y
  _atom_site_fract_z
  _atom_site_occupancy
  V   V1        1.0  0.24999921861418323  0.25000051056793454  0.24999971228283138  1.0000
  V   V2        1.0  0.7499991232119914  0.7500006271498326  0.7499995342376589  1.0000
  Ti  Ti1       1.0  7.669595483281398e-07  0.9999995477230353  5.022443880054286e-07  1.0000
  N   N1        1.0  0.295619987686807  0.29561929123544556  0.7043806159806901  1.0000
  N   N2        1.0  0.7043810526420446  0.7043793707232361  0.2956198191280729  1.0000
  N   N3        1.0  0.7043805374468163  0.29561994675148534  0.2956201108954781  1.0000
  N   N4        1.0  0.2956196291238643  0.7043800720383468  0.7043812545621059  1.0000
  N   N5        1.0  0.29561947753031476  0.7043804762941454  0.29561898559712735  1.0000
  N   N6        1.0  0.7043801796632944  0.295620101959579  0.7043795435731909  1.0000
