data_image0
_chemical_formula_structural       V2WN6
_chemical_formula_sum              "V2 W1 N6"
_cell_length_a       3.03392073565902
_cell_length_b       3.6575308198731356
_cell_length_c       4.126775433334996
_cell_angle_alpha    100.53330882500799
_cell_angle_beta     90.3572742448352
_cell_angle_gamma    49.695895368759885

_space_group_name_H-M_alt    "P 1"
_space_group_IT_number       1

loop_
  _space_group_symop_operation_xyz
  'x, y, z'

loop_
  _atom_site_type_symbol
  _atom_site_label
  _atom_site_symmetry_multiplicity
  _atom_site_fract_x
  _atom_site_fract_y
  _atom_site_fract_z
  _atom_site_occupancy
  V   V1        1.0  0.342109981643103  0.2588131605282275  0.35012120741759073  1.0000
  V   V2        1.0  0.7262633812897493  0.18227401156284043  0.4016210901594661  1.0000
  W   W1        1.0  0.569051057184969  0.09093100621681102  0.35793438618643497  1.0000
  N   N1        1.0  0.15815074602884183  0.7585064133256293  0.5929002009011034  1.0000
  N   N2        1.0  0.19748702825311967  0.850838958117092  0.22572207190529306  1.0000
  N   N3        1.0  0.5282644486990888  0.25295950505580606  0.5675974705146385  1.0000
  N   N4        1.0  0.13614081586971544  0.8438597949640197  0.6550200903053652  1.0000
  N   N5        1.0  0.6939985592500382  0.8773201045431547  0.4103703572210762  1.0000
  N   N6        1.0  0.648989313024057  0.6545531320242156  0.7688473120303133  1.0000
