data_image0
_chemical_formula_structural       V2ZnSe6
_chemical_formula_sum              "V2 Zn1 Se6"
_cell_length_a       6.248809182342252
_cell_length_b       6.248809019637705
_cell_length_c       6.248808884694206
_cell_angle_alpha    59.99999448809885
_cell_angle_beta     59.99999561152617
_cell_angle_gamma    59.999997495608426

_space_group_name_H-M_alt    "P 1"
_space_group_IT_number       1

loop_
  _space_group_symop_operation_xyz
  'x, y, z'

loop_
  _atom_site_type_symbol
  _atom_site_label
  _atom_site_symmetry_multiplicity
  _atom_site_fract_x
  _atom_site_fract_y
  _atom_site_fract_z
  _atom_site_occupancy
  V   V1        1.0  0.2499991259247941  0.24999969777539943  0.25000073437442405  1.0000
  V   V2        1.0  0.7500011125911357  0.7499999517911154  0.7499995352114719  1.0000
  Zn  Zn1       1.0  3.9907022692763626e-08  0.9999999745204491  2.4792363188592393e-08  1.0000
  Se  Se1       1.0  0.2762016178932995  0.27620210647208726  0.7237980716122617  1.0000
  Se  Se2       1.0  0.7237982221447188  0.7237980899247674  0.2762020565846032  1.0000
  Se  Se3       1.0  0.7237983563922828  0.27620196956013965  0.2762018307833025  1.0000
  Se  Se4       1.0  0.2762014425249462  0.7237982836757301  0.7237978814766777  1.0000
  Se  Se5       1.0  0.27620161841312424  0.7237981915026498  0.2762021679302675  1.0000
  Se  Se6       1.0  0.7237984889741658  0.27620171285937956  0.7237977005575286  1.0000
