data_image0
_chemical_formula_structural       V2ZnO6
_chemical_formula_sum              "V2 Zn1 O6"
_cell_length_a       5.036486916745159
_cell_length_b       5.036486775264608
_cell_length_c       5.03648685788849
_cell_angle_alpha    59.99999854592572
_cell_angle_beta     59.999999397263196
_cell_angle_gamma    59.999999516020424

_space_group_name_H-M_alt    "P 1"
_space_group_IT_number       1

loop_
  _space_group_symop_operation_xyz
  'x, y, z'

loop_
  _atom_site_type_symbol
  _atom_site_label
  _atom_site_symmetry_multiplicity
  _atom_site_fract_x
  _atom_site_fract_y
  _atom_site_fract_z
  _atom_site_occupancy
  V   V1        1.0  0.250000213648698  0.2499996874052899  0.24999974826483137  1.0000
  V   V2        1.0  0.7499996712650269  0.7500002586341389  0.750000048731969  1.0000
  Zn  Zn1       1.0  3.1032524596389847e-09  0.9999999975682559  0.9999999480409602  1.0000
  O   O1        1.0  0.264084798700561  0.26408453064399473  0.7359154550551773  1.0000
  O   O2        1.0  0.7359151915130727  0.735915464030322  0.2640846402358003  1.0000
  O   O3        1.0  0.7359153797814247  0.2640845657029894  0.26408477754347714  1.0000
  O   O4        1.0  0.2640847559830461  0.735915370609461  0.7359153337183442  1.0000
  O   O5        1.0  0.2640847218305057  0.7359154734219988  0.2640846092560023  1.0000
  O   O6        1.0  0.7359152648149315  0.264084628249075  0.7359154442482494  1.0000
