data_image0
_chemical_formula_structural       V2ZnTe6
_chemical_formula_sum              "V2 Zn1 Te6"
_cell_length_a       7.078439806039907
_cell_length_b       7.078439647183776
_cell_length_c       7.078439751470224
_cell_angle_alpha    60.0000000186339
_cell_angle_beta     60.00000056191803
_cell_angle_gamma    59.99999991089873

_space_group_name_H-M_alt    "P 1"
_space_group_IT_number       1

loop_
  _space_group_symop_operation_xyz
  'x, y, z'

loop_
  _atom_site_type_symbol
  _atom_site_label
  _atom_site_symmetry_multiplicity
  _atom_site_fract_x
  _atom_site_fract_y
  _atom_site_fract_z
  _atom_site_occupancy
  V   V1        1.0  0.25000001530610294  0.24999997705592605  0.2499999805280314  1.0000
  V   V2        1.0  0.7499999195171551  0.7499999726937054  0.7500000292294102  1.0000
  Zn  Zn1       1.0  3.425714114951163e-08  8.249157860475525e-17  0.9999999856969108  1.0000
  Te  Te1       1.0  0.2633001299429117  0.2633001265559371  0.7366998731604404  1.0000
  Te  Te2       1.0  0.7366998381479424  0.7366998751011037  0.26330014062994234  1.0000
  Te  Te3       1.0  0.7366998694250494  0.2633001714203853  0.2633001105277099  1.0000
  Te  Te4       1.0  0.2633001743639823  0.7366998527298664  0.736699900787422  1.0000
  Te  Te5       1.0  0.2633001720898148  0.7366998453726512  0.26330010456588676  1.0000
  Te  Te6       1.0  0.7366998433904962  0.2633001805078474  0.7366998818944828  1.0000
