data_image0
_chemical_formula_structural       V2ZnS6
_chemical_formula_sum              "V2 Zn1 S6"
_cell_length_a       6.107337690333469
_cell_length_b       6.107337706144165
_cell_length_c       6.1073379177269365
_cell_angle_alpha    60.0000013348641
_cell_angle_beta     60.00000035350758
_cell_angle_gamma    60.00000183558463

_space_group_name_H-M_alt    "P 1"
_space_group_IT_number       1

loop_
  _space_group_symop_operation_xyz
  'x, y, z'

loop_
  _atom_site_type_symbol
  _atom_site_label
  _atom_site_symmetry_multiplicity
  _atom_site_fract_x
  _atom_site_fract_y
  _atom_site_fract_z
  _atom_site_occupancy
  V   V1        1.0  0.2499999209213989  0.2500000275961582  0.2500001023793163  1.0000
  V   V2        1.0  0.7499998077963836  0.7500001008367602  0.749999799121704  1.0000
  Zn  Zn1       1.0  0.9999999686416292  0.9999999919785371  1.1629501791969612e-07  1.0000
  S   S1        1.0  0.26410906041985616  0.2641088547536529  0.7358910476265057  1.0000
  S   S2        1.0  0.7358910178669189  0.735891053088996  0.2641090759257087  1.0000
  S   S3        1.0  0.7358910678406352  0.26410892943445136  0.2641090644189929  1.0000
  S   S4        1.0  0.2641092169493759  0.7358910225262542  0.73589084540435  1.0000
  S   S5        1.0  0.26410899520108533  0.7358908937672521  0.26410904153468917  1.0000
  S   S6        1.0  0.7358909421040087  0.26410913640272793  0.7358908997718722  1.0000
