data_image0
_chemical_formula_structural       W2CN6
_chemical_formula_sum              "W2 C1 N6"
_cell_length_a       4.728333435986921
_cell_length_b       4.728332949439024
_cell_length_c       4.728333039012376
_cell_angle_alpha    60.00000134239363
_cell_angle_beta     60.00000231265095
_cell_angle_gamma    60.00000164223709

_space_group_name_H-M_alt    "P 1"
_space_group_IT_number       1

loop_
  _space_group_symop_operation_xyz
  'x, y, z'

loop_
  _atom_site_type_symbol
  _atom_site_label
  _atom_site_symmetry_multiplicity
  _atom_site_fract_x
  _atom_site_fract_y
  _atom_site_fract_z
  _atom_site_occupancy
  W   W1        1.0  0.2500000861488156  0.25000001347578  0.25000000812226647  1.0000
  W   W2        1.0  0.7499999247946746  0.7499999497694335  0.7500000250306137  1.0000
  C   C1        1.0  0.9999999557672  2.279398396669222e-07  0.9999997474133049  1.0000
  N   N1        1.0  0.23692848716710666  0.23692847805274667  0.7630715329822485  1.0000
  N   N2        1.0  0.7630713723669452  0.763071485192462  0.23692854415169998  1.0000
  N   N3        1.0  0.7630715250086192  0.2369285293966366  0.23692838186939605  1.0000
  N   N4        1.0  0.23692851316599745  0.7630715426380483  0.7630715557793535  1.0000
  N   N5        1.0  0.23692841790223626  0.7630714548533858  0.23692859023167231  1.0000
  N   N6        1.0  0.763071706909497  0.23692834261740167  0.7630716148031035  1.0000
