data_image0
_chemical_formula_structural       W2CoN6
_chemical_formula_sum              "W2 Co1 N6"
_cell_length_a       4.874354394803806
_cell_length_b       4.874354373657618
_cell_length_c       4.874354527849838
_cell_angle_alpha    59.99999885438842
_cell_angle_beta     59.999998866511426
_cell_angle_gamma    59.999998929633996

_space_group_name_H-M_alt    "P 1"
_space_group_IT_number       1

loop_
  _space_group_symop_operation_xyz
  'x, y, z'

loop_
  _atom_site_type_symbol
  _atom_site_label
  _atom_site_symmetry_multiplicity
  _atom_site_fract_x
  _atom_site_fract_y
  _atom_site_fract_z
  _atom_site_occupancy
  W   W1        1.0  0.24999987390050993  0.24999979388274016  0.2500002241751699  1.0000
  W   W2        1.0  0.7499999070403289  0.7499999469899625  0.7500001651230911  1.0000
  Co  Co1       1.0  1.8807742143788037e-08  7.537889849876613e-09  0.9999999991365061  1.0000
  N   N1        1.0  0.26034354427581136  0.26034343449914193  0.7396565001470504  1.0000
  N   N2        1.0  0.7396564388081003  0.7396566380407159  0.2603434273484959  1.0000
  N   N3        1.0  0.739656648101393  0.2603435614167626  0.26034341387313337  1.0000
  N   N4        1.0  0.2603434631181855  0.7396566241914434  0.739656434051479  1.0000
  N   N5        1.0  0.26034356964787664  0.7396564358655303  0.2603434240315227  1.0000
  N   N6        1.0  0.7396565549273161  0.26034354621964834  0.7396564246053264  1.0000
