data_image0
_chemical_formula_structural       W2CrN6
_chemical_formula_sum              "W2 Cr1 N6"
_cell_length_a       5.062111694720056
_cell_length_b       5.062111707682311
_cell_length_c       5.062111548014058
_cell_angle_alpha    59.999998686202666
_cell_angle_beta     60.00000024714451
_cell_angle_gamma    59.999999277387886

_space_group_name_H-M_alt    "P 1"
_space_group_IT_number       1

loop_
  _space_group_symop_operation_xyz
  'x, y, z'

loop_
  _atom_site_type_symbol
  _atom_site_label
  _atom_site_symmetry_multiplicity
  _atom_site_fract_x
  _atom_site_fract_y
  _atom_site_fract_z
  _atom_site_occupancy
  W   W1        1.0  0.24999998519502162  0.2499999925358346  0.25000003022598766  1.0000
  W   W2        1.0  0.7500000299865813  0.7499998638940687  0.7500002110823952  1.0000
  Cr  Cr1       1.0  0.9999999936628031  5.3227564013012833e-08  0.9999999844566564  1.0000
  N   N1        1.0  0.25958086307149364  0.2595809904464321  0.7404190735395366  1.0000
  N   N2        1.0  0.7404191085365428  0.740419037763346  0.2595807520337699  1.0000
  N   N3        1.0  0.7404190131258124  0.259580980894222  0.2595809090931756  1.0000
  N   N4        1.0  0.2595809605577717  0.7404189384409896  0.7404191121127782  1.0000
  N   N5        1.0  0.25958096035891176  0.7404190588715167  0.25958097545259673  1.0000
  N   N6        1.0  0.7404190941027174  0.2595810903099929  0.7404189635332092  1.0000
