data_image0
_chemical_formula_structural       W2FeN6
_chemical_formula_sum              "W2 Fe1 N6"
_cell_length_a       5.02421069103423
_cell_length_b       5.024210964330204
_cell_length_c       5.024210905874687
_cell_angle_alpha    59.99999986780776
_cell_angle_beta     60.000000765203055
_cell_angle_gamma    60.000000663045036

_space_group_name_H-M_alt    "P 1"
_space_group_IT_number       1

loop_
  _space_group_symop_operation_xyz
  'x, y, z'

loop_
  _atom_site_type_symbol
  _atom_site_label
  _atom_site_symmetry_multiplicity
  _atom_site_fract_x
  _atom_site_fract_y
  _atom_site_fract_z
  _atom_site_occupancy
  W   W1        1.0  0.250000038604193  0.24999999165472253  0.2500000013598277  1.0000
  W   W2        1.0  0.7500000083275037  0.749999987152599  0.7499999621614994  1.0000
  Fe  Fe1       1.0  1.2857416486696618e-06  8.312509251038816e-07  0.9999984359517056  1.0000
  N   N1        1.0  0.27384746270381166  0.2738475179683805  0.7261525895598011  1.0000
  N   N2        1.0  0.7261518310081987  0.7261518660435606  0.27384815942933866  1.0000
  N   N3        1.0  0.7261519620848599  0.2738478682173764  0.27384806964933817  1.0000
  N   N4        1.0  0.27384759638227096  0.7261521349668021  0.7261524443738041  1.0000
  N   N5        1.0  0.2738476997934022  0.7261521120912663  0.2738479800733998  1.0000
  N   N6        1.0  0.726152111045642  0.27384771314183604  0.7261523574139674  1.0000
