data_image0
_chemical_formula_structural       W2GeN6
_chemical_formula_sum              "W2 Ge1 N6"
_cell_length_a       4.832940738052825
_cell_length_b       4.832940868383189
_cell_length_c       4.832941119745045
_cell_angle_alpha    59.99999814861082
_cell_angle_beta     59.99999838362405
_cell_angle_gamma    59.99999929145364

_space_group_name_H-M_alt    "P 1"
_space_group_IT_number       1

loop_
  _space_group_symop_operation_xyz
  'x, y, z'

loop_
  _atom_site_type_symbol
  _atom_site_label
  _atom_site_symmetry_multiplicity
  _atom_site_fract_x
  _atom_site_fract_y
  _atom_site_fract_z
  _atom_site_occupancy
  W   W1        1.0  0.24999976085308875  0.2500002487539022  0.2500001810105566  1.0000
  W   W2        1.0  0.7499996497347752  0.7500003686717628  0.749999973019799  1.0000
  Ge  Ge1       1.0  0.9999999986004218  0.999999989863357  2.2321177990335297e-08  1.0000
  N   N1        1.0  0.2714082926211864  0.2714081541991615  0.7285918404913786  1.0000
  N   N2        1.0  0.728591907799988  0.728591763798144  0.2714085414621198  1.0000
  N   N3        1.0  0.7285916543517638  0.2714084622422876  0.27140794002942353  1.0000
  N   N4        1.0  0.2714084114235558  0.7285917091710928  0.7285917907668047  1.0000
  N   N5        1.0  0.27140837265988765  0.7285915823283254  0.27140811211824584  1.0000
  N   N6        1.0  0.7285919351899405  0.2714077553461809  0.7285915441352853  1.0000
