data_image0
_chemical_formula_structural       W2IrN6
_chemical_formula_sum              "W2 Ir1 N6"
_cell_length_a       4.988232186924776
_cell_length_b       4.9882322067343905
_cell_length_c       4.988232086069746
_cell_angle_alpha    60.00000013072769
_cell_angle_beta     60.00000129028725
_cell_angle_gamma    59.99999937422119

_space_group_name_H-M_alt    "P 1"
_space_group_IT_number       1

loop_
  _space_group_symop_operation_xyz
  'x, y, z'

loop_
  _atom_site_type_symbol
  _atom_site_label
  _atom_site_symmetry_multiplicity
  _atom_site_fract_x
  _atom_site_fract_y
  _atom_site_fract_z
  _atom_site_occupancy
  W   W1        1.0  0.2500005223913606  0.2500000899871413  0.2499995146917191  1.0000
  W   W2        1.0  0.7500003321039623  0.7499998501105439  0.7499995980688179  1.0000
  Ir  Ir1       1.0  2.298397960483042e-08  4.910536756565109e-08  0.9999999198515244  1.0000
  N   N1        1.0  0.2713931441098724  0.27139327511978023  0.7286068351784194  1.0000
  N   N2        1.0  0.7286068451412122  0.7286069620653801  0.2713932893732257  1.0000
  N   N3        1.0  0.728606446335334  0.27139305874592673  0.271393184641712  1.0000
  N   N4        1.0  0.2713930410512334  0.7286063853875586  0.7286073147263462  1.0000
  N   N5        1.0  0.2713929749345448  0.7286069570981516  0.27139333958293005  1.0000
  N   N6        1.0  0.7286066889738799  0.27139334637925727  0.728607018739269  1.0000
