data_image0
_chemical_formula_structural       W2MnN6
_chemical_formula_sum              "W2 Mn1 N6"
_cell_length_a       5.058739288751101
_cell_length_b       5.0587397420950975
_cell_length_c       5.058739715666269
_cell_angle_alpha    59.999997051218315
_cell_angle_beta     59.99999939857082
_cell_angle_gamma    60.00000288256762

_space_group_name_H-M_alt    "P 1"
_space_group_IT_number       1

loop_
  _space_group_symop_operation_xyz
  'x, y, z'

loop_
  _atom_site_type_symbol
  _atom_site_label
  _atom_site_symmetry_multiplicity
  _atom_site_fract_x
  _atom_site_fract_y
  _atom_site_fract_z
  _atom_site_occupancy
  W   W1        1.0  0.24999996733480687  0.2500000192241403  0.25000000736591765  1.0000
  W   W2        1.0  0.7500000024619402  0.7500000165146173  0.750000006285336  1.0000
  Mn  Mn1       1.0  0.9999999745908813  5.568409032164452e-08  0.9999999769554048  1.0000
  N   N1        1.0  0.2712435875712598  0.2712435828667445  0.7287564572175156  1.0000
  N   N2        1.0  0.7287564036232836  0.7287563681353509  0.27124365729036615  1.0000
  N   N3        1.0  0.7287564748905468  0.27124345575865216  0.2712434941024702  1.0000
  N   N4        1.0  0.271243497489462  0.7287565242960158  0.7287565184243219  1.0000
  N   N5        1.0  0.27124358176832625  0.7287564329044818  0.27124356221471674  1.0000
  N   N6        1.0  0.7287564236280673  0.27124357136065985  0.7287564612341849  1.0000
