data_image0
_chemical_formula_structural       W2MoN6
_chemical_formula_sum              "W2 Mo1 N6"
_cell_length_a       4.972619370054603
_cell_length_b       4.972619355557821
_cell_length_c       4.972619260270575
_cell_angle_alpha    60.00000001888722
_cell_angle_beta     60.000000080180605
_cell_angle_gamma    59.999999568130995

_space_group_name_H-M_alt    "P 1"
_space_group_IT_number       1

loop_
  _space_group_symop_operation_xyz
  'x, y, z'

loop_
  _atom_site_type_symbol
  _atom_site_label
  _atom_site_symmetry_multiplicity
  _atom_site_fract_x
  _atom_site_fract_y
  _atom_site_fract_z
  _atom_site_occupancy
  W   W1        1.0  0.24999998376514992  0.24999996119684115  0.2500000653217211  1.0000
  W   W2        1.0  0.7499999542251958  0.7500000141283222  0.7500000668899997  1.0000
  Mo  Mo1       1.0  0.9999999871458408  2.462977328935757e-08  6.178268505743129e-09  1.0000
  N   N1        1.0  0.2757649519727836  0.27576492820780235  0.7242350813507695  1.0000
  N   N2        1.0  0.7242350574639257  0.7242350348024742  0.27576500520711195  1.0000
  N   N3        1.0  0.7242350228733099  0.2757650256729148  0.27576491247805607  1.0000
  N   N4        1.0  0.27576494602888163  0.7242351146717304  0.7242349407768657  1.0000
  N   N5        1.0  0.2757650513586374  0.7242349886217755  0.2757648746488139  1.0000
  N   N6        1.0  0.7242350586575843  0.2757648955732268  0.7242350321018897  1.0000
