data_image0
_chemical_formula_structural       W2NiN6
_chemical_formula_sum              "W2 Ni1 N6"
_cell_length_a       4.929862256953247
_cell_length_b       4.929862256733687
_cell_length_c       4.929862149151573
_cell_angle_alpha    60.00000224116372
_cell_angle_beta     60.00000122588588
_cell_angle_gamma    60.000000888868165

_space_group_name_H-M_alt    "P 1"
_space_group_IT_number       1

loop_
  _space_group_symop_operation_xyz
  'x, y, z'

loop_
  _atom_site_type_symbol
  _atom_site_label
  _atom_site_symmetry_multiplicity
  _atom_site_fract_x
  _atom_site_fract_y
  _atom_site_fract_z
  _atom_site_occupancy
  W   W1        1.0  0.24999999070437248  0.250000117821443  0.24999991211669267  1.0000
  W   W2        1.0  0.7499999526932115  0.7500001025461047  0.74999998511258  1.0000
  Ni  Ni1       1.0  0.9999999632099164  4.968677554104034e-09  0.9999999915692516  1.0000
  N   N1        1.0  0.2641242159194247  0.2641239223225987  0.7358759411722162  1.0000
  N   N2        1.0  0.7358759660394613  0.7358759477531677  0.26412407277592154  1.0000
  N   N3        1.0  0.7358759662474809  0.264124157361013  0.2641239105824171  1.0000
  N   N4        1.0  0.26412396887315587  0.735875841900375  0.7358760952530434  1.0000
  N   N5        1.0  0.2641239711875042  0.7358759191387688  0.2641241221289535  1.0000
  N   N6        1.0  0.7358760228224805  0.2641239807490639  0.7358759080055184  1.0000
