data_image0
_chemical_formula_structural       W2OsN6
_chemical_formula_sum              "W2 Os1 N6"
_cell_length_a       5.0243064463021465
_cell_length_b       5.024306447929868
_cell_length_c       5.024306463163595
_cell_angle_alpha    59.999998615211716
_cell_angle_beta     59.99999938717173
_cell_angle_gamma    59.99999906261187

_space_group_name_H-M_alt    "P 1"
_space_group_IT_number       1

loop_
  _space_group_symop_operation_xyz
  'x, y, z'

loop_
  _atom_site_type_symbol
  _atom_site_label
  _atom_site_symmetry_multiplicity
  _atom_site_fract_x
  _atom_site_fract_y
  _atom_site_fract_z
  _atom_site_occupancy
  W   W1        1.0  0.2499999917488664  0.24999999489870578  0.24999999104444173  1.0000
  W   W2        1.0  0.7499999225704826  0.7500001358297764  0.75000015080154  1.0000
  Os  Os1       1.0  0.9999999936390385  1.2188199030085146e-08  0.9999999592702166  1.0000
  N   N1        1.0  0.2618374091073998  0.2618372547237989  0.7381625763456668  1.0000
  N   N2        1.0  0.7381626666257906  0.7381626468665545  0.2618372789202237  1.0000
  N   N3        1.0  0.7381627056902542  0.26183734713249474  0.2618372960583649  1.0000
  N   N4        1.0  0.26183728280181645  0.7381626300246876  0.7381627441738712  1.0000
  N   N5        1.0  0.2618373680467211  0.7381627262500521  0.2618372705135267  1.0000
  N   N6        1.0  0.7381626727708859  0.261837238718932  0.7381627277564714  1.0000
