data_image0
_chemical_formula_structural       W2PdN6
_chemical_formula_sum              "W2 Pd1 N6"
_cell_length_a       5.7966914298624825
_cell_length_b       5.538905132806425
_cell_length_c       6.143500414711786
_cell_angle_alpha    66.70383274456701
_cell_angle_beta     73.35025253541937
_cell_angle_gamma    63.28729082374204

_space_group_name_H-M_alt    "P 1"
_space_group_IT_number       1

loop_
  _space_group_symop_operation_xyz
  'x, y, z'

loop_
  _atom_site_type_symbol
  _atom_site_label
  _atom_site_symmetry_multiplicity
  _atom_site_fract_x
  _atom_site_fract_y
  _atom_site_fract_z
  _atom_site_occupancy
  W   W1        1.0  0.28324162675260495  0.41200593745928227  0.8159516117511065  1.0000
  W   W2        1.0  0.8355656221952746  0.6917082509841928  0.9718865851943326  1.0000
  Pd  Pd1       1.0  0.9514358286100637  0.15934636788186993  0.8846032203034518  1.0000
  N   N1        1.0  0.9453220020092227  0.5778672952591101  0.6825358774011304  1.0000
  N   N2        1.0  0.6376454333794447  0.5404846844331318  0.3133305296787201  1.0000
  N   N3        1.0  0.09739779882596822  0.24930237728993626  0.10337597145955131  1.0000
  N   N4        1.0  0.17676750313688838  0.722714726388889  0.931282534032201  1.0000
  N   N5        1.0  0.4467474237140463  0.5730596271403674  0.4436228135644954  1.0000
  N   N6        1.0  0.625919189386143  0.07352790174132132  0.8533700283811203  1.0000
