data_image0
_chemical_formula_structural       W2PN6
_chemical_formula_sum              "W2 P1 N6"
_cell_length_a       4.817951156060604
_cell_length_b       4.817951113504632
_cell_length_c       4.817950978477503
_cell_angle_alpha    59.99999948250693
_cell_angle_beta     59.99999841458425
_cell_angle_gamma    59.99999850097033

_space_group_name_H-M_alt    "P 1"
_space_group_IT_number       1

loop_
  _space_group_symop_operation_xyz
  'x, y, z'

loop_
  _atom_site_type_symbol
  _atom_site_label
  _atom_site_symmetry_multiplicity
  _atom_site_fract_x
  _atom_site_fract_y
  _atom_site_fract_z
  _atom_site_occupancy
  W   W1        1.0  0.24999990985104473  0.2500002604438636  0.24999995887136417  1.0000
  W   W2        1.0  0.7499998338147812  0.7499996704579015  0.7500001059447334  1.0000
  P   P1        1.0  4.7376676469278366e-08  0.9999999872897741  7.573627505272746e-09  1.0000
  N   N1        1.0  0.24926127672455414  0.24926138420353253  0.7507387614746369  1.0000
  N   N2        1.0  0.7507387773693506  0.7507385644925434  0.2492614298102185  1.0000
  N   N3        1.0  0.7507386322670999  0.24926130975683367  0.2492613034067586  1.0000
  N   N4        1.0  0.24926141192445106  0.75073869740628  0.7507386145272177  1.0000
  N   N5        1.0  0.24926148013414706  0.7507386647151355  0.24926113242821474  1.0000
  N   N6        1.0  0.7507386898925464  0.2492614466718245  0.7507386559472652  1.0000
