data_image0
_chemical_formula_structural       W2PtN6
_chemical_formula_sum              "W2 Pt1 N6"
_cell_length_a       5.032582933043873
_cell_length_b       5.032582732656848
_cell_length_c       5.032582819842676
_cell_angle_alpha    60.000000343907715
_cell_angle_beta     60.00000041002217
_cell_angle_gamma    59.999999763980625

_space_group_name_H-M_alt    "P 1"
_space_group_IT_number       1

loop_
  _space_group_symop_operation_xyz
  'x, y, z'

loop_
  _atom_site_type_symbol
  _atom_site_label
  _atom_site_symmetry_multiplicity
  _atom_site_fract_x
  _atom_site_fract_y
  _atom_site_fract_z
  _atom_site_occupancy
  W   W1        1.0  0.25000035778338814  0.24999985115720585  0.2499996721099092  1.0000
  W   W2        1.0  0.7499999856059308  0.7500003249326069  0.7499994943866096  1.0000
  Pt  Pt1       1.0  0.9999999895695683  6.570803266183244e-08  0.9999998889050473  1.0000
  N   N1        1.0  0.2661661833213401  0.26616596560175654  0.7338342585798594  1.0000
  N   N2        1.0  0.7338339380433554  0.7338339817267675  0.2661663493849814  1.0000
  N   N3        1.0  0.7338337802319226  0.2661658129570444  0.26616637850676705  1.0000
  N   N4        1.0  0.26616591793621225  0.733834027291713  0.7338338607268882  1.0000
  N   N5        1.0  0.2661660864844527  0.7338338636538402  0.266166019658055  1.0000
  N   N6        1.0  0.7338337965359053  0.2661660690728913  0.7338341246256291  1.0000
