data_image0
_chemical_formula_structural       W2ReN6
_chemical_formula_sum              "W2 Re1 N6"
_cell_length_a       4.974243978086743
_cell_length_b       4.974243919953467
_cell_length_c       4.974244017621096
_cell_angle_alpha    59.99999944776174
_cell_angle_beta     59.99999889884858
_cell_angle_gamma    60.00000006657783

_space_group_name_H-M_alt    "P 1"
_space_group_IT_number       1

loop_
  _space_group_symop_operation_xyz
  'x, y, z'

loop_
  _atom_site_type_symbol
  _atom_site_label
  _atom_site_symmetry_multiplicity
  _atom_site_fract_x
  _atom_site_fract_y
  _atom_site_fract_z
  _atom_site_occupancy
  W   W1        1.0  0.24999984088129876  0.25000012613435185  0.24999996507243746  1.0000
  W   W2        1.0  0.7499998275909375  0.7500000903288248  0.7499999571433558  1.0000
  Re  Re1       1.0  0.9999999667969055  3.693259382496879e-08  1.0197385004832373e-08  1.0000
  N   N1        1.0  0.2699547877683431  0.26995444213057407  0.7300453196856905  1.0000
  N   N2        1.0  0.7300454682734467  0.7300453139062689  0.2699546917455245  1.0000
  N   N3        1.0  0.7300454701418456  0.2699546566479173  0.2699545738152438  1.0000
  N   N4        1.0  0.26995463081135607  0.7300452791275492  0.7300454876119828  1.0000
  N   N5        1.0  0.2699546543899682  0.7300454150445583  0.26995456955935737  1.0000
  N   N6        1.0  0.7300453570601108  0.26995462906651635  0.7300454261616663  1.0000
