data_image0
_chemical_formula_structural       W2RhN6
_chemical_formula_sum              "W2 Rh1 N6"
_cell_length_a       4.836185915191924
_cell_length_b       4.836186056841413
_cell_length_c       4.836186077265449
_cell_angle_alpha    60.00000517786689
_cell_angle_beta     60.00000185810555
_cell_angle_gamma    60.00000159433598

_space_group_name_H-M_alt    "P 1"
_space_group_IT_number       1

loop_
  _space_group_symop_operation_xyz
  'x, y, z'

loop_
  _atom_site_type_symbol
  _atom_site_label
  _atom_site_symmetry_multiplicity
  _atom_site_fract_x
  _atom_site_fract_y
  _atom_site_fract_z
  _atom_site_occupancy
  W   W1        1.0  0.24999927718422915  0.2500006911727766  0.24999970712032374  1.0000
  W   W2        1.0  0.7499994831661252  0.7500004780684627  0.7499992586987659  1.0000
  Rh  Rh1       1.0  4.17689075186375e-08  1.468826876596252e-07  7.904832419046235e-10  1.0000
  N   N1        1.0  0.2818357410474781  0.2818349359483236  0.7181649423163865  1.0000
  N   N2        1.0  0.7181652147200864  0.7181644175190917  0.2818356243482315  1.0000
  N   N3        1.0  0.7181647895727992  0.2818352430824992  0.2818354180908045  1.0000
  N   N4        1.0  0.2818354848934036  0.718164571292648  0.7181649754895547  1.0000
  N   N5        1.0  0.2818352152884355  0.7181644384533271  0.2818353010024454  1.0000
  N   N6        1.0  0.7181647822422065  0.28183508215642766  0.7181647576048463  1.0000
