data_image0
_chemical_formula_structural       W2RuN6
_chemical_formula_sum              "W2 Ru1 N6"
_cell_length_a       4.920179203455664
_cell_length_b       4.92017920564615
_cell_length_c       4.920179326942655
_cell_angle_alpha    59.99999948319303
_cell_angle_beta     59.99999960545576
_cell_angle_gamma    60.00000045700488

_space_group_name_H-M_alt    "P 1"
_space_group_IT_number       1

loop_
  _space_group_symop_operation_xyz
  'x, y, z'

loop_
  _atom_site_type_symbol
  _atom_site_label
  _atom_site_symmetry_multiplicity
  _atom_site_fract_x
  _atom_site_fract_y
  _atom_site_fract_z
  _atom_site_occupancy
  W   W1        1.0  0.24999992673504415  0.24999998007535124  0.2500001082502106  1.0000
  W   W2        1.0  0.7499999546785953  0.7499999800537059  0.750000087523515  1.0000
  Ru  Ru1       1.0  4.639231644663113e-08  0.9999999875538594  0.9999999525402185  1.0000
  N   N1        1.0  0.2687520285399522  0.2687519866992835  0.7312479822987209  1.0000
  N   N2        1.0  0.7312480425183919  0.731248038149708  0.2687520476762076  1.0000
  N   N3        1.0  0.7312480071694196  0.26875202520317354  0.26875191611009697  1.0000
  N   N4        1.0  0.26875188467287653  0.7312480444519236  0.73124801440921  1.0000
  N   N5        1.0  0.26875200840898883  0.7312480262226783  0.2687519145017375  1.0000
  N   N6        1.0  0.7312480981615047  0.2687519413740651  0.7312479698448794  1.0000
