data_image0
_chemical_formula_structural       W2SeN6
_chemical_formula_sum              "W2 Se1 N6"
_cell_length_a       4.9484633835657705
_cell_length_b       4.9484641445488275
_cell_length_c       4.948464160964056
_cell_angle_alpha    59.999999095060474
_cell_angle_beta     60.00000049990104
_cell_angle_gamma    60.00000044247677

_space_group_name_H-M_alt    "P 1"
_space_group_IT_number       1

loop_
  _space_group_symop_operation_xyz
  'x, y, z'

loop_
  _atom_site_type_symbol
  _atom_site_label
  _atom_site_symmetry_multiplicity
  _atom_site_fract_x
  _atom_site_fract_y
  _atom_site_fract_z
  _atom_site_occupancy
  W   W1        1.0  0.2500002688019097  0.24999890925375406  0.25000031303157955  1.0000
  W   W2        1.0  0.7499989675665666  0.7499999551613088  0.7499993334203086  1.0000
  Se  Se1       1.0  2.1142206563076918e-07  1.707749928953864e-07  0.9999998755888366  1.0000
  N   N1        1.0  0.261853968004043  0.26185386401184885  0.7381463642881728  1.0000
  N   N2        1.0  0.738146003753301  0.7381465324281298  0.2618541632233828  1.0000
  N   N3        1.0  0.7381462637718982  0.26185376540893246  0.26185376606554545  1.0000
  N   N4        1.0  0.2618543947768254  0.7381465097560466  0.7381460442096103  1.0000
  N   N5        1.0  0.26185358609338105  0.7381462916525227  0.26185403262277873  1.0000
  N   N6        1.0  0.7381464412220297  0.26185392411246994  0.7381460987190516  1.0000
