data_image0
_chemical_formula_structural       W2SiN6
_chemical_formula_sum              "W2 Si1 N6"
_cell_length_a       4.805249744116879
_cell_length_b       4.805249631944846
_cell_length_c       4.8052497359353685
_cell_angle_alpha    60.000002120437024
_cell_angle_beta     60.00000073779587
_cell_angle_gamma    60.000001410598095

_space_group_name_H-M_alt    "P 1"
_space_group_IT_number       1

loop_
  _space_group_symop_operation_xyz
  'x, y, z'

loop_
  _atom_site_type_symbol
  _atom_site_label
  _atom_site_symmetry_multiplicity
  _atom_site_fract_x
  _atom_site_fract_y
  _atom_site_fract_z
  _atom_site_occupancy
  W   W1        1.0  0.25000010997180944  0.24999999720177354  0.25000016158829713  1.0000
  W   W2        1.0  0.7499998881510885  0.7500000553243981  0.7499998122298029  1.0000
  Si  Si1       1.0  2.4442268902883994e-08  2.0390113186777937e-08  0.9999999463679502  1.0000
  N   N1        1.0  0.2618354792755141  0.26183566525706947  0.7381644813239229  1.0000
  N   N2        1.0  0.7381644439671675  0.7381643235500011  0.2618357490889907  1.0000
  N   N3        1.0  0.7381642928701332  0.2618353888076932  0.2618356654119128  1.0000
  N   N4        1.0  0.26183559022540565  0.7381646050969001  0.7381643952306544  1.0000
  N   N5        1.0  0.2618357072404649  0.7381644100457483  0.26183532009611954  1.0000
  N   N6        1.0  0.7381644932465883  0.2618354895545656  0.7381644770856474  1.0000
