data_image0
_chemical_formula_structural       W2SN6
_chemical_formula_sum              "W2 S1 N6"
_cell_length_a       4.9172554369229715
_cell_length_b       4.917255853455859
_cell_length_c       4.9172557657022615
_cell_angle_alpha    59.999998206936404
_cell_angle_beta     59.999996894238485
_cell_angle_gamma    59.99999503492398

_space_group_name_H-M_alt    "P 1"
_space_group_IT_number       1

loop_
  _space_group_symop_operation_xyz
  'x, y, z'

loop_
  _atom_site_type_symbol
  _atom_site_label
  _atom_site_symmetry_multiplicity
  _atom_site_fract_x
  _atom_site_fract_y
  _atom_site_fract_z
  _atom_site_occupancy
  W   W1        1.0  0.2499996932864634  0.2500003967330222  0.25000006006924097  1.0000
  W   W2        1.0  0.7500004257971371  0.749999568748017  0.7500001918778068  1.0000
  S   S1        1.0  0.9999998325241002  8.194428646091082e-07  4.4002298854546675e-06  1.0000
  N   N1        1.0  0.24482089100064397  0.24482096765936318  0.75517854283085  1.0000
  N   N2        1.0  0.7551790369743447  0.7551788807584351  0.24482062674010696  1.0000
  N   N3        1.0  0.7551794002430796  0.24482068849913013  0.24481989539545032  1.0000
  N   N4        1.0  0.24482111962463002  0.7551784550482677  0.7551781877504479  1.0000
  N   N5        1.0  0.24482073927275097  0.7551791097162418  0.2448200990080696  1.0000
  N   N6        1.0  0.7551788504260545  0.24482119699189073  0.7551780099977233  1.0000
