data_image0
_chemical_formula_structural       W2TiN6
_chemical_formula_sum              "W2 Ti1 N6"
_cell_length_a       4.923685265030494
_cell_length_b       4.923685410992117
_cell_length_c       4.923685297860243
_cell_angle_alpha    59.99999994126292
_cell_angle_beta     59.999998959583905
_cell_angle_gamma    59.99999979813047

_space_group_name_H-M_alt    "P 1"
_space_group_IT_number       1

loop_
  _space_group_symop_operation_xyz
  'x, y, z'

loop_
  _atom_site_type_symbol
  _atom_site_label
  _atom_site_symmetry_multiplicity
  _atom_site_fract_x
  _atom_site_fract_y
  _atom_site_fract_z
  _atom_site_occupancy
  W   W1        1.0  0.2499997755333712  0.2500000580994543  0.2500000599948437  1.0000
  W   W2        1.0  0.7499999361885137  0.7499999777893693  0.7500000770257751  1.0000
  Ti  Ti1       1.0  9.096262964083472e-09  1.492473331087583e-08  0.9999999940824987  1.0000
  N   N1        1.0  0.27465797633778577  0.27465786609477233  0.7253420473829044  1.0000
  N   N2        1.0  0.7253420806522778  0.7253419782599715  0.2746579173137105  1.0000
  N   N3        1.0  0.7253422093019735  0.2746579644860911  0.2746579322041741  1.0000
  N   N4        1.0  0.27465803380792353  0.7253420813525513  0.7253420296044798  1.0000
  N   N5        1.0  0.27465794926085335  0.7253421139891636  0.27465793467075733  1.0000
  N   N6        1.0  0.7253420347638456  0.2746579492616699  0.7253420200214636  1.0000
