data_image0
_chemical_formula_structural       W2VN6
_chemical_formula_sum              "W2 V1 N6"
_cell_length_a       4.884993876914655
_cell_length_b       4.8849935026379905
_cell_length_c       4.884994476113235
_cell_angle_alpha    59.99999689131682
_cell_angle_beta     59.99999818673832
_cell_angle_gamma    59.999999943885406

_space_group_name_H-M_alt    "P 1"
_space_group_IT_number       1

loop_
  _space_group_symop_operation_xyz
  'x, y, z'

loop_
  _atom_site_type_symbol
  _atom_site_label
  _atom_site_symmetry_multiplicity
  _atom_site_fract_x
  _atom_site_fract_y
  _atom_site_fract_z
  _atom_site_occupancy
  W   W1        1.0  0.24999948261923574  0.25000019159191295  0.2500004934593831  1.0000
  W   W2        1.0  0.7499995267654482  0.7500004795037517  0.7499999609235066  1.0000
  V   V1        1.0  0.9999999830030647  0.9999998169774881  1.348101672805938e-07  1.0000
  N   N1        1.0  0.2712950079813869  0.2712953660468476  0.728705134635059  1.0000
  N   N2        1.0  0.728704153827501  0.7287054930856631  0.27129556507561337  1.0000
  N   N3        1.0  0.7287049305012653  0.271295327226064  0.27129504121095155  1.0000
  N   N4        1.0  0.27129562322487294  0.7287046819800208  0.728704973993095  1.0000
  N   N5        1.0  0.27129551148446884  0.7287042415798446  0.2712947696777628  1.0000
  N   N6        1.0  0.7287057572932031  0.27129442378968543  0.7287039304389348  1.0000
