data_image0
_chemical_formula_structural       Y2AgO6
_chemical_formula_sum              "Y2 Ag1 O6"
_cell_length_a       5.347297603637761
_cell_length_b       5.347297628889914
_cell_length_c       5.347297644505797
_cell_angle_alpha    59.99999945399206
_cell_angle_beta     59.99999948658421
_cell_angle_gamma    59.99999983194239

_space_group_name_H-M_alt    "P 1"
_space_group_IT_number       1

loop_
  _space_group_symop_operation_xyz
  'x, y, z'

loop_
  _atom_site_type_symbol
  _atom_site_label
  _atom_site_symmetry_multiplicity
  _atom_site_fract_x
  _atom_site_fract_y
  _atom_site_fract_z
  _atom_site_occupancy
  Y   Y1        1.0  0.24999996447694195  0.250000027384804  0.2499999892156319  1.0000
  Y   Y2        1.0  0.7499999919366308  0.7499999745056269  0.7500000002699383  1.0000
  Ag  Ag1       1.0  1.5346451774282132e-10  0.9999999541920069  0.9999999106210549  1.0000
  O   O1        1.0  0.26701505410155774  0.2670150632926473  0.7329849203264767  1.0000
  O   O2        1.0  0.7329849552718064  0.7329849546305811  0.26701507954528275  1.0000
  O   O3        1.0  0.7329849275483791  0.2670150717151505  0.2670150984796197  1.0000
  O   O4        1.0  0.2670150461179954  0.7329849691120747  0.7329849508060164  1.0000
  O   O5        1.0  0.2670150577622781  0.7329849572847342  0.26701508057246015  1.0000
  O   O6        1.0  0.7329849763900378  0.26701504460569636  0.7329849654190167  1.0000
