data_image0
_chemical_formula_structural       Y2AgS6
_chemical_formula_sum              "Y2 Ag1 S6"
_cell_length_a       6.42132529575837
_cell_length_b       6.421325297070093
_cell_length_c       6.421325133048141
_cell_angle_alpha    60.00000020300012
_cell_angle_beta     60.00000020510702
_cell_angle_gamma    60.00000072035646

_space_group_name_H-M_alt    "P 1"
_space_group_IT_number       1

loop_
  _space_group_symop_operation_xyz
  'x, y, z'

loop_
  _atom_site_type_symbol
  _atom_site_label
  _atom_site_symmetry_multiplicity
  _atom_site_fract_x
  _atom_site_fract_y
  _atom_site_fract_z
  _atom_site_occupancy
  Y   Y1        1.0  0.2499999854436216  0.25000005583074414  0.2499999915108458  1.0000
  Y   Y2        1.0  0.7499999742072714  0.7499999843906118  0.7499999979673286  1.0000
  Ag  Ag1       1.0  0.9999999227291422  9.155080999651422e-08  2.2038895679383006e-09  1.0000
  S   S1        1.0  0.2629905374611967  0.262990529854589  0.7370094664477777  1.0000
  S   S2        1.0  0.7370094652755115  0.7370094512402019  0.2629905435092594  1.0000
  S   S3        1.0  0.737009477995853  0.26299051887758446  0.2629905210664223  1.0000
  S   S4        1.0  0.2629906069513584  0.7370094259783445  0.7370094425451295  1.0000
  S   S5        1.0  0.2629905354761631  0.7370094282940007  0.2629905469301712  1.0000
  S   S6        1.0  0.737009482300852  0.2629905184692361  0.737009488245599  1.0000
