data_image0
_chemical_formula_structural       Y2AgSe6
_chemical_formula_sum              "Y2 Ag1 Se6"
_cell_length_a       6.750606928017922
_cell_length_b       6.750606790572721
_cell_length_c       6.750606848012051
_cell_angle_alpha    59.99999947084014
_cell_angle_beta     60.00000012062406
_cell_angle_gamma    59.99999930033572

_space_group_name_H-M_alt    "P 1"
_space_group_IT_number       1

loop_
  _space_group_symop_operation_xyz
  'x, y, z'

loop_
  _atom_site_type_symbol
  _atom_site_label
  _atom_site_symmetry_multiplicity
  _atom_site_fract_x
  _atom_site_fract_y
  _atom_site_fract_z
  _atom_site_occupancy
  Y   Y1        1.0  0.25000006696717597  0.24999998093465406  0.2499999122582157  1.0000
  Y   Y2        1.0  0.7499999209286368  0.7500000335176509  0.7499999469494164  1.0000
  Ag  Ag1       1.0  1.8815650164171673e-08  0.9999999999999999  4.392071385534792e-08  1.0000
  Se  Se1       1.0  0.2670780007844249  0.2670779621651665  0.7329220192532275  1.0000
  Se  Se2       1.0  0.7329219812713283  0.7329220595442333  0.26707798441802033  1.0000
  Se  Se3       1.0  0.7329220916331762  0.2670779220408497  0.26707797786310056  1.0000
  Se  Se4       1.0  0.2670779684510958  0.7329220143976828  0.7329220753511192  1.0000
  Se  Se5       1.0  0.26707791982576046  0.7329220460705859  0.2670779722085295  1.0000
  Se  Se6       1.0  0.7329220261016858  0.2670779865244566  0.7329220663042753  1.0000
