data_image0
_chemical_formula_structural       Y2AuO6
_chemical_formula_sum              "Y2 Au1 O6"
_cell_length_a       5.310346231861728
_cell_length_b       5.310346247877701
_cell_length_c       5.3103462769542515
_cell_angle_alpha    59.99999971989216
_cell_angle_beta     59.999998933262766
_cell_angle_gamma    60.000000355554015

_space_group_name_H-M_alt    "P 1"
_space_group_IT_number       1

loop_
  _space_group_symop_operation_xyz
  'x, y, z'

loop_
  _atom_site_type_symbol
  _atom_site_label
  _atom_site_symmetry_multiplicity
  _atom_site_fract_x
  _atom_site_fract_y
  _atom_site_fract_z
  _atom_site_occupancy
  Y   Y1        1.0  0.24999998167296691  0.2499999912258267  0.2500000065162657  1.0000
  Y   Y2        1.0  0.7500000390246033  0.7499999852091666  0.7500000308060586  1.0000
  Au  Au1       1.0  0.9999999845151485  1.3838022590299617e-08  0.9999999706935526  1.0000
  O   O1        1.0  0.2627815214548798  0.26278152116565234  0.7372184662073514  1.0000
  O   O2        1.0  0.7372185008895202  0.7372184829453864  0.26278152444055697  1.0000
  O   O3        1.0  0.7372184353498891  0.2627815240808718  0.26278158187213485  1.0000
  O   O4        1.0  0.2627815058808888  0.7372185146252233  0.7372184188532425  1.0000
  O   O5        1.0  0.26278156025104066  0.7372184214952517  0.2627815505797509  1.0000
  O   O6        1.0  0.7372184915255049  0.2627815595524158  0.7372184293513048  1.0000
