data_image0
_chemical_formula_structural       Y2AuS6
_chemical_formula_sum              "Y2 Au1 S6"
_cell_length_a       6.432296953825603
_cell_length_b       6.432296810324557
_cell_length_c       6.432296911389884
_cell_angle_alpha    60.000000057628284
_cell_angle_beta     60.00000023564338
_cell_angle_gamma    59.99999961663386

_space_group_name_H-M_alt    "P 1"
_space_group_IT_number       1

loop_
  _space_group_symop_operation_xyz
  'x, y, z'

loop_
  _atom_site_type_symbol
  _atom_site_label
  _atom_site_symmetry_multiplicity
  _atom_site_fract_x
  _atom_site_fract_y
  _atom_site_fract_z
  _atom_site_occupancy
  Y   Y1        1.0  0.2500000502613665  0.24999992785626715  0.2500000065156322  1.0000
  Y   Y2        1.0  0.7500000098685317  0.7500000501365417  0.7499999691580483  1.0000
  Au  Au1       1.0  0.9999999957749939  1.904055441782808e-09  2.4480294392308987e-08  1.0000
  S   S1        1.0  0.2617791840618409  0.26177919394331833  0.7382208181766885  1.0000
  S   S2        1.0  0.7382208160468134  0.7382208564035915  0.2617791544398727  1.0000
  S   S3        1.0  0.7382208883174122  0.26177913673677955  0.26177915368266785  1.0000
  S   S4        1.0  0.26177912599078795  0.7382208279276421  0.7382208235822723  1.0000
  S   S5        1.0  0.26177913768854477  0.7382208572094423  0.2617791832143155  1.0000
  S   S6        1.0  0.7382207924462179  0.2617791283995879  0.7382208645314041  1.0000
