data_image0
_chemical_formula_structural       Y2AuSe6
_chemical_formula_sum              "Y2 Au1 Se6"
_cell_length_a       6.768359662045168
_cell_length_b       6.768359770377768
_cell_length_c       6.768359766623562
_cell_angle_alpha    60.000000331844504
_cell_angle_beta     60.000000688990646
_cell_angle_gamma    60.00000118384395

_space_group_name_H-M_alt    "P 1"
_space_group_IT_number       1

loop_
  _space_group_symop_operation_xyz
  'x, y, z'

loop_
  _atom_site_type_symbol
  _atom_site_label
  _atom_site_symmetry_multiplicity
  _atom_site_fract_x
  _atom_site_fract_y
  _atom_site_fract_z
  _atom_site_occupancy
  Y   Y1        1.0  0.24999993430390827  0.25000004604156373  0.25000002401742766  1.0000
  Y   Y2        1.0  0.7500000094652991  0.7499999227924059  0.7500003054483791  1.0000
  Au  Au1       1.0  0.999999990677472  0.9999999819048498  0.9999999930243593  1.0000
  Se  Se1       1.0  0.26387394173485057  0.26387392116671343  0.7361260558144527  1.0000
  Se  Se2       1.0  0.7361260715497578  0.7361261001431924  0.263873798966093  1.0000
  Se  Se3       1.0  0.7361260943077406  0.26387399719645005  0.2638738317737386  1.0000
  Se  Se4       1.0  0.26387389659153976  0.7361260349705457  0.7361260745722737  1.0000
  Se  Se5       1.0  0.2638739511259773  0.7361260589575379  0.26387388704927367  1.0000
  Se  Se6       1.0  0.7361261093419752  0.2638739334001281  0.7361260236240847  1.0000
