data_image0
_chemical_formula_structural       Y2BeSe6
_chemical_formula_sum              "Y2 Be1 Se6"
_cell_length_a       6.288815942757314
_cell_length_b       6.288816346139234
_cell_length_c       6.28881542718385
_cell_angle_alpha    59.99999913757216
_cell_angle_beta     59.99999772253766
_cell_angle_gamma    59.99999903802449

_space_group_name_H-M_alt    "P 1"
_space_group_IT_number       1

loop_
  _space_group_symop_operation_xyz
  'x, y, z'

loop_
  _atom_site_type_symbol
  _atom_site_label
  _atom_site_symmetry_multiplicity
  _atom_site_fract_x
  _atom_site_fract_y
  _atom_site_fract_z
  _atom_site_occupancy
  Y   Y1        1.0  0.24999997071809762  0.2500000269258194  0.25000007264493274  1.0000
  Y   Y2        1.0  0.7499999977677202  0.749999956137682  0.7500000100601597  1.0000
  Be  Be1       1.0  5.163405300165444e-08  0.9999999883150216  0.9999999323217238  1.0000
  Se  Se1       1.0  0.2394445729474455  0.23944455484918467  0.7605554315238585  1.0000
  Se  Se2       1.0  0.7605554398279555  0.7605554165293386  0.23944458081469452  1.0000
  Se  Se3       1.0  0.7605554156828109  0.2394446219212619  0.23944452344349917  1.0000
  Se  Se4       1.0  0.23944456930895888  0.7605553942496854  0.7605554628992862  1.0000
  Se  Se5       1.0  0.23944457935061284  0.7605554317073043  0.2394445689157709  1.0000
  Se  Se6       1.0  0.7605554047692322  0.2394445980961182  0.7605554396689812  1.0000
