data_image0
_chemical_formula_structural       Y2BeS6
_chemical_formula_sum              "Y2 Be1 S6"
_cell_length_a       5.985297774415996
_cell_length_b       5.985297922008513
_cell_length_c       5.985297584379515
_cell_angle_alpha    60.000002036049835
_cell_angle_beta     60.00000021725389
_cell_angle_gamma    60.00000138289261

_space_group_name_H-M_alt    "P 1"
_space_group_IT_number       1

loop_
  _space_group_symop_operation_xyz
  'x, y, z'

loop_
  _atom_site_type_symbol
  _atom_site_label
  _atom_site_symmetry_multiplicity
  _atom_site_fract_x
  _atom_site_fract_y
  _atom_site_fract_z
  _atom_site_occupancy
  Y   Y1        1.0  0.25000005609777853  0.24999996066095795  0.24999996661144316  1.0000
  Y   Y2        1.0  0.7500000314919514  0.7499999740643688  0.7499999806708995  1.0000
  Be  Be1       1.0  0.9999999821889155  0.9999999897687227  0.9999999939720525  1.0000
  S   S1        1.0  0.2506849740509861  0.2506849799448486  0.7493150243557773  1.0000
  S   S2        1.0  0.7493149915292562  0.7493149793355439  0.25068505853333367  1.0000
  S   S3        1.0  0.7493149814536465  0.2506849864168096  0.2506850589302309  1.0000
  S   S4        1.0  0.2506849746542744  0.7493150649450775  0.7493149926788578  1.0000
  S   S5        1.0  0.2506849881995407  0.7493150542293163  0.2506849619421142  1.0000
  S   S6        1.0  0.7493150288445718  0.25068500531759214  0.7493149749098541  1.0000
