data_image0
_chemical_formula_structural       Y2BeO6
_chemical_formula_sum              "Y2 Be1 O6"
_cell_length_a       5.047305381168672
_cell_length_b       5.04730485418993
_cell_length_c       5.047304688632686
_cell_angle_alpha    60.000001377957155
_cell_angle_beta     60.00000322197107
_cell_angle_gamma    60.000001053200755

_space_group_name_H-M_alt    "P 1"
_space_group_IT_number       1

loop_
  _space_group_symop_operation_xyz
  'x, y, z'

loop_
  _atom_site_type_symbol
  _atom_site_label
  _atom_site_symmetry_multiplicity
  _atom_site_fract_x
  _atom_site_fract_y
  _atom_site_fract_z
  _atom_site_occupancy
  Y   Y1        1.0  0.25000004413189314  0.250000005251844  0.24999997648081446  1.0000
  Y   Y2        1.0  0.7499999988969669  0.7500000181820623  0.7499999929972806  1.0000
  Be  Be1       1.0  0.9999999943619033  0.9999999757346758  0.9999999792891121  1.0000
  O   O1        1.0  0.24011503657728112  0.24011495934109214  0.7598850460224349  1.0000
  O   O2        1.0  0.7598849970468118  0.7598850374009586  0.2401150167916795  1.0000
  O   O3        1.0  0.7598850352384581  0.24011498332792236  0.2401149956471454  1.0000
  O   O4        1.0  0.24011497742712448  0.7598849527508175  0.7598849910838069  1.0000
  O   O5        1.0  0.24011493256440145  0.7598850188079561  0.24011502962383768  1.0000
  O   O6        1.0  0.759884991362353  0.24011501190554493  0.7598849541591491  1.0000
