data_image0
_chemical_formula_structural       Y2BeTe6
_chemical_formula_sum              "Y2 Be1 Te6"
_cell_length_a       7.005488330633315
_cell_length_b       7.005488587602927
_cell_length_c       7.005488416878635
_cell_angle_alpha    60.0000013160844
_cell_angle_beta     60.000000627313234
_cell_angle_gamma    60.00000051026186

_space_group_name_H-M_alt    "P 1"
_space_group_IT_number       1

loop_
  _space_group_symop_operation_xyz
  'x, y, z'

loop_
  _atom_site_type_symbol
  _atom_site_label
  _atom_site_symmetry_multiplicity
  _atom_site_fract_x
  _atom_site_fract_y
  _atom_site_fract_z
  _atom_site_occupancy
  Y   Y1        1.0  0.24999999063819123  0.25000002262784177  0.24999999936278808  1.0000
  Y   Y2        1.0  0.7500000357661812  0.7499999752254944  0.7499999568209395  1.0000
  Be  Be1       1.0  0.9999999701481471  0.9999999807690884  2.4541381913369176e-08  1.0000
  Te  Te1       1.0  0.24306898723062836  0.24306898969783194  0.7569310048263824  1.0000
  Te  Te2       1.0  0.7569310262703055  0.7569310221416223  0.2430689865023109  1.0000
  Te  Te3       1.0  0.7569310212503848  0.24306901043689436  0.24306897067845304  1.0000
  Te  Te4       1.0  0.24306896829192137  0.7569310188852073  0.7569310253156827  1.0000
  Te  Te5       1.0  0.2430689803381914  0.7569309864548361  0.24306900108816146  1.0000
  Te  Te6       1.0  0.7569310267867477  0.24306898517452982  0.7569310335179044  1.0000
