data_image0
_chemical_formula_structural       Y2CaTe6
_chemical_formula_sum              "Y2 Ca1 Te6"
_cell_length_a       7.42496215970117
_cell_length_b       7.424962147398757
_cell_length_c       7.424962221261365
_cell_angle_alpha    59.99999985586475
_cell_angle_beta     60.000000354865115
_cell_angle_gamma    60.00000005206974

_space_group_name_H-M_alt    "P 1"
_space_group_IT_number       1

loop_
  _space_group_symop_operation_xyz
  'x, y, z'

loop_
  _atom_site_type_symbol
  _atom_site_label
  _atom_site_symmetry_multiplicity
  _atom_site_fract_x
  _atom_site_fract_y
  _atom_site_fract_z
  _atom_site_occupancy
  Y   Y1        1.0  0.250000018910752  0.24999998217846325  0.24999998878725266  1.0000
  Y   Y2        1.0  0.7499999637514356  0.7500000108657516  0.7500001221018481  1.0000
  Ca  Ca1       1.0  0.9999999775997753  0.9999999785565461  8.926224913809963e-08  1.0000
  Te  Te1       1.0  0.2733270797650551  0.27332707514960686  0.7266729119331037  1.0000
  Te  Te2       1.0  0.726672923003692  0.7266729508845371  0.2733270673567133  1.0000
  Te  Te3       1.0  0.7266729469847  0.27332708063660394  0.2733270264331646  1.0000
  Te  Te4       1.0  0.2733270970672375  0.7266729008611359  0.7266728817556166  1.0000
  Te  Te5       1.0  0.2733270851648215  0.7266729372773635  0.27332703288808813  1.0000
  Te  Te6       1.0  0.7266729062623083  0.27332708545778756  0.7266728863816239  1.0000
