data_image0
_chemical_formula_structural       Y2CaO6
_chemical_formula_sum              "Y2 Ca1 O6"
_cell_length_a       5.349690314032599
_cell_length_b       5.349690411383088
_cell_length_c       5.349690506281046
_cell_angle_alpha    59.99999941258633
_cell_angle_beta     59.99999965271298
_cell_angle_gamma    60.000000753866594

_space_group_name_H-M_alt    "P 1"
_space_group_IT_number       1

loop_
  _space_group_symop_operation_xyz
  'x, y, z'

loop_
  _atom_site_type_symbol
  _atom_site_label
  _atom_site_symmetry_multiplicity
  _atom_site_fract_x
  _atom_site_fract_y
  _atom_site_fract_z
  _atom_site_occupancy
  Y   Y1        1.0  0.24999998668576312  0.25000000950330065  0.2499999524369195  1.0000
  Y   Y2        1.0  0.7499999904288979  0.749999982722397  0.7499999996059319  1.0000
  Ca  Ca1       1.0  0.999999975886789  0.9999999816849978  6.42072477941419e-08  1.0000
  O   O1        1.0  0.2758226379925778  0.27582259482624555  0.7241774215546404  1.0000
  O   O2        1.0  0.7241773639984207  0.7241774134250785  0.2758226278010511  1.0000
  O   O3        1.0  0.7241773637980835  0.27582262023386295  0.27582261113416545  1.0000
  O   O4        1.0  0.27582263426882137  0.7241773674130844  0.7241773831921486  1.0000
  O   O5        1.0  0.27582262325364004  0.7241773825781019  0.27582264785109784  1.0000
  O   O6        1.0  0.7241774029815005  0.27582263712009875  0.7241772976728017  1.0000
