data_image0
_chemical_formula_structural       Y2CaS6
_chemical_formula_sum              "Y2 Ca1 S6"
_cell_length_a       6.593637528361407
_cell_length_b       6.593637235553399
_cell_length_c       6.5936370965145334
_cell_angle_alpha    60.000001346252866
_cell_angle_beta     60.00000286805466
_cell_angle_gamma    60.00000053720321

_space_group_name_H-M_alt    "P 1"
_space_group_IT_number       1

loop_
  _space_group_symop_operation_xyz
  'x, y, z'

loop_
  _atom_site_type_symbol
  _atom_site_label
  _atom_site_symmetry_multiplicity
  _atom_site_fract_x
  _atom_site_fract_y
  _atom_site_fract_z
  _atom_site_occupancy
  Y   Y1        1.0  0.25000002889140704  0.25000000575852965  0.2500001053028885  1.0000
  Y   Y2        1.0  0.7500000917154619  0.7500000284203758  0.7499999483782177  1.0000
  Ca  Ca1       1.0  7.18006105597598e-08  0.9999999999999992  0.9999997851392852  1.0000
  S   S1        1.0  0.2697168229876994  0.26971685140587437  0.730283116035843  1.0000
  S   S2        1.0  0.7302829364248598  0.7302830527504983  0.26971703462554447  1.0000
  S   S3        1.0  0.7302830139409955  0.26971693082330506  0.26971698958570156  1.0000
  S   S4        1.0  0.26971699575540314  0.7302830420592635  0.7302830683016704  1.0000
  S   S5        1.0  0.2697169668105161  0.7302831086193948  0.26971691496940375  1.0000
  S   S6        1.0  0.7302830848608277  0.26971695899387493  0.7302830154172133  1.0000
