data_image0
_chemical_formula_structural       Y2CaSe6
_chemical_formula_sum              "Y2 Ca1 Se6"
_cell_length_a       6.949032585747213
_cell_length_b       6.949032451696963
_cell_length_c       6.949032575902516
_cell_angle_alpha    60.000001215811615
_cell_angle_beta     60.00000087256268
_cell_angle_gamma    60.000000414776274

_space_group_name_H-M_alt    "P 1"
_space_group_IT_number       1

loop_
  _space_group_symop_operation_xyz
  'x, y, z'

loop_
  _atom_site_type_symbol
  _atom_site_label
  _atom_site_symmetry_multiplicity
  _atom_site_fract_x
  _atom_site_fract_y
  _atom_site_fract_z
  _atom_site_occupancy
  Y   Y1        1.0  0.24999994176189516  0.24999999032274414  0.2500000593734831  1.0000
  Y   Y2        1.0  0.7499999462823012  0.7500001613147931  0.7499998569582024  1.0000
  Ca  Ca1       1.0  0.9999999790030618  0.9999999682755725  1.19701899518055e-08  1.0000
  Se  Se1       1.0  0.27221094713859545  0.27221091030729794  0.7277890700876795  1.0000
  Se  Se2       1.0  0.7277891907639894  0.727789035121464  0.2722109481774322  1.0000
  Se  Se3       1.0  0.7277889896346257  0.27221089567618306  0.27221099876416854  1.0000
  Se  Se4       1.0  0.27221092587186063  0.7277890938142825  0.7277890511061705  1.0000
  Se  Se5       1.0  0.2722109948109752  0.7277890700408175  0.27221092244592043  1.0000
  Se  Se6       1.0  0.7277890780848494  0.27221088596275284  0.7277890712293944  1.0000
