data_image0
_chemical_formula_structural       Y2CdO6
_chemical_formula_sum              "Y2 Cd1 O6"
_cell_length_a       5.3312604510407775
_cell_length_b       5.331260301441835
_cell_length_c       5.3312603490153565
_cell_angle_alpha    60.000000496254714
_cell_angle_beta     60.000000344591875
_cell_angle_gamma    60.000000419095386

_space_group_name_H-M_alt    "P 1"
_space_group_IT_number       1

loop_
  _space_group_symop_operation_xyz
  'x, y, z'

loop_
  _atom_site_type_symbol
  _atom_site_label
  _atom_site_symmetry_multiplicity
  _atom_site_fract_x
  _atom_site_fract_y
  _atom_site_fract_z
  _atom_site_occupancy
  Y   Y1        1.0  0.2500000219129602  0.25000004888108596  0.24999994219902744  1.0000
  Y   Y2        1.0  0.7499999451501885  0.750000034076069  0.7499999938197075  1.0000
  Cd  Cd1       1.0  8.85876386808081e-09  1.0337802975578447e-07  0.9999998651009829  1.0000
  O   O1        1.0  0.27433700974732916  0.2743369585242196  0.7256630002101851  1.0000
  O   O2        1.0  0.7256629021209812  0.7256629521362182  0.27433711145338574  1.0000
  O   O3        1.0  0.7256629850946205  0.2743369683982428  0.2743369998892231  1.0000
  O   O4        1.0  0.2743370730492617  0.7256629192892996  0.7256629863482211  1.0000
  O   O5        1.0  0.2743370279622074  0.7256629285317935  0.2743371258702098  1.0000
  O   O6        1.0  0.7256629929220466  0.2743370579392018  0.7256630115510421  1.0000
