data_image0
_chemical_formula_structural       Y2CdS6
_chemical_formula_sum              "Y2 Cd1 S6"
_cell_length_a       6.42090159359247
_cell_length_b       6.420901379539387
_cell_length_c       6.420901277109843
_cell_angle_alpha    60.00000210776858
_cell_angle_beta     60.00000291276931
_cell_angle_gamma    60.000004863877734

_space_group_name_H-M_alt    "P 1"
_space_group_IT_number       1

loop_
  _space_group_symop_operation_xyz
  'x, y, z'

loop_
  _atom_site_type_symbol
  _atom_site_label
  _atom_site_symmetry_multiplicity
  _atom_site_fract_x
  _atom_site_fract_y
  _atom_site_fract_z
  _atom_site_occupancy
  Y   Y1        1.0  0.24999995399925667  0.25000004308512525  0.24999998995936967  1.0000
  Y   Y2        1.0  0.7500000297364781  0.7500000090870146  0.7499999772412109  1.0000
  Cd  Cd1       1.0  1.9382889818811537e-08  0.9999999580364438  3.309412553480351e-08  1.0000
  S   S1        1.0  0.2668884216519057  0.26688843852780303  0.7331115543298575  1.0000
  S   S2        1.0  0.7331115792507368  0.7331115621436081  0.26688843626728825  1.0000
  S   S3        1.0  0.7331115679326214  0.2668884388000216  0.26688841830041987  1.0000
  S   S4        1.0  0.26688844250719185  0.7331115332598737  0.7331115865061395  1.0000
  S   S5        1.0  0.2668884454701736  0.7331115710389386  0.2668883879853571  1.0000
  S   S6        1.0  0.7331115313994392  0.2668884639662913  0.7331116036910493  1.0000
