data_image0
_chemical_formula_structural       Y2CoS6
_chemical_formula_sum              "Y2 Co1 S6"
_cell_length_a       6.1686733356523415
_cell_length_b       6.168673282127776
_cell_length_c       6.1686732281092596
_cell_angle_alpha    59.9999992421677
_cell_angle_beta     59.999999555445385
_cell_angle_gamma    60.00000014122892

_space_group_name_H-M_alt    "P 1"
_space_group_IT_number       1

loop_
  _space_group_symop_operation_xyz
  'x, y, z'

loop_
  _atom_site_type_symbol
  _atom_site_label
  _atom_site_symmetry_multiplicity
  _atom_site_fract_x
  _atom_site_fract_y
  _atom_site_fract_z
  _atom_site_occupancy
  Y   Y1        1.0  0.24999997830159437  0.25000001734924504  0.24999995059688163  1.0000
  Y   Y2        1.0  0.7500000676394848  0.7499999627035318  0.7500000635329511  1.0000
  Co  Co1       1.0  2.4996226182645417e-08  0.9999999980145736  0.9999999706625644  1.0000
  S   S1        1.0  0.24985549810565344  0.24985556560422628  0.7501444418498328  1.0000
  S   S2        1.0  0.7501444585335312  0.7501444184194037  0.2498555549650384  1.0000
  S   S3        1.0  0.7501444600775266  0.24985556385169364  0.24985551304610995  1.0000
  S   S4        1.0  0.24985554048428119  0.7501444400262038  0.7501444794389157  1.0000
  S   S5        1.0  0.2498555339146371  0.750144497642909  0.24985555614442653  1.0000
  S   S6        1.0  0.750144437339446  0.24985553800181542  0.7501444659118365  1.0000
