data_image0
_chemical_formula_structural       Y2CoTe6
_chemical_formula_sum              "Y2 Co1 Te6"
_cell_length_a       7.0385606897952995
_cell_length_b       7.038560746449038
_cell_length_c       7.03856109165214
_cell_angle_alpha    59.999998796462634
_cell_angle_beta     59.99999844906473
_cell_angle_gamma    59.99999969426536

_space_group_name_H-M_alt    "P 1"
_space_group_IT_number       1

loop_
  _space_group_symop_operation_xyz
  'x, y, z'

loop_
  _atom_site_type_symbol
  _atom_site_label
  _atom_site_symmetry_multiplicity
  _atom_site_fract_x
  _atom_site_fract_y
  _atom_site_fract_z
  _atom_site_occupancy
  Y   Y1        1.0  0.24999989575216766  0.2500001572779848  0.24999997408659327  1.0000
  Y   Y2        1.0  0.7499999887256765  0.7499999759196573  0.7500000308483005  1.0000
  Co  Co1       1.0  1.1483745408048335e-08  9.432075898099834e-17  5.624086734650472e-09  1.0000
  Te  Te1       1.0  0.24880326221349877  0.24880326549865714  0.7511967231243085  1.0000
  Te  Te2       1.0  0.7511967526315155  0.7511967128345204  0.2488032599613537  1.0000
  Te  Te3       1.0  0.7511967585542185  0.24880327572669356  0.24880326103079534  1.0000
  Te  Te4       1.0  0.24880329172010926  0.7511966799858322  0.7511967852670379  1.0000
  Te  Te5       1.0  0.24880326230476982  0.7511966991221196  0.24880325230203393  1.0000
  Te  Te6       1.0  0.7511967796844411  0.24880323222970335  0.7511967094458186  1.0000
