data_image0
_chemical_formula_structural       Y2CoO6
_chemical_formula_sum              "Y2 Co1 O6"
_cell_length_a       5.163891345599391
_cell_length_b       5.1638911903344
_cell_length_c       5.1638911369174
_cell_angle_alpha    60.000000457343695
_cell_angle_beta     59.99999891002336
_cell_angle_gamma    60.00000083966705

_space_group_name_H-M_alt    "P 1"
_space_group_IT_number       1

loop_
  _space_group_symop_operation_xyz
  'x, y, z'

loop_
  _atom_site_type_symbol
  _atom_site_label
  _atom_site_symmetry_multiplicity
  _atom_site_fract_x
  _atom_site_fract_y
  _atom_site_fract_z
  _atom_site_occupancy
  Y   Y1        1.0  0.250000003612298  0.24999999386007954  0.2500000785287653  1.0000
  Y   Y2        1.0  0.7499998992330987  0.7500000883088941  0.7499999591643874  1.0000
  Co  Co1       1.0  0.9999999337965164  7.115243969890206e-08  5.1748199993800545e-08  1.0000
  O   O1        1.0  0.24875021869669278  0.2487501068558755  0.7512498296019168  1.0000
  O   O2        1.0  0.7512498471829333  0.7512498685844398  0.24875012571577057  1.0000
  O   O3        1.0  0.7512498446534153  0.2487501661223317  0.2487501304015121  1.0000
  O   O4        1.0  0.2487502347784874  0.7512498022027394  0.7512497713480306  1.0000
  O   O5        1.0  0.24875017606835806  0.7512498206562052  0.24875016450920678  1.0000
  O   O6        1.0  0.7512498577384814  0.2487501168361418  0.7512498296919071  1.0000
