data_image0
_chemical_formula_structural       Y2CO6
_chemical_formula_sum              "Y2 C1 O6"
_cell_length_a       4.859393936323689
_cell_length_b       4.859393929747866
_cell_length_c       4.8593941458875465
_cell_angle_alpha    59.99999929923706
_cell_angle_beta     59.99999882069948
_cell_angle_gamma    59.999999551773435

_space_group_name_H-M_alt    "P 1"
_space_group_IT_number       1

loop_
  _space_group_symop_operation_xyz
  'x, y, z'

loop_
  _atom_site_type_symbol
  _atom_site_label
  _atom_site_symmetry_multiplicity
  _atom_site_fract_x
  _atom_site_fract_y
  _atom_site_fract_z
  _atom_site_occupancy
  Y   Y1        1.0  0.25000002383177095  0.24999996741243327  0.2499999810007922  1.0000
  Y   Y2        1.0  0.7500000187365107  0.750000010613017  0.7500000510133203  1.0000
  C   C1        1.0  1.219370764472895e-07  0.9999996698321204  1.1646261813669768e-07  1.0000
  O   O1        1.0  0.22837094443035866  0.2283710590864415  0.7716289679187147  1.0000
  O   O2        1.0  0.7716290953992229  0.7716290625998418  0.22837094630332905  1.0000
  O   O3        1.0  0.7716289583657497  0.22837106023351753  0.22837099482350112  1.0000
  O   O4        1.0  0.22837092364882444  0.771629071534228  0.771629069406494  1.0000
  O   O5        1.0  0.22837090429034382  0.7716290471332948  0.22837096676585814  1.0000
  O   O6        1.0  0.7716290090475606  0.22837106195116025  0.7716289511511072  1.0000
