data_image0
_chemical_formula_structural       Y2CrS6
_chemical_formula_sum              "Y2 Cr1 S6"
_cell_length_a       6.231457841989941
_cell_length_b       6.231457664284872
_cell_length_c       6.231457260961157
_cell_angle_alpha    60.00000072886074
_cell_angle_beta     59.99999958844744
_cell_angle_gamma    60.00000010834668

_space_group_name_H-M_alt    "P 1"
_space_group_IT_number       1

loop_
  _space_group_symop_operation_xyz
  'x, y, z'

loop_
  _atom_site_type_symbol
  _atom_site_label
  _atom_site_symmetry_multiplicity
  _atom_site_fract_x
  _atom_site_fract_y
  _atom_site_fract_z
  _atom_site_occupancy
  Y   Y1        1.0  0.24999989453888524  0.25000004121612973  0.25000001314350634  1.0000
  Y   Y2        1.0  0.7499999781181848  0.749999968379993  0.7499999746282296  1.0000
  Cr  Cr1       1.0  2.7136825204990717e-09  1.9654227482148086e-08  0.9999999856065226  1.0000
  S   S1        1.0  0.25365157132490446  0.2536516360922508  0.7463484332665008  1.0000
  S   S2        1.0  0.7463484929605899  0.7463483656421812  0.2536516311217753  1.0000
  S   S3        1.0  0.7463484617262072  0.2536515794062485  0.25365153693932974  1.0000
  S   S4        1.0  0.25365158140854405  0.7463484301898747  0.7463484329935258  1.0000
  S   S5        1.0  0.2536515981191613  0.7463483765368898  0.2536515795412966  1.0000
  S   S6        1.0  0.7463484199725695  0.2536515858890875  0.7463484168695769  1.0000
