data_image0
_chemical_formula_structural       Y2CrO6
_chemical_formula_sum              "Y2 Cr1 O6"
_cell_length_a       5.22032272843652
_cell_length_b       5.220322419062303
_cell_length_c       5.220322623215676
_cell_angle_alpha    59.999998592705566
_cell_angle_beta     59.99999935734106
_cell_angle_gamma    59.99999886059329

_space_group_name_H-M_alt    "P 1"
_space_group_IT_number       1

loop_
  _space_group_symop_operation_xyz
  'x, y, z'

loop_
  _atom_site_type_symbol
  _atom_site_label
  _atom_site_symmetry_multiplicity
  _atom_site_fract_x
  _atom_site_fract_y
  _atom_site_fract_z
  _atom_site_occupancy
  Y   Y1        1.0  0.2500000725180603  0.2500000552395819  0.24999989098152803  1.0000
  Y   Y2        1.0  0.7500000062399078  0.7499999569149831  0.7500000132637524  1.0000
  Cr  Cr1       1.0  3.3604548793965245e-08  0.9999999390011488  7.116486349685214e-08  1.0000
  O   O1        1.0  0.24647034961659506  0.246470365529308  0.7535296085109051  1.0000
  O   O2        1.0  0.7535296313907583  0.7535297076241082  0.2464703620000184  1.0000
  O   O3        1.0  0.7535296597303468  0.246470344885606  0.2464703446851557  1.0000
  O   O4        1.0  0.24647033079562222  0.7535296930761648  0.7535295984348838  1.0000
  O   O5        1.0  0.24647028620277364  0.7535296677593348  0.24647039566593285  1.0000
  O   O6        1.0  0.753529608987755  0.2464703045113645  0.7535297084221612  1.0000
