data_image0
_chemical_formula_structural       Y2CrSe6
_chemical_formula_sum              "Y2 Cr1 Se6"
_cell_length_a       6.550189726965061
_cell_length_b       6.550189815072445
_cell_length_c       6.5501899097332235
_cell_angle_alpha    60.00000006340433
_cell_angle_beta     59.99999885962241
_cell_angle_gamma    59.99999994028554

_space_group_name_H-M_alt    "P 1"
_space_group_IT_number       1

loop_
  _space_group_symop_operation_xyz
  'x, y, z'

loop_
  _atom_site_type_symbol
  _atom_site_label
  _atom_site_symmetry_multiplicity
  _atom_site_fract_x
  _atom_site_fract_y
  _atom_site_fract_z
  _atom_site_occupancy
  Y   Y1        1.0  0.25000011853551746  0.24999989437972323  0.2499999888317266  1.0000
  Y   Y2        1.0  0.7499999189479989  0.7500000253098813  0.7499999816789636  1.0000
  Cr  Cr1       1.0  0.999999983083344  2.430720938339334e-08  4.973828868938166e-08  1.0000
  Se  Se1       1.0  0.2554445363932715  0.2554445387750503  0.7445554600288964  1.0000
  Se  Se2       1.0  0.7445554251073492  0.7445555136693112  0.2554445263693896  1.0000
  Se  Se3       1.0  0.7445554282448197  0.2554445401260252  0.25544459483090454  1.0000
  Se  Se4       1.0  0.2554446319418842  0.7445553907822912  0.7445553846722821  1.0000
  Se  Se5       1.0  0.2554445405731257  0.744555456560389  0.2554445939412334  1.0000
  Se  Se6       1.0  0.744555404634101  0.2554446183213964  0.7445554168651569  1.0000
