data_image0
_chemical_formula_structural       Y2CS6
_chemical_formula_sum              "Y2 C1 S6"
_cell_length_a       6.106367700134221
_cell_length_b       6.106367685324357
_cell_length_c       6.106367786556407
_cell_angle_alpha    59.99999927950902
_cell_angle_beta     59.99999863401479
_cell_angle_gamma    59.999999536285685

_space_group_name_H-M_alt    "P 1"
_space_group_IT_number       1

loop_
  _space_group_symop_operation_xyz
  'x, y, z'

loop_
  _atom_site_type_symbol
  _atom_site_label
  _atom_site_symmetry_multiplicity
  _atom_site_fract_x
  _atom_site_fract_y
  _atom_site_fract_z
  _atom_site_occupancy
  Y   Y1        1.0  0.24999995532254898  0.2500000459937896  0.2500000033340671  1.0000
  Y   Y2        1.0  0.749999996867956  0.7499999835436401  0.749999980830042  1.0000
  C   C1        1.0  0.9999993670526773  1.3939509271047285e-06  0.9999990577894857  1.0000
  S   S1        1.0  0.23286646040492476  0.2328664963977461  0.7671334826140861  1.0000
  S   S2        1.0  0.7671330899120442  0.767133121974301  0.23286690643185104  1.0000
  S   S3        1.0  0.7671334019589219  0.23286659929768816  0.2328665237592773  1.0000
  S   S4        1.0  0.23286676779243082  0.7671332597565343  0.7671331928584345  1.0000
  S   S5        1.0  0.2328671639973882  0.7671328458151938  0.23286711851059902  1.0000
  S   S6        1.0  0.7671337881734234  0.2328662430560725  0.7671337579847896  1.0000
