data_image0
_chemical_formula_structural       Y2CuTe6
_chemical_formula_sum              "Y2 Cu1 Te6"
_cell_length_a       7.084626281662496
_cell_length_b       7.084626198799676
_cell_length_c       7.084626363732371
_cell_angle_alpha    59.999999612270926
_cell_angle_beta     60.00000023132286
_cell_angle_gamma    60.000000301999286

_space_group_name_H-M_alt    "P 1"
_space_group_IT_number       1

loop_
  _space_group_symop_operation_xyz
  'x, y, z'

loop_
  _atom_site_type_symbol
  _atom_site_label
  _atom_site_symmetry_multiplicity
  _atom_site_fract_x
  _atom_site_fract_y
  _atom_site_fract_z
  _atom_site_occupancy
  Y   Y1        1.0  0.24999994939794123  0.2500000094575081  0.2500000109003321  1.0000
  Y   Y2        1.0  0.7500000566531118  0.7499999799679162  0.749999947027629  1.0000
  Cu  Cu1       1.0  0.9999999812155662  0.9999999878988476  4.931896199421436e-08  1.0000
  Te  Te1       1.0  0.25987570018411016  0.2598756953166121  0.7401242994462222  1.0000
  Te  Te2       1.0  0.7401243163043011  0.7401243165823814  0.25987572107066953  1.0000
  Te  Te3       1.0  0.7401243229086303  0.2598756983762291  0.2598756769776972  1.0000
  Te  Te4       1.0  0.259875688410536  0.7401242996928756  0.7401243149280712  1.0000
  Te  Te5       1.0  0.2598756376198223  0.7401243160136848  0.259875719841352  1.0000
  Te  Te6       1.0  0.74012433812189  0.25987569588530834  0.7401242674116215  1.0000
