data_image0
_chemical_formula_structural       Y2CuSe6
_chemical_formula_sum              "Y2 Cu1 Se6"
_cell_length_a       6.553422752488587
_cell_length_b       6.553422483432854
_cell_length_c       6.553422581219642
_cell_angle_alpha    59.99999920950366
_cell_angle_beta     59.999999657282
_cell_angle_gamma    60.000001279905156

_space_group_name_H-M_alt    "P 1"
_space_group_IT_number       1

loop_
  _space_group_symop_operation_xyz
  'x, y, z'

loop_
  _atom_site_type_symbol
  _atom_site_label
  _atom_site_symmetry_multiplicity
  _atom_site_fract_x
  _atom_site_fract_y
  _atom_site_fract_z
  _atom_site_occupancy
  Y   Y1        1.0  0.24999991598516563  0.2500001893305567  0.24999998408114504  1.0000
  Y   Y2        1.0  0.7500001470093204  0.7499999998573301  0.7499998399399831  1.0000
  Cu  Cu1       1.0  0.9999999891258067  0.9999999850490957  1.4438469138141077e-08  1.0000
  Se  Se1       1.0  0.2608572592052988  0.2608572507449026  0.7391427525549478  1.0000
  Se  Se2       1.0  0.7391426618200566  0.7391427141794209  0.26085734918958253  1.0000
  Se  Se3       1.0  0.7391427041707122  0.26085725231981677  0.2608573219171189  1.0000
  Se  Se4       1.0  0.2608573080867951  0.7391426714895234  0.7391427028875392  1.0000
  Se  Se5       1.0  0.26085732831684194  0.7391426335401736  0.2608573164207284  1.0000
  Se  Se6       1.0  0.7391426800960572  0.26085730708893345  0.7391427293629144  1.0000
