data_image0
_chemical_formula_structural       Y2CuS6
_chemical_formula_sum              "Y2 Cu1 S6"
_cell_length_a       6.20978566158357
_cell_length_b       6.209785636075546
_cell_length_c       6.209785515485241
_cell_angle_alpha    60.00000111032278
_cell_angle_beta     59.99999982281632
_cell_angle_gamma    59.999999613213824

_space_group_name_H-M_alt    "P 1"
_space_group_IT_number       1

loop_
  _space_group_symop_operation_xyz
  'x, y, z'

loop_
  _atom_site_type_symbol
  _atom_site_label
  _atom_site_symmetry_multiplicity
  _atom_site_fract_x
  _atom_site_fract_y
  _atom_site_fract_z
  _atom_site_occupancy
  Y   Y1        1.0  0.2500000105013366  0.24999996526551402  0.2499999294305455  1.0000
  Y   Y2        1.0  0.7500000459640872  0.7500000476622601  0.7499999370208066  1.0000
  Cu  Cu1       1.0  4.05736029636467e-09  0.9999999822494622  5.515743601743647e-08  1.0000
  S   S1        1.0  0.2585496205585635  0.2585496386679997  0.741450355667895  1.0000
  S   S2        1.0  0.7414503421623674  0.7414503821489044  0.2585496551639185  1.0000
  S   S3        1.0  0.7414503789447192  0.2585495944192044  0.2585496702562616  1.0000
  S   S4        1.0  0.25854961792372827  0.7414503908966229  0.7414503541352241  1.0000
  S   S5        1.0  0.25854959840705843  0.7414503964529563  0.2585496695339898  1.0000
  S   S6        1.0  0.741450387510717  0.2585496105579737  0.7414503833028742  1.0000
