data_image0
_chemical_formula_structural       Y2CuO6
_chemical_formula_sum              "Y2 Cu1 O6"
_cell_length_a       5.145596734327007
_cell_length_b       5.1455963599085806
_cell_length_c       5.145596602609875
_cell_angle_alpha    59.99999912968935
_cell_angle_beta     59.999998532016484
_cell_angle_gamma    59.99999954748943

_space_group_name_H-M_alt    "P 1"
_space_group_IT_number       1

loop_
  _space_group_symop_operation_xyz
  'x, y, z'

loop_
  _atom_site_type_symbol
  _atom_site_label
  _atom_site_symmetry_multiplicity
  _atom_site_fract_x
  _atom_site_fract_y
  _atom_site_fract_z
  _atom_site_occupancy
  Y   Y1        1.0  0.24999998937868662  0.2499999417955238  0.25000010493897895  1.0000
  Y   Y2        1.0  0.7500001152441553  0.7499999562965051  0.7499999270515373  1.0000
  Cu  Cu1       1.0  0.9999999839065901  0.9999999809585554  6.420924929341938e-08  1.0000
  O   O1        1.0  0.25808146595609427  0.2580814584772461  0.7419185205031593  1.0000
  O   O2        1.0  0.7419185216335377  0.7419185752850769  0.2580814555269956  1.0000
  O   O3        1.0  0.7419185469551723  0.2580814884989829  0.25808145686063666  1.0000
  O   O4        1.0  0.25808144591596505  0.7419185428831592  0.741918502171582  1.0000
  O   O5        1.0  0.2580814274145568  0.7419185110649522  0.258081498844305  1.0000
  O   O6        1.0  0.7419185453962046  0.25808151317664757  0.741918471844964  1.0000
