data_image0
_chemical_formula_structural       Y2FeS6
_chemical_formula_sum              "Y2 Fe1 S6"
_cell_length_a       6.1770288741779735
_cell_length_b       6.177028675466556
_cell_length_c       6.177028807968844
_cell_angle_alpha    60.000000137658674
_cell_angle_beta     60.00000063392977
_cell_angle_gamma    59.9999999042317

_space_group_name_H-M_alt    "P 1"
_space_group_IT_number       1

loop_
  _space_group_symop_operation_xyz
  'x, y, z'

loop_
  _atom_site_type_symbol
  _atom_site_label
  _atom_site_symmetry_multiplicity
  _atom_site_fract_x
  _atom_site_fract_y
  _atom_site_fract_z
  _atom_site_occupancy
  Y   Y1        1.0  0.24999997889795325  0.24999994442575196  0.2500000236326767  1.0000
  Y   Y2        1.0  0.7499999237184913  0.7500000236204026  0.7499999271714978  1.0000
  Fe  Fe1       1.0  1.693751049904256e-08  0.999999994051777  2.364557977052692e-08  1.0000
  S   S1        1.0  0.24816143950897768  0.24816142621750073  0.7518385825297225  1.0000
  S   S2        1.0  0.7518386031755794  0.7518385814834779  0.2481614419220161  1.0000
  S   S3        1.0  0.7518385841200939  0.24816141168032999  0.24816143914186023  1.0000
  S   S4        1.0  0.2481614453656451  0.7518386019688716  0.7518385549382486  1.0000
  S   S5        1.0  0.2481613819387061  0.7518385917147364  0.24816142971240882  1.0000
  S   S6        1.0  0.751838610480838  0.24816143779639405  0.7518385652564251  1.0000
