data_image0
_chemical_formula_structural       Y2FeSe6
_chemical_formula_sum              "Y2 Fe1 Se6"
_cell_length_a       6.564111321048514
_cell_length_b       6.564111361506481
_cell_length_c       6.5641112582484356
_cell_angle_alpha    59.99999959783632
_cell_angle_beta     59.99999960797028
_cell_angle_gamma    60.00000052636537

_space_group_name_H-M_alt    "P 1"
_space_group_IT_number       1

loop_
  _space_group_symop_operation_xyz
  'x, y, z'

loop_
  _atom_site_type_symbol
  _atom_site_label
  _atom_site_symmetry_multiplicity
  _atom_site_fract_x
  _atom_site_fract_y
  _atom_site_fract_z
  _atom_site_occupancy
  Y   Y1        1.0  0.25000007948410163  0.24999993463750184  0.249999910772327  1.0000
  Y   Y2        1.0  0.749999839252672  0.7500001360284182  0.7500000705459375  1.0000
  Fe  Fe1       1.0  1.7289301682012328e-08  0.9999999850734422  0.9999999713967894  1.0000
  Se  Se1       1.0  0.24574857782995607  0.24574848499071003  0.7542515404756054  1.0000
  Se  Se2       1.0  0.7542514164785303  0.754251527834797  0.2457485203362671  1.0000
  Se  Se3       1.0  0.754251468697664  0.2457485581208603  0.24574856848621535  1.0000
  Se  Se4       1.0  0.2457485507719269  0.754251426717351  0.7542514556528658  1.0000
  Se  Se5       1.0  0.2457486021252076  0.754251441868808  0.24574851337291945  1.0000
  Se  Se6       1.0  0.7542514537888065  0.24574850751882857  0.7542514478083828  1.0000
