data_image0
_chemical_formula_structural       Y2FeO6
_chemical_formula_sum              "Y2 Fe1 O6"
_cell_length_a       5.22722887946541
_cell_length_b       5.227228802106983
_cell_length_c       5.227228832175708
_cell_angle_alpha    59.99999927017872
_cell_angle_beta     59.99999975368708
_cell_angle_gamma    59.99999882473395

_space_group_name_H-M_alt    "P 1"
_space_group_IT_number       1

loop_
  _space_group_symop_operation_xyz
  'x, y, z'

loop_
  _atom_site_type_symbol
  _atom_site_label
  _atom_site_symmetry_multiplicity
  _atom_site_fract_x
  _atom_site_fract_y
  _atom_site_fract_z
  _atom_site_occupancy
  Y   Y1        1.0  0.2499999561505033  0.2500000155637377  0.2500000491892404  1.0000
  Y   Y2        1.0  0.7499999908851019  0.7499999974880047  0.7500000076473137  1.0000
  Fe  Fe1       1.0  5.846029821834525e-09  2.343010374310547e-09  0.9999998715566096  1.0000
  O   O1        1.0  0.24639681292939272  0.2463967478283106  0.7536032439671178  1.0000
  O   O2        1.0  0.753603238488711  0.7536031972761439  0.24639679656489039  1.0000
  O   O3        1.0  0.7536032278268786  0.2463967598987201  0.24639675167281105  1.0000
  O   O4        1.0  0.2463967335998102  0.75360330938526  0.753603244982308  1.0000
  O   O5        1.0  0.2463967495387528  0.7536032036633796  0.2463968359147937  1.0000
  O   O6        1.0  0.7536032964123278  0.24639675784214424  0.7536032106285486  1.0000
