data_image0
_chemical_formula_structural       Y2FeTe6
_chemical_formula_sum              "Y2 Fe1 Te6"
_cell_length_a       6.997880787517131
_cell_length_b       6.997880634609793
_cell_length_c       6.997881092104398
_cell_angle_alpha    59.99999978915307
_cell_angle_beta     60.000000055877685
_cell_angle_gamma    59.999999867804505

_space_group_name_H-M_alt    "P 1"
_space_group_IT_number       1

loop_
  _space_group_symop_operation_xyz
  'x, y, z'

loop_
  _atom_site_type_symbol
  _atom_site_label
  _atom_site_symmetry_multiplicity
  _atom_site_fract_x
  _atom_site_fract_y
  _atom_site_fract_z
  _atom_site_occupancy
  Y   Y1        1.0  0.2500000070026986  0.25000000437849  0.25000001139014444  1.0000
  Y   Y2        1.0  0.7499999671047689  0.7500000708909281  0.7499999750842083  1.0000
  Fe  Fe1       1.0  0.9999999920499224  0.9999999842485114  3.0427834612672126e-08  1.0000
  Te  Te1       1.0  0.24339256589578176  0.24339255704200136  0.7566074202787375  1.0000
  Te  Te2       1.0  0.7566074646487532  0.756607442970304  0.2433925998987053  1.0000
  Te  Te3       1.0  0.7566074405665245  0.24339251270336806  0.24339260699187887  1.0000
  Te  Te4       1.0  0.24339256001078474  0.7566074435548008  0.7566074100341326  1.0000
  Te  Te5       1.0  0.24339257481198628  0.7566074105977839  0.24339254696279153  1.0000
  Te  Te6       1.0  0.7566074307984578  0.24339257016270008  0.7566074009933433  1.0000
