data_image0
_chemical_formula_structural       Y2GeSe6
_chemical_formula_sum              "Y2 Ge1 Se6"
_cell_length_a       6.7115504533904495
_cell_length_b       6.711550377522054
_cell_length_c       6.711550402004537
_cell_angle_alpha    59.99999997861627
_cell_angle_beta     60.0000003686112
_cell_angle_gamma    60.00000037681293

_space_group_name_H-M_alt    "P 1"
_space_group_IT_number       1

loop_
  _space_group_symop_operation_xyz
  'x, y, z'

loop_
  _atom_site_type_symbol
  _atom_site_label
  _atom_site_symmetry_multiplicity
  _atom_site_fract_x
  _atom_site_fract_y
  _atom_site_fract_z
  _atom_site_occupancy
  Y   Y1        1.0  0.2499997537380114  0.2500000230134601  0.2500001684992493  1.0000
  Y   Y2        1.0  0.750000006230237  0.7499999759739766  0.7499999187783271  1.0000
  Ge  Ge1       1.0  8.87961775413661e-09  4.5620788209855484e-08  0.9999999906294215  1.0000
  Se  Se1       1.0  0.25634406599709186  0.2563440958155484  0.7436558938813423  1.0000
  Se  Se2       1.0  0.7436559809940655  0.7436558885732378  0.25634409890322846  1.0000
  Se  Se3       1.0  0.7436559919015697  0.25634405651055536  0.2563441051810187  1.0000
  Se  Se4       1.0  0.2563440883867498  0.7436559260533995  0.7436559076266356  1.0000
  Se  Se5       1.0  0.25634409533608593  0.7436558983448414  0.256344087788423  1.0000
  Se  Se6       1.0  0.7436560106548842  0.25634408969360806  0.7436558289723492  1.0000
