data_image0
_chemical_formula_structural       Y2GeO6
_chemical_formula_sum              "Y2 Ge1 O6"
_cell_length_a       5.221529885296318
_cell_length_b       5.221529709736416
_cell_length_c       5.221529546493581
_cell_angle_alpha    59.99999738441682
_cell_angle_beta     59.999996712131036
_cell_angle_gamma    59.999995922622325

_space_group_name_H-M_alt    "P 1"
_space_group_IT_number       1

loop_
  _space_group_symop_operation_xyz
  'x, y, z'

loop_
  _atom_site_type_symbol
  _atom_site_label
  _atom_site_symmetry_multiplicity
  _atom_site_fract_x
  _atom_site_fract_y
  _atom_site_fract_z
  _atom_site_occupancy
  Y   Y1        1.0  0.24999993828810446  0.24999986982705139  0.2500000915635013  1.0000
  Y   Y2        1.0  0.7499999786587875  0.7500000269921234  0.7500000165952737  1.0000
  Ge  Ge1       1.0  2.575520842117051e-08  2.345567096969893e-09  0.9999999706284299  1.0000
  O   O1        1.0  0.25332621121425053  0.2533261082812939  0.7466737890595994  1.0000
  O   O2        1.0  0.7466738719456956  0.7466738471770613  0.25332611474596306  1.0000
  O   O3        1.0  0.7466738959475934  0.2533261557097778  0.2533262224226533  1.0000
  O   O4        1.0  0.25332612513536745  0.7466738466599201  0.7466738632441672  1.0000
  O   O5        1.0  0.2533262161164481  0.746673840522277  0.25332612508262353  1.0000
  O   O6        1.0  0.7466738227229848  0.25332627443464995  0.7466738628548326  1.0000
