data_image0
_chemical_formula_structural       Y2GeTe6
_chemical_formula_sum              "Y2 Ge1 Te6"
_cell_length_a       7.256345448882799
_cell_length_b       7.256345561660824
_cell_length_c       7.2563455444788865
_cell_angle_alpha    59.99999934671271
_cell_angle_beta     60.00000037106709
_cell_angle_gamma    60.00000004637649

_space_group_name_H-M_alt    "P 1"
_space_group_IT_number       1

loop_
  _space_group_symop_operation_xyz
  'x, y, z'

loop_
  _atom_site_type_symbol
  _atom_site_label
  _atom_site_symmetry_multiplicity
  _atom_site_fract_x
  _atom_site_fract_y
  _atom_site_fract_z
  _atom_site_occupancy
  Y   Y1        1.0  0.2499999590725593  0.24999999839772505  0.25000001972030766  1.0000
  Y   Y2        1.0  0.7499999810215754  0.7500000036323058  0.7499999534276597  1.0000
  Ge  Ge1       1.0  0.9999999760340071  5.063477987146685e-09  1.2207465577183345e-08  1.0000
  Te  Te1       1.0  0.2618876577171169  0.26188765682590737  0.738112333991559  1.0000
  Te  Te2       1.0  0.7381123299228906  0.738112355331079  0.26188766544416103  1.0000
  Te  Te3       1.0  0.738112343531442  0.2618876901997486  0.26188765899891675  1.0000
  Te  Te4       1.0  0.26188771965521995  0.7381123101424556  0.7381123140832843  1.0000
  Te  Te5       1.0  0.26188766680639775  0.7381123138563046  0.26188772685161343  1.0000
  Te  Te6       1.0  0.7381123611952215  0.2618876679198129  0.7381123172054853  1.0000
