data_image0
_chemical_formula_structural       Y2GeS6
_chemical_formula_sum              "Y2 Ge1 S6"
_cell_length_a       6.407887842827006
_cell_length_b       6.407887650172654
_cell_length_c       6.407887801581496
_cell_angle_alpha    59.999999428384285
_cell_angle_beta     60.00000008641718
_cell_angle_gamma    59.99999927479168

_space_group_name_H-M_alt    "P 1"
_space_group_IT_number       1

loop_
  _space_group_symop_operation_xyz
  'x, y, z'

loop_
  _atom_site_type_symbol
  _atom_site_label
  _atom_site_symmetry_multiplicity
  _atom_site_fract_x
  _atom_site_fract_y
  _atom_site_fract_z
  _atom_site_occupancy
  Y   Y1        1.0  0.24999997392217468  0.24999994306372633  0.2500000571471826  1.0000
  Y   Y2        1.0  0.7499999986496538  0.7499999553375267  0.7500001058200718  1.0000
  Ge  Ge1       1.0  0.9999999960680738  1.7201774702651667e-08  1.1679589844956792e-09  1.0000
  S   S1        1.0  0.25374121682723416  0.2537412635925491  0.7462587706274705  1.0000
  S   S2        1.0  0.7462587562161225  0.7462587361080436  0.2537412696678251  1.0000
  S   S3        1.0  0.7462587646264078  0.25374127651042705  0.25374119924768196  1.0000
  S   S4        1.0  0.25374120741440764  0.7462588072877304  0.7462586902597375  1.0000
  S   S5        1.0  0.2537412939706836  0.7462587657422737  0.2537411646823971  1.0000
  S   S6        1.0  0.7462587991694815  0.2537412358696271  0.7462587412617381  1.0000
