data_image0
_chemical_formula_structural       Y2HgSe6
_chemical_formula_sum              "Y2 Hg1 Se6"
_cell_length_a       6.821894183176461
_cell_length_b       6.821894169483886
_cell_length_c       6.8218943124636695
_cell_angle_alpha    60.000000448083355
_cell_angle_beta     60.00000025351472
_cell_angle_gamma    59.99999802916582

_space_group_name_H-M_alt    "P 1"
_space_group_IT_number       1

loop_
  _space_group_symop_operation_xyz
  'x, y, z'

loop_
  _atom_site_type_symbol
  _atom_site_label
  _atom_site_symmetry_multiplicity
  _atom_site_fract_x
  _atom_site_fract_y
  _atom_site_fract_z
  _atom_site_occupancy
  Y   Y1        1.0  0.24999998054292938  0.2500000720080106  0.24999994145018484  1.0000
  Y   Y2        1.0  0.7500000403006502  0.7500000418784757  0.7499997609424741  1.0000
  Hg  Hg1       1.0  4.001333611702343e-09  0.9999999676843299  0.9999999643176389  1.0000
  Se  Se1       1.0  0.270832824603026  0.27083289510629543  0.7291671673764237  1.0000
  Se  Se2       1.0  0.7291671385383224  0.7291671379910216  0.2708329472751639  1.0000
  Se  Se3       1.0  0.7291671890439363  0.27083276296153613  0.2708329126611353  1.0000
  Se  Se4       1.0  0.27083288360860674  0.7291671193293202  0.7291672035817942  1.0000
  Se  Se5       1.0  0.2708328145872413  0.7291671364674778  0.2708328700644024  1.0000
  Se  Se6       1.0  0.7291671237805748  0.27083286431417003  0.729167230621599  1.0000
