data_image0
_chemical_formula_structural       Y2HgS6
_chemical_formula_sum              "Y2 Hg1 S6"
_cell_length_a       6.479908664304268
_cell_length_b       6.479908616272224
_cell_length_c       6.479908469092586
_cell_angle_alpha    60.00000087806795
_cell_angle_beta     60.000000161193434
_cell_angle_gamma    60.00000037575977

_space_group_name_H-M_alt    "P 1"
_space_group_IT_number       1

loop_
  _space_group_symop_operation_xyz
  'x, y, z'

loop_
  _atom_site_type_symbol
  _atom_site_label
  _atom_site_symmetry_multiplicity
  _atom_site_fract_x
  _atom_site_fract_y
  _atom_site_fract_z
  _atom_site_occupancy
  Y   Y1        1.0  0.25000000396263716  0.25000013671322996  0.2499999430539072  1.0000
  Y   Y2        1.0  0.7499999804149194  0.7499999111625248  0.7500001098191166  1.0000
  Hg  Hg1       1.0  0.9999999832241508  7.560259780691852e-09  0.9999999413352961  1.0000
  S   S1        1.0  0.2648089547276575  0.2648089345267  0.7351911204536309  1.0000
  S   S2        1.0  0.7351910781244754  0.7351910320762592  0.26480898585606216  1.0000
  S   S3        1.0  0.7351910195186442  0.26480900166187127  0.26480889762282833  1.0000
  S   S4        1.0  0.26480891161599135  0.7351910348734928  0.7351910471077692  1.0000
  S   S5        1.0  0.26480899722244083  0.735191025152705  0.2648089081617685  1.0000
  S   S6        1.0  0.7351910480139379  0.26480891498934317  0.7351910416036996  1.0000
