data_image0
_chemical_formula_structural       Y2HgTe6
_chemical_formula_sum              "Y2 Hg1 Te6"
_cell_length_a       7.337377490272496
_cell_length_b       7.337377554766019
_cell_length_c       7.337377435832464
_cell_angle_alpha    60.000000038143966
_cell_angle_beta     59.99999963688526
_cell_angle_gamma    59.99999963835177

_space_group_name_H-M_alt    "P 1"
_space_group_IT_number       1

loop_
  _space_group_symop_operation_xyz
  'x, y, z'

loop_
  _atom_site_type_symbol
  _atom_site_label
  _atom_site_symmetry_multiplicity
  _atom_site_fract_x
  _atom_site_fract_y
  _atom_site_fract_z
  _atom_site_occupancy
  Y   Y1        1.0  0.25000001361113455  0.250000080140436  0.24999996767203275  1.0000
  Y   Y2        1.0  0.7500000173122513  0.7499999332910635  0.7500000233666003  1.0000
  Hg  Hg1       1.0  1.51808424917878e-08  1.6691860726781498e-09  0.9999999793090226  1.0000
  Te  Te1       1.0  0.270243598187644  0.2702436136562321  0.7297564005632646  1.0000
  Te  Te2       1.0  0.7297564084153226  0.7297563547072425  0.27024361699228217  1.0000
  Te  Te3       1.0  0.7297563787429306  0.27024363036087584  0.2702435759828284  1.0000
  Te  Te4       1.0  0.27024360043849516  0.7297563730555076  0.7297564104993388  1.0000
  Te  Te5       1.0  0.27024359996174074  0.7297563829392002  0.2702436194514567  1.0000
  Te  Te6       1.0  0.7297563728293276  0.2702436254847414  0.7297564031571144  1.0000
