data_image0
_chemical_formula_structural       Y2HgO6
_chemical_formula_sum              "Y2 Hg1 O6"
_cell_length_a       5.374588011730839
_cell_length_b       5.374588186923498
_cell_length_c       5.374587957277948
_cell_angle_alpha    59.999999683001576
_cell_angle_beta     59.99999894443419
_cell_angle_gamma    59.99999949799957

_space_group_name_H-M_alt    "P 1"
_space_group_IT_number       1

loop_
  _space_group_symop_operation_xyz
  'x, y, z'

loop_
  _atom_site_type_symbol
  _atom_site_label
  _atom_site_symmetry_multiplicity
  _atom_site_fract_x
  _atom_site_fract_y
  _atom_site_fract_z
  _atom_site_occupancy
  Y   Y1        1.0  0.24999991139084404  0.2500000002309318  0.2500000404059433  1.0000
  Y   Y2        1.0  0.7500000046382839  0.7499999756263264  0.7500000003787937  1.0000
  Hg  Hg1       1.0  5.816069287443858e-09  0.9999999954424604  1.0534381653728214e-08  1.0000
  O   O1        1.0  0.26838540623973217  0.2683852937228207  0.7316146609399751  1.0000
  O   O2        1.0  0.7316146441211767  0.7316146980858238  0.26838533261229264  1.0000
  O   O3        1.0  0.7316146837806317  0.26838541183400055  0.2683853433398693  1.0000
  O   O4        1.0  0.26838531827189244  0.7316146346651178  0.7316146209728452  1.0000
  O   O5        1.0  0.26838537067927404  0.731614670941753  0.2683853524019082  1.0000
  O   O6        1.0  0.7316146634919566  0.26838534365458894  0.7316146248270956  1.0000
