data_image0
_chemical_formula_structural       Y2InS6
_chemical_formula_sum              "Y2 In1 S6"
_cell_length_a       6.500933873735954
_cell_length_b       6.500933797314984
_cell_length_c       6.5009339876046095
_cell_angle_alpha    59.99999968553139
_cell_angle_beta     59.99999759951654
_cell_angle_gamma    60.00000049076272

_space_group_name_H-M_alt    "P 1"
_space_group_IT_number       1

loop_
  _space_group_symop_operation_xyz
  'x, y, z'

loop_
  _atom_site_type_symbol
  _atom_site_label
  _atom_site_symmetry_multiplicity
  _atom_site_fract_x
  _atom_site_fract_y
  _atom_site_fract_z
  _atom_site_occupancy
  Y   Y1        1.0  0.24999995670706915  0.24999998087349332  0.2500000622607416  1.0000
  Y   Y2        1.0  0.7499999873139165  0.7500000066748546  0.7499999038786183  1.0000
  In  In1       1.0  0.9999999255255252  0.9999999623209561  1.668300767963461e-07  1.0000
  S   S1        1.0  0.2655826137449311  0.2655826393703117  0.7344173930033692  1.0000
  S   S2        1.0  0.7344174738594035  0.7344174875905045  0.265582562388524  1.0000
  S   S3        1.0  0.7344174426688834  0.26558254654191327  0.2655826235710252  1.0000
  S   S4        1.0  0.26558267285618353  0.7344173581125396  0.734417325951568  1.0000
  S   S5        1.0  0.2655826024893621  0.7344173872065112  0.26558264286520755  1.0000
  S   S6        1.0  0.7344173337803248  0.2655826342529769  0.7344173240383965  1.0000
