data_image0
_chemical_formula_structural       Y2InO6
_chemical_formula_sum              "Y2 In1 O6"
_cell_length_a       5.343761056787777
_cell_length_b       5.343761514604302
_cell_length_c       5.343761090954293
_cell_angle_alpha    59.99999864710897
_cell_angle_beta     59.999999938168386
_cell_angle_gamma    59.999999738056495

_space_group_name_H-M_alt    "P 1"
_space_group_IT_number       1

loop_
  _space_group_symop_operation_xyz
  'x, y, z'

loop_
  _atom_site_type_symbol
  _atom_site_label
  _atom_site_symmetry_multiplicity
  _atom_site_fract_x
  _atom_site_fract_y
  _atom_site_fract_z
  _atom_site_occupancy
  Y   Y1        1.0  0.25000006710933187  0.24999990276352183  0.24999998248288663  1.0000
  Y   Y2        1.0  0.7500000483839274  0.7499999856123162  0.7499999563707737  1.0000
  In  In1       1.0  0.9999999509336058  4.583831764876764e-09  9.141892975126352e-09  1.0000
  O   O1        1.0  0.27270962450842046  0.2727096388018673  0.7272903752521034  1.0000
  O   O2        1.0  0.727290314076858  0.7272904237595329  0.27270963420238337  1.0000
  O   O3        1.0  0.727290368840189  0.27270961197365645  0.27270968735213835  1.0000
  O   O4        1.0  0.2727096557217949  0.7272903612030441  0.7272903631045122  1.0000
  O   O5        1.0  0.2727095896480017  0.7272903888222328  0.2727096818375483  1.0000
  O   O6        1.0  0.7272903373691126  0.2727096760310804  0.7272903883952984  1.0000
