data_image0
_chemical_formula_structural       Y2InTe6
_chemical_formula_sum              "Y2 In1 Te6"
_cell_length_a       7.388864527137958
_cell_length_b       7.38886448358345
_cell_length_c       7.38886450958752
_cell_angle_alpha    59.99999983861678
_cell_angle_beta     60.000000001844676
_cell_angle_gamma    59.999999812058235

_space_group_name_H-M_alt    "P 1"
_space_group_IT_number       1

loop_
  _space_group_symop_operation_xyz
  'x, y, z'

loop_
  _atom_site_type_symbol
  _atom_site_label
  _atom_site_symmetry_multiplicity
  _atom_site_fract_x
  _atom_site_fract_y
  _atom_site_fract_z
  _atom_site_occupancy
  Y   Y1        1.0  0.2499999919559906  0.2500000126223475  0.2499999805914728  1.0000
  Y   Y2        1.0  0.74999998371429  0.7499999815101751  0.7500000391126408  1.0000
  In  In1       1.0  0.9999999852093322  0.9999999834244507  0.9999999926755139  1.0000
  Te  Te1       1.0  0.2680210513641345  0.2680211071682121  0.7319789354304232  1.0000
  Te  Te2       1.0  0.7319789605014367  0.7319789284031837  0.2680210441032205  1.0000
  Te  Te3       1.0  0.7319789383274434  0.2680210673849597  0.2680210765433985  1.0000
  Te  Te4       1.0  0.26802106630938666  0.7319789101720134  0.7319789491457064  1.0000
  Te  Te5       1.0  0.26802109621544656  0.7319789434250836  0.2680210488636099  1.0000
  Te  Te6       1.0  0.7319789329515219  0.26802105899521356  0.7319789372414965  1.0000
