data_image0
_chemical_formula_structural       Y2MgSe6
_chemical_formula_sum              "Y2 Mg1 Se6"
_cell_length_a       6.584755960135301
_cell_length_b       6.584755632703387
_cell_length_c       6.584756234653901
_cell_angle_alpha    59.99999844069043
_cell_angle_beta     60.00000008320269
_cell_angle_gamma    59.99999810089824

_space_group_name_H-M_alt    "P 1"
_space_group_IT_number       1

loop_
  _space_group_symop_operation_xyz
  'x, y, z'

loop_
  _atom_site_type_symbol
  _atom_site_label
  _atom_site_symmetry_multiplicity
  _atom_site_fract_x
  _atom_site_fract_y
  _atom_site_fract_z
  _atom_site_occupancy
  Y   Y1        1.0  0.249999948356524  0.24999987236734797  0.25000007127565416  1.0000
  Y   Y2        1.0  0.7499998126110666  0.7500000932544043  0.7499998249275384  1.0000
  Mg  Mg1       1.0  1.1016944084367609e-08  3.533943310068757e-08  0.999999976821812  1.0000
  Se  Se1       1.0  0.2654443148598096  0.26544418475852893  0.7345558024343254  1.0000
  Se  Se2       1.0  0.7345557883599835  0.734555795742988  0.2654443222035272  1.0000
  Se  Se3       1.0  0.7345558337942752  0.2654442102663873  0.26544421359319487  1.0000
  Se  Se4       1.0  0.2654443081991365  0.7345557906948001  0.7345557766405357  1.0000
  Se  Se5       1.0  0.26544420744052677  0.734555709238949  0.26544420135934854  1.0000
  Se  Se6       1.0  0.734555782609974  0.2654442898622684  0.7345558202160477  1.0000
