data_image0
_chemical_formula_structural       Y2MgS6
_chemical_formula_sum              "Y2 Mg1 S6"
_cell_length_a       6.223218740022915
_cell_length_b       6.223218751841602
_cell_length_c       6.223218776046968
_cell_angle_alpha    59.9999990903409
_cell_angle_beta     59.99999999731305
_cell_angle_gamma    60.00000235599911

_space_group_name_H-M_alt    "P 1"
_space_group_IT_number       1

loop_
  _space_group_symop_operation_xyz
  'x, y, z'

loop_
  _atom_site_type_symbol
  _atom_site_label
  _atom_site_symmetry_multiplicity
  _atom_site_fract_x
  _atom_site_fract_y
  _atom_site_fract_z
  _atom_site_occupancy
  Y   Y1        1.0  0.2499999957969141  0.24999996002240896  0.24999998272381346  1.0000
  Y   Y2        1.0  0.7500000285101555  0.749999929267847  0.7499999672868435  1.0000
  Mg  Mg1       1.0  0.9999999850629848  0.9999999724476524  4.5347963978528534e-08  1.0000
  S   S1        1.0  0.26246946323626436  0.26246943148035695  0.7375305360333575  1.0000
  S   S2        1.0  0.7375305973537448  0.7375305660512623  0.2624694075974528  1.0000
  S   S3        1.0  0.7375305874161892  0.2624694192031472  0.2624694803555236  1.0000
  S   S4        1.0  0.26246938635893946  0.7375306550814356  0.737530498837069  1.0000
  S   S5        1.0  0.26246937545069565  0.7375306182978126  0.26246951544681946  1.0000
  S   S6        1.0  0.7375305844743285  0.2624694363065209  0.7375305817447365  1.0000
