data_image0
_chemical_formula_structural       Y2MgTe6
_chemical_formula_sum              "Y2 Mg1 Te6"
_cell_length_a       7.234080891681252
_cell_length_b       7.234080703394481
_cell_length_c       7.234080895816363
_cell_angle_alpha    59.999999272458254
_cell_angle_beta     60.00000027390898
_cell_angle_gamma    60.000000486001994

_space_group_name_H-M_alt    "P 1"
_space_group_IT_number       1

loop_
  _space_group_symop_operation_xyz
  'x, y, z'

loop_
  _atom_site_type_symbol
  _atom_site_label
  _atom_site_symmetry_multiplicity
  _atom_site_fract_x
  _atom_site_fract_y
  _atom_site_fract_z
  _atom_site_occupancy
  Y   Y1        1.0  0.25000001973050634  0.24999991585422943  0.2500001010728322  1.0000
  Y   Y2        1.0  0.7500000148630414  0.7500000912459016  0.7499998936601536  1.0000
  Mg  Mg1       1.0  0.9999999808290447  2.878135261798127e-08  0.9999999730772715  1.0000
  Te  Te1       1.0  0.2660391503561919  0.2660390515984965  0.7339608935843166  1.0000
  Te  Te2       1.0  0.733960819744994  0.7339609334923639  0.26603916651701515  1.0000
  Te  Te3       1.0  0.7339608271164174  0.26603913418820957  0.2660391601555636  1.0000
  Te  Te4       1.0  0.2660391052874111  0.7339609304746259  0.7339608250969805  1.0000
  Te  Te5       1.0  0.2660391468768034  0.7339608302959715  0.26603914481305047  1.0000
  Te  Te6       1.0  0.7339609357492638  0.2660390853810393  0.7339608370565955  1.0000
