data_image0
_chemical_formula_structural       Y2MgO6
_chemical_formula_sum              "Y2 Mg1 O6"
_cell_length_a       5.138980345602193
_cell_length_b       5.138980163206078
_cell_length_c       5.138980149885769
_cell_angle_alpha    60.000001080839205
_cell_angle_beta     60.00000170658645
_cell_angle_gamma    60.00000034764979

_space_group_name_H-M_alt    "P 1"
_space_group_IT_number       1

loop_
  _space_group_symop_operation_xyz
  'x, y, z'

loop_
  _atom_site_type_symbol
  _atom_site_label
  _atom_site_symmetry_multiplicity
  _atom_site_fract_x
  _atom_site_fract_y
  _atom_site_fract_z
  _atom_site_occupancy
  Y   Y1        1.0  0.2500000320718546  0.24999999329670583  0.2500000221585692  1.0000
  Y   Y2        1.0  0.7499999278076175  0.7500000132555456  0.7500000075127261  1.0000
  Mg  Mg1       1.0  5.7922136253473145e-08  0.9999999475686111  4.5902410823925135e-08  1.0000
  O   O1        1.0  0.2644181420243423  0.26441810588262177  0.735581875058232  1.0000
  O   O2        1.0  0.7355818838109441  0.7355818982863844  0.26441809363810803  1.0000
  O   O3        1.0  0.7355818794736722  0.26441811374248575  0.26441808021003677  1.0000
  O   O4        1.0  0.2644181721450225  0.7355818737438052  0.7355818528013747  1.0000
  O   O5        1.0  0.2644180829455289  0.735581919272323  0.2644181010126696  1.0000
  O   O6        1.0  0.7355818314498466  0.26441811587886743  0.7355818962370654  1.0000
