data_image0
_chemical_formula_structural       Y2MnTe6
_chemical_formula_sum              "Y2 Mn1 Te6"
_cell_length_a       7.06782202548487
_cell_length_b       7.06782191965984
_cell_length_c       7.06782201637264
_cell_angle_alpha    59.999999200097996
_cell_angle_beta     60.000000382744844
_cell_angle_gamma    59.999999690506044

_space_group_name_H-M_alt    "P 1"
_space_group_IT_number       1

loop_
  _space_group_symop_operation_xyz
  'x, y, z'

loop_
  _atom_site_type_symbol
  _atom_site_label
  _atom_site_symmetry_multiplicity
  _atom_site_fract_x
  _atom_site_fract_y
  _atom_site_fract_z
  _atom_site_occupancy
  Y   Y1        1.0  0.24999997491349513  0.25000003230027346  0.24999999522133876  1.0000
  Y   Y2        1.0  0.7499999047731626  0.7500000587782029  0.749999914253712  1.0000
  Mn  Mn1       1.0  0.9999999900814346  3.465692547553799e-08  0.9999999621632855  1.0000
  Te  Te1       1.0  0.25161739614621437  0.25161732284254557  0.748382652324134  1.0000
  Te  Te2       1.0  0.7483826481550011  0.7483826174783053  0.2516173959533427  1.0000
  Te  Te3       1.0  0.7483826443490054  0.25161733608138925  0.251617398652576  1.0000
  Te  Te4       1.0  0.2516174179233841  0.7483826042394617  0.748382650543355  1.0000
  Te  Te5       1.0  0.2516173503859832  0.7483826154976494  0.25161740900488505  1.0000
  Te  Te6       1.0  0.7483826754315388  0.251617380274282  0.7483826207888981  1.0000
