data_image0
_chemical_formula_structural       Y2MnS6
_chemical_formula_sum              "Y2 Mn1 S6"
_cell_length_a       6.215854338764872
_cell_length_b       6.21585438484233
_cell_length_c       6.2158541181927776
_cell_angle_alpha    60.00000327194078
_cell_angle_beta     60.00000112450551
_cell_angle_gamma    60.000000424239566

_space_group_name_H-M_alt    "P 1"
_space_group_IT_number       1

loop_
  _space_group_symop_operation_xyz
  'x, y, z'

loop_
  _atom_site_type_symbol
  _atom_site_label
  _atom_site_symmetry_multiplicity
  _atom_site_fract_x
  _atom_site_fract_y
  _atom_site_fract_z
  _atom_site_occupancy
  Y   Y1        1.0  0.24999996369106126  0.24999985804570096  0.25000008142301366  1.0000
  Y   Y2        1.0  0.7500000308778836  0.750000068696551  0.7499999013463441  1.0000
  Mn  Mn1       1.0  0.9999999688703597  0.9999999763557211  0.9999998938574419  1.0000
  S   S1        1.0  0.24925281691642898  0.24925278241854476  0.7507472265436739  1.0000
  S   S2        1.0  0.7507471992297654  0.7507472467822414  0.24925282773731058  1.0000
  S   S3        1.0  0.7507472323065485  0.24925277633507098  0.2492528129749035  1.0000
  S   S4        1.0  0.24925275955791673  0.7507472922728431  0.7507472273082249  1.0000
  S   S5        1.0  0.24925278250913613  0.7507472185942093  0.24925279821290108  1.0000
  S   S6        1.0  0.7507472605459299  0.24925276331802204  0.7507472035151391  1.0000
