data_image0
_chemical_formula_structural       Y2MnO6
_chemical_formula_sum              "Y2 Mn1 O6"
_cell_length_a       5.182335877412288
_cell_length_b       5.182336140959519
_cell_length_c       5.182335673818832
_cell_angle_alpha    60.00000220380926
_cell_angle_beta     60.00000229092305
_cell_angle_gamma    60.000000951263026

_space_group_name_H-M_alt    "P 1"
_space_group_IT_number       1

loop_
  _space_group_symop_operation_xyz
  'x, y, z'

loop_
  _atom_site_type_symbol
  _atom_site_label
  _atom_site_symmetry_multiplicity
  _atom_site_fract_x
  _atom_site_fract_y
  _atom_site_fract_z
  _atom_site_occupancy
  Y   Y1        1.0  0.2500000515252656  0.24999994263194208  0.2500000328652896  1.0000
  Y   Y2        1.0  0.7499999475125138  0.7500000145970397  0.7500000624657363  1.0000
  Mn  Mn1       1.0  0.9999999681533347  0.9999999952733882  0.9999999642569464  1.0000
  O   O1        1.0  0.2522002118672777  0.2522001438968268  0.7477998352950703  1.0000
  O   O2        1.0  0.747799756852995  0.7477998842313494  0.25220021080063326  1.0000
  O   O3        1.0  0.7477998116935128  0.2522002007394603  0.2522002017019443  1.0000
  O   O4        1.0  0.2522001968398927  0.7477998817447642  0.7477997490683723  1.0000
  O   O5        1.0  0.2522002053214386  0.7477998147099701  0.2522001546125209  1.0000
  O   O6        1.0  0.7477998032583456  0.25220018742183575  0.7477997842107559  1.0000
