data_image0
_chemical_formula_structural       Y2NbTe6
_chemical_formula_sum              "Y2 Nb1 Te6"
_cell_length_a       7.313965129449949
_cell_length_b       7.313965240245647
_cell_length_c       7.313965403482604
_cell_angle_alpha    59.99999911885968
_cell_angle_beta     60.00000039566396
_cell_angle_gamma    60.00000125443132

_space_group_name_H-M_alt    "P 1"
_space_group_IT_number       1

loop_
  _space_group_symop_operation_xyz
  'x, y, z'

loop_
  _atom_site_type_symbol
  _atom_site_label
  _atom_site_symmetry_multiplicity
  _atom_site_fract_x
  _atom_site_fract_y
  _atom_site_fract_z
  _atom_site_occupancy
  Y   Y1        1.0  0.2500000025600877  0.25000000538840617  0.2499999972397781  1.0000
  Y   Y2        1.0  0.7500000047142764  0.7500000061180427  0.7500000187346262  1.0000
  Nb  Nb1       1.0  1.4665625554070223e-09  3.349058518229987e-08  0.9999999715834471  1.0000
  Te  Te1       1.0  0.2621898244312951  0.2621898462267055  0.7378101685189099  1.0000
  Te  Te2       1.0  0.737810161473691  0.737810182025036  0.2621898237898366  1.0000
  Te  Te3       1.0  0.7378101474632094  0.2621898772825416  0.26218985004533824  1.0000
  Te  Te4       1.0  0.26218988704959834  0.7378100856625598  0.7378101177988812  1.0000
  Te  Te5       1.0  0.2621898563203294  0.7378101211874396  0.2621898905168282  1.0000
  Te  Te6       1.0  0.7378101155044346  0.2621898451067191  0.7378101562177891  1.0000
