data_image0
_chemical_formula_structural       Y2NbO6
_chemical_formula_sum              "Y2 Nb1 O6"
_cell_length_a       5.364980098593564
_cell_length_b       5.364979847162368
_cell_length_c       5.3649799574263355
_cell_angle_alpha    60.0000000509218
_cell_angle_beta     60.00000115991361
_cell_angle_gamma    59.999999001897265

_space_group_name_H-M_alt    "P 1"
_space_group_IT_number       1

loop_
  _space_group_symop_operation_xyz
  'x, y, z'

loop_
  _atom_site_type_symbol
  _atom_site_label
  _atom_site_symmetry_multiplicity
  _atom_site_fract_x
  _atom_site_fract_y
  _atom_site_fract_z
  _atom_site_occupancy
  Y   Y1        1.0  0.24999992354706438  0.24999998493037287  0.2499999621876148  1.0000
  Y   Y2        1.0  0.7500000751364728  0.7499999388111629  0.7499999827534254  1.0000
  Nb  Nb1       1.0  5.359099253776031e-08  0.999999936080176  2.007593440259748e-08  1.0000
  O   O1        1.0  0.25760756331337803  0.25760764602426905  0.7423924462596991  1.0000
  O   O2        1.0  0.7423924131272394  0.7423924283854243  0.2576076022233103  1.0000
  O   O3        1.0  0.7423925074540962  0.2576075185797623  0.25760758637790426  1.0000
  O   O4        1.0  0.2576076426508511  0.7423924028789226  0.7423923660072105  1.0000
  O   O5        1.0  0.25760750710627006  0.7423925340812626  0.2576076214245573  1.0000
  O   O6        1.0  0.7423923241944528  0.2576076270767635  0.7423924040639173  1.0000
