data_image0
_chemical_formula_structural       Y2NbSe6
_chemical_formula_sum              "Y2 Nb1 Se6"
_cell_length_a       6.793321842228953
_cell_length_b       6.7933218720870165
_cell_length_c       6.793321895651899
_cell_angle_alpha    59.999999316086736
_cell_angle_beta     60.00000041045966
_cell_angle_gamma    60.00000022932834

_space_group_name_H-M_alt    "P 1"
_space_group_IT_number       1

loop_
  _space_group_symop_operation_xyz
  'x, y, z'

loop_
  _atom_site_type_symbol
  _atom_site_label
  _atom_site_symmetry_multiplicity
  _atom_site_fract_x
  _atom_site_fract_y
  _atom_site_fract_z
  _atom_site_occupancy
  Y   Y1        1.0  0.2500000164876017  0.24999997653876835  0.24999998191798242  1.0000
  Y   Y2        1.0  0.7500001469176393  0.7499998106271512  0.7500000404270396  1.0000
  Nb  Nb1       1.0  0.9999999959141106  0.9999999765627426  0.9999999872649635  1.0000
  Se  Se1       1.0  0.2586372924099667  0.258637470471743  0.7413626385339093  1.0000
  Se  Se2       1.0  0.7413626200436192  0.7413626412100489  0.25863734114086573  1.0000
  Se  Se3       1.0  0.7413626178516101  0.258637395668646  0.2586373928992714  1.0000
  Se  Se4       1.0  0.2586373202368394  0.7413626493071049  0.7413626544161771  1.0000
  Se  Se5       1.0  0.2586373569240597  0.7413626518421199  0.25863733923222065  1.0000
  Se  Se6       1.0  0.7413626279327615  0.25863743640241477  0.7413626174315997  1.0000
