data_image0
_chemical_formula_structural       Y2NbS6
_chemical_formula_sum              "Y2 Nb1 S6"
_cell_length_a       6.455040957467497
_cell_length_b       6.455041088499306
_cell_length_c       6.455040986437502
_cell_angle_alpha    59.999999730176036
_cell_angle_beta     59.999999622735324
_cell_angle_gamma    59.99999903162015

_space_group_name_H-M_alt    "P 1"
_space_group_IT_number       1

loop_
  _space_group_symop_operation_xyz
  'x, y, z'

loop_
  _atom_site_type_symbol
  _atom_site_label
  _atom_site_symmetry_multiplicity
  _atom_site_fract_x
  _atom_site_fract_y
  _atom_site_fract_z
  _atom_site_occupancy
  Y   Y1        1.0  0.2500000522773959  0.24999994934271746  0.2500000107036005  1.0000
  Y   Y2        1.0  0.7499999973157306  0.7500000206866747  0.7499999217449198  1.0000
  Nb  Nb1       1.0  0.9999999704392699  0.9999999867185763  0.9999999702982413  1.0000
  S   S1        1.0  0.2592325164463269  0.25923249710254453  0.7407674948742331  1.0000
  S   S2        1.0  0.7407674974413684  0.7407675317445848  0.25923252826380566  1.0000
  S   S3        1.0  0.7407674986002716  0.25923247784035963  0.25923249876186416  1.0000
  S   S4        1.0  0.25923245058243516  0.7407675358279997  0.7407675534738162  1.0000
  S   S5        1.0  0.25923246480794626  0.7407675340476596  0.25923247620662854  1.0000
  S   S6        1.0  0.7407675519350774  0.2592324701339669  0.74076755163979  1.0000
