data_image0
_chemical_formula_structural       Y2NiS6
_chemical_formula_sum              "Y2 Ni1 S6"
_cell_length_a       6.1464168351001796
_cell_length_b       6.146416546042897
_cell_length_c       6.146416769521225
_cell_angle_alpha    59.99999952228702
_cell_angle_beta     59.99999990617924
_cell_angle_gamma    60.00000013840001

_space_group_name_H-M_alt    "P 1"
_space_group_IT_number       1

loop_
  _space_group_symop_operation_xyz
  'x, y, z'

loop_
  _atom_site_type_symbol
  _atom_site_label
  _atom_site_symmetry_multiplicity
  _atom_site_fract_x
  _atom_site_fract_y
  _atom_site_fract_z
  _atom_site_occupancy
  Y   Y1        1.0  0.2500000291425119  0.24999991158409482  0.25000000010256995  1.0000
  Y   Y2        1.0  0.7499999844952577  0.750000009733311  0.7500000119011889  1.0000
  Ni  Ni1       1.0  2.089313989668079e-08  0.9999999880443032  0.999999976007708  1.0000
  S   S1        1.0  0.25346167634742256  0.2534617563481301  0.7465382793822707  1.0000
  S   S2        1.0  0.7465383222024381  0.7465382665926984  0.25346168935373226  1.0000
  S   S3        1.0  0.7465383118125302  0.25346174650127656  0.25346170419124125  1.0000
  S   S4        1.0  0.2534616888439058  0.7465382644838556  0.7465383247861047  1.0000
  S   S5        1.0  0.25346170142112656  0.7465382615913647  0.2534617464467438  1.0000
  S   S6        1.0  0.7465382742429779  0.25346177928300906  0.7465382459158991  1.0000
