data_image0
_chemical_formula_structural       Y2NiSe6
_chemical_formula_sum              "Y2 Ni1 Se6"
_cell_length_a       6.544508624471941
_cell_length_b       6.544508529264076
_cell_length_c       6.544508977277163
_cell_angle_alpha    60.00000011112729
_cell_angle_beta     59.99999862094394
_cell_angle_gamma    59.99999613519103

_space_group_name_H-M_alt    "P 1"
_space_group_IT_number       1

loop_
  _space_group_symop_operation_xyz
  'x, y, z'

loop_
  _atom_site_type_symbol
  _atom_site_label
  _atom_site_symmetry_multiplicity
  _atom_site_fract_x
  _atom_site_fract_y
  _atom_site_fract_z
  _atom_site_occupancy
  Y   Y1        1.0  0.2500001923003207  0.2500001538239596  0.24999993630200182  1.0000
  Y   Y2        1.0  0.7499998449248046  0.7499998626211772  0.7500000113358718  1.0000
  Ni  Ni1       1.0  0.9999999578689154  0.9999999887715503  1.292778018464068e-08  1.0000
  Se  Se1       1.0  0.2552447836541515  0.2552446969295877  0.7447552349266098  1.0000
  Se  Se2       1.0  0.7447552176076186  0.7447552315593532  0.25524484954296495  1.0000
  Se  Se3       1.0  0.744755232007506  0.2552447314527468  0.2552447420592958  1.0000
  Se  Se4       1.0  0.255244748026601  0.7447552924780273  0.7447552701592296  1.0000
  Se  Se5       1.0  0.25524474825444327  0.7447551958293973  0.25524476209671115  1.0000
  Se  Se6       1.0  0.7447552818061308  0.2552448262299653  0.7447551878443238  1.0000
