data_image0
_chemical_formula_structural       Y2NiTe6
_chemical_formula_sum              "Y2 Ni1 Te6"
_cell_length_a       7.061320873344136
_cell_length_b       7.061320750549537
_cell_length_c       7.06132093279889
_cell_angle_alpha    59.99999969147927
_cell_angle_beta     59.99999972672881
_cell_angle_gamma    59.99999925082996

_space_group_name_H-M_alt    "P 1"
_space_group_IT_number       1

loop_
  _space_group_symop_operation_xyz
  'x, y, z'

loop_
  _atom_site_type_symbol
  _atom_site_label
  _atom_site_symmetry_multiplicity
  _atom_site_fract_x
  _atom_site_fract_y
  _atom_site_fract_z
  _atom_site_occupancy
  Y   Y1        1.0  0.2500000156534092  0.2500000208434963  0.2499999578105724  1.0000
  Y   Y2        1.0  0.7499999935440987  0.7499999480573413  0.7500000904959241  1.0000
  Ni  Ni1       1.0  1.0488825010847788e-08  0.9999999930622335  1.946695514437253e-08  1.0000
  Te  Te1       1.0  0.25464688099586225  0.2546469122194181  0.7453531054715976  1.0000
  Te  Te2       1.0  0.7453531081648819  0.745353106980227  0.25464688238657707  1.0000
  Te  Te3       1.0  0.7453531307257579  0.25464690404840784  0.25464685510769736  1.0000
  Te  Te4       1.0  0.25464687219430576  0.7453531082134707  0.7453531095133821  1.0000
  Te  Te5       1.0  0.25464689423594616  0.7453531155967523  0.25464686533252506  1.0000
  Te  Te6       1.0  0.7453530952223814  0.254646887992918  0.7453531146040234  1.0000
