data_image0
_chemical_formula_structural       Y2NiO6
_chemical_formula_sum              "Y2 Ni1 O6"
_cell_length_a       5.146203011915492
_cell_length_b       5.14620249860385
_cell_length_c       5.146202666699775
_cell_angle_alpha    60.00000073982354
_cell_angle_beta     60.000000746956815
_cell_angle_gamma    59.99999939542137

_space_group_name_H-M_alt    "P 1"
_space_group_IT_number       1

loop_
  _space_group_symop_operation_xyz
  'x, y, z'

loop_
  _atom_site_type_symbol
  _atom_site_label
  _atom_site_symmetry_multiplicity
  _atom_site_fract_x
  _atom_site_fract_y
  _atom_site_fract_z
  _atom_site_occupancy
  Y   Y1        1.0  0.2500000051715603  0.24999998773676077  0.2500000327005882  1.0000
  Y   Y2        1.0  0.7500000048168093  0.7499999751097807  0.7499999867396704  1.0000
  Ni  Ni1       1.0  1.516950982640401e-07  0.9999999286029984  1.7748715041990853e-07  1.0000
  O   O1        1.0  0.25042375615334245  0.25042378016130823  0.7495762622907762  1.0000
  O   O2        1.0  0.749576132398081  0.7495761969646354  0.2504238593077654  1.0000
  O   O3        1.0  0.7495762249737805  0.25042380529828884  0.25042382452407036  1.0000
  O   O4        1.0  0.25042386581442966  0.7495761170899463  0.749576097018205  1.0000
  O   O5        1.0  0.2504237526252998  0.7495762634662255  0.250423750761854  1.0000
  O   O6        1.0  0.7495760909101816  0.25042395640953924  0.7495760154699428  1.0000
