data_image0
_chemical_formula_structural       Y2PdS6
_chemical_formula_sum              "Y2 Pd1 S6"
_cell_length_a       6.349247864296419
_cell_length_b       6.349247874434299
_cell_length_c       6.349247963958697
_cell_angle_alpha    59.99999973317572
_cell_angle_beta     59.99999981150875
_cell_angle_gamma    59.999999369876925

_space_group_name_H-M_alt    "P 1"
_space_group_IT_number       1

loop_
  _space_group_symop_operation_xyz
  'x, y, z'

loop_
  _atom_site_type_symbol
  _atom_site_label
  _atom_site_symmetry_multiplicity
  _atom_site_fract_x
  _atom_site_fract_y
  _atom_site_fract_z
  _atom_site_occupancy
  Y   Y1        1.0  0.25000000547698975  0.25000001850425096  0.24999996664981225  1.0000
  Y   Y2        1.0  0.7500000063827454  0.750000042010029  0.7499998707751788  1.0000
  Pd  Pd1       1.0  0.999999949188358  0.9999999942131186  0.9999999747496126  1.0000
  S   S1        1.0  0.25864034879617986  0.25864038115879306  0.7413596417356467  1.0000
  S   S2        1.0  0.7413596502606022  0.7413596195577096  0.25864042413845006  1.0000
  S   S3        1.0  0.7413596478340678  0.25864032228374667  0.25864037858504446  1.0000
  S   S4        1.0  0.2586403458771089  0.7413596726458742  0.7413596676554609  1.0000
  S   S5        1.0  0.25864038394654704  0.7413596027143552  0.258640393459886  1.0000
  S   S6        1.0  0.7413596503452656  0.2586403304885275  0.7413596917034846  1.0000
