data_image0
_chemical_formula_structural       Y2PdO6
_chemical_formula_sum              "Y2 Pd1 O6"
_cell_length_a       5.270518038620213
_cell_length_b       5.27051784982526
_cell_length_c       5.270518009575529
_cell_angle_alpha    60.00000114514932
_cell_angle_beta     60.000001091249196
_cell_angle_gamma    60.00000174348684

_space_group_name_H-M_alt    "P 1"
_space_group_IT_number       1

loop_
  _space_group_symop_operation_xyz
  'x, y, z'

loop_
  _atom_site_type_symbol
  _atom_site_label
  _atom_site_symmetry_multiplicity
  _atom_site_fract_x
  _atom_site_fract_y
  _atom_site_fract_z
  _atom_site_occupancy
  Y   Y1        1.0  0.2499999893523934  0.25000000445279064  0.24999997570946414  1.0000
  Y   Y2        1.0  0.7500000211923886  0.7499999459691686  0.7499999759970166  1.0000
  Pd  Pd1       1.0  3.726754421228178e-08  0.9999999604959835  0.9999999783500753  1.0000
  O   O1        1.0  0.2623456023860992  0.26234559433452015  0.737654428651597  1.0000
  O   O2        1.0  0.7376543859386109  0.7376544490380691  0.2623456129144889  1.0000
  O   O3        1.0  0.737654382767955  0.2623455909146089  0.26234561407520157  1.0000
  O   O4        1.0  0.2623455801738353  0.7376544431629164  0.737654410677635  1.0000
  O   O5        1.0  0.2623456349686674  0.7376543774522654  0.26234558587471035  1.0000
  O   O6        1.0  0.7376543730966489  0.26234562641630604  0.7376543972685993  1.0000
