data_image0
_chemical_formula_structural       Y2PtSe6
_chemical_formula_sum              "Y2 Pt1 Se6"
_cell_length_a       6.6864625624573355
_cell_length_b       6.686462692717943
_cell_length_c       6.686462580434647
_cell_angle_alpha    59.999999844975015
_cell_angle_beta     59.99999927582432
_cell_angle_gamma    60.00000070036594

_space_group_name_H-M_alt    "P 1"
_space_group_IT_number       1

loop_
  _space_group_symop_operation_xyz
  'x, y, z'

loop_
  _atom_site_type_symbol
  _atom_site_label
  _atom_site_symmetry_multiplicity
  _atom_site_fract_x
  _atom_site_fract_y
  _atom_site_fract_z
  _atom_site_occupancy
  Y   Y1        1.0  0.25000002179500647  0.24999998838061685  0.2499999444791543  1.0000
  Y   Y2        1.0  0.7500000857758549  0.7500000127654857  0.7499999549683742  1.0000
  Pt  Pt1       1.0  0.9999999636298631  5.495034380268002e-09  6.927767921833271e-08  1.0000
  Se  Se1       1.0  0.2572312115124045  0.2572312427471999  0.7427687597200938  1.0000
  Se  Se2       1.0  0.7427687608346919  0.7427687858740761  0.2572312534240951  1.0000
  Se  Se3       1.0  0.7427687263347909  0.25723123630217  0.257231262558742  1.0000
  Se  Se4       1.0  0.2572312426811882  0.7427687556855399  0.7427687391610478  1.0000
  Se  Se5       1.0  0.2572312234356447  0.742768765757595  0.2572312519954695  1.0000
  Se  Se6       1.0  0.7427687672282347  0.2572312079133321  0.7427687570321161  1.0000
