data_image0
_chemical_formula_structural       Y2PtS6
_chemical_formula_sum              "Y2 Pt1 S6"
_cell_length_a       6.36385867361588
_cell_length_b       6.363858950534463
_cell_length_c       6.363858777765236
_cell_angle_alpha    60.000001140474005
_cell_angle_beta     60.00000089161363
_cell_angle_gamma    60.000001709134395

_space_group_name_H-M_alt    "P 1"
_space_group_IT_number       1

loop_
  _space_group_symop_operation_xyz
  'x, y, z'

loop_
  _atom_site_type_symbol
  _atom_site_label
  _atom_site_symmetry_multiplicity
  _atom_site_fract_x
  _atom_site_fract_y
  _atom_site_fract_z
  _atom_site_occupancy
  Y   Y1        1.0  0.2500001215476985  0.24999996625752527  0.2499999091544678  1.0000
  Y   Y2        1.0  0.7499999760894713  0.7499999757538439  0.7499999476758973  1.0000
  Pt  Pt1       1.0  0.9999999852641419  1.1547190105542856e-08  9.273400559994072e-08  1.0000
  S   S1        1.0  0.25667515576270195  0.2566751936353762  0.7433248194738564  1.0000
  S   S2        1.0  0.7433247988052012  0.7433248292063248  0.25667521147097677  1.0000
  S   S3        1.0  0.7433248314050515  0.2566751284183912  0.2566751730703722  1.0000
  S   S4        1.0  0.2566752097635421  0.7433248251401678  0.7433248036458519  1.0000
  S   S5        1.0  0.2566751830773984  0.7433248514569248  0.25667515804950697  1.0000
  S   S6        1.0  0.7433247527955166  0.25667520025275203  0.7433248835225686  1.0000
