data_image0
_chemical_formula_structural       Y2PtO6
_chemical_formula_sum              "Y2 Pt1 O6"
_cell_length_a       5.311427241210025
_cell_length_b       5.311427144314228
_cell_length_c       5.311427172866433
_cell_angle_alpha    60.00000042565706
_cell_angle_beta     59.99999938456189
_cell_angle_gamma    59.999999578505424

_space_group_name_H-M_alt    "P 1"
_space_group_IT_number       1

loop_
  _space_group_symop_operation_xyz
  'x, y, z'

loop_
  _atom_site_type_symbol
  _atom_site_label
  _atom_site_symmetry_multiplicity
  _atom_site_fract_x
  _atom_site_fract_y
  _atom_site_fract_z
  _atom_site_occupancy
  Y   Y1        1.0  0.24999995822305035  0.24999992899899492  0.25000001857904736  1.0000
  Y   Y2        1.0  0.7500000033038492  0.7500000337248373  0.7499999753716563  1.0000
  Pt  Pt1       1.0  8.432221792608137e-09  1.3835206944200945e-08  1.899001599170069e-08  1.0000
  O   O1        1.0  0.25999404822089295  0.2599940541352887  0.7400059229468561  1.0000
  O   O2        1.0  0.7400060072699499  0.7400059593176349  0.25999406643572315  1.0000
  O   O3        1.0  0.7400059108156708  0.2599940848855577  0.2599940685265918  1.0000
  O   O4        1.0  0.2599940981660755  0.7400058593913326  0.740005946692089  1.0000
  O   O5        1.0  0.25999402786765774  0.7400059810418329  0.25999407353663045  1.0000
  O   O6        1.0  0.7400059311762461  0.25999407391671064  0.7400059056619464  1.0000
