data_image0
_chemical_formula_structural       Y2ScTe6
_chemical_formula_sum              "Y2 Sc1 Te6"
_cell_length_a       7.2968213031657605
_cell_length_b       7.296821390141602
_cell_length_c       7.296821343733687
_cell_angle_alpha    59.99999963420311
_cell_angle_beta     59.999999400896975
_cell_angle_gamma    59.999999024702866

_space_group_name_H-M_alt    "P 1"
_space_group_IT_number       1

loop_
  _space_group_symop_operation_xyz
  'x, y, z'

loop_
  _atom_site_type_symbol
  _atom_site_label
  _atom_site_symmetry_multiplicity
  _atom_site_fract_x
  _atom_site_fract_y
  _atom_site_fract_z
  _atom_site_occupancy
  Y   Y1        1.0  0.2500000739121317  0.2499999460980842  0.24999998101367107  1.0000
  Y   Y2        1.0  0.7499999316614766  0.7500000296391013  0.7499999252535202  1.0000
  Sc  Sc1       1.0  3.379137129589056e-08  0.999999998321536  5.870902355886749e-09  1.0000
  Te  Te1       1.0  0.2647264325598322  0.26472638491307743  0.7352735791752263  1.0000
  Te  Te2       1.0  0.7352735415234088  0.7352736378210873  0.2647264536437149  1.0000
  Te  Te3       1.0  0.7352736542817724  0.2647263628717451  0.2647263937690741  1.0000
  Te  Te4       1.0  0.2647263675800366  0.7352736162223665  0.7352736493147474  1.0000
  Te  Te5       1.0  0.2647263395343157  0.7352736303068759  0.26472640314811874  1.0000
  Te  Te6       1.0  0.735273628219043  0.26472639242728907  0.735273608167488  1.0000
