data_image0
_chemical_formula_structural       Y2ScSe6
_chemical_formula_sum              "Y2 Sc1 Se6"
_cell_length_a       6.716494508826235
_cell_length_b       6.716494411622089
_cell_length_c       6.716494478955788
_cell_angle_alpha    59.99999971760894
_cell_angle_beta     59.99999859269545
_cell_angle_gamma    59.99999932854487

_space_group_name_H-M_alt    "P 1"
_space_group_IT_number       1

loop_
  _space_group_symop_operation_xyz
  'x, y, z'

loop_
  _atom_site_type_symbol
  _atom_site_label
  _atom_site_symmetry_multiplicity
  _atom_site_fract_x
  _atom_site_fract_y
  _atom_site_fract_z
  _atom_site_occupancy
  Y   Y1        1.0  0.2499999647933819  0.24999996366956712  0.25000010000164186  1.0000
  Y   Y2        1.0  0.7499999367641029  0.7500002228835646  0.7499998984779593  1.0000
  Sc  Sc1       1.0  0.9999999966658851  0.999999994529535  0.9999999731359798  1.0000
  Se  Se1       1.0  0.2639706188581  0.2639705310612008  0.7360294564370967  1.0000
  Se  Se2       1.0  0.7360294413040084  0.7360294220854325  0.26397058539892754  1.0000
  Se  Se3       1.0  0.7360293488601232  0.26397056206438907  0.26397065877148357  1.0000
  Se  Se4       1.0  0.263970591842806  0.7360294348459624  0.7360293554019085  1.0000
  Se  Se5       1.0  0.2639706589640176  0.7360293278708814  0.263970564004854  1.0000
  Se  Se6       1.0  0.7360294288453847  0.2639705578066856  0.7360294039431257  1.0000
