data_image0
_chemical_formula_structural       Y2ScO6
_chemical_formula_sum              "Y2 Sc1 O6"
_cell_length_a       5.2676679231781804
_cell_length_b       5.2676682378000335
_cell_length_c       5.267668183094367
_cell_angle_alpha    60.000000097193826
_cell_angle_beta     59.99999939507067
_cell_angle_gamma    60.000001824781094

_space_group_name_H-M_alt    "P 1"
_space_group_IT_number       1

loop_
  _space_group_symop_operation_xyz
  'x, y, z'

loop_
  _atom_site_type_symbol
  _atom_site_label
  _atom_site_symmetry_multiplicity
  _atom_site_fract_x
  _atom_site_fract_y
  _atom_site_fract_z
  _atom_site_occupancy
  Y   Y1        1.0  0.25000005131600606  0.25000000149583357  0.2500000165400636  1.0000
  Y   Y2        1.0  0.7500000158715129  0.749999964962113  0.7500000264171186  1.0000
  Sc  Sc1       1.0  0.9999999645510602  0.9999999813998175  2.8922934054437003e-08  1.0000
  O   O1        1.0  0.26511881113890723  0.26511884942835834  0.7348811725920305  1.0000
  O   O2        1.0  0.7348812373154588  0.7348811798052033  0.2651187648155003  1.0000
  O   O3        1.0  0.7348811063694297  0.2651188906063272  0.26511884487224346  1.0000
  O   O4        1.0  0.265118847560732  0.7348811525773703  0.7348810853629912  1.0000
  O   O5        1.0  0.26511887610642265  0.7348811115373545  0.2651189114596225  1.0000
  O   O6        1.0  0.7348810950068768  0.26511887352077346  0.7348811436573534  1.0000
