data_image0
_chemical_formula_structural       Y2ScS6
_chemical_formula_sum              "Y2 Sc1 S6"
_cell_length_a       6.36224748945252
_cell_length_b       6.362247504526816
_cell_length_c       6.362247639407527
_cell_angle_alpha    59.99999817069083
_cell_angle_beta     59.99999849063404
_cell_angle_gamma    59.99999967652098

_space_group_name_H-M_alt    "P 1"
_space_group_IT_number       1

loop_
  _space_group_symop_operation_xyz
  'x, y, z'

loop_
  _atom_site_type_symbol
  _atom_site_label
  _atom_site_symmetry_multiplicity
  _atom_site_fract_x
  _atom_site_fract_y
  _atom_site_fract_z
  _atom_site_occupancy
  Y   Y1        1.0  0.25000012658833787  0.24999987531594114  0.24999999244097676  1.0000
  Y   Y2        1.0  0.7499999692205414  0.7499998993005524  0.7500000883566345  1.0000
  Sc  Sc1       1.0  0.9999999900635118  1.347513440575753e-08  2.180725047893747e-08  1.0000
  S   S1        1.0  0.26382114444001875  0.2638210369943703  0.7361789732581613  1.0000
  S   S2        1.0  0.7361789492204146  0.736178945524201  0.2638210973971551  1.0000
  S   S3        1.0  0.7361788473906089  0.2638211514671595  0.26382104233021453  1.0000
  S   S4        1.0  0.2638210525099265  0.7361789985280863  0.7361788732871546  1.0000
  S   S5        1.0  0.2638210614811376  0.7361789493653501  0.2638210254832864  1.0000
  S   S6        1.0  0.7361788653696668  0.26382111977908773  0.7361788966513224  1.0000
