data_image0
_chemical_formula_structural       Y2SeO6
_chemical_formula_sum              "Y2 Se1 O6"
_cell_length_a       5.24885261577272
_cell_length_b       5.248852809385977
_cell_length_c       5.248852514595882
_cell_angle_alpha    60.000000125623664
_cell_angle_beta     59.9999993368452
_cell_angle_gamma    59.99999917140232

_space_group_name_H-M_alt    "P 1"
_space_group_IT_number       1

loop_
  _space_group_symop_operation_xyz
  'x, y, z'

loop_
  _atom_site_type_symbol
  _atom_site_label
  _atom_site_symmetry_multiplicity
  _atom_site_fract_x
  _atom_site_fract_y
  _atom_site_fract_z
  _atom_site_occupancy
  Y   Y1        1.0  0.24999997505695182  0.2500000412224866  0.24999995044616263  1.0000
  Y   Y2        1.0  0.750000060768547  0.7499999346655207  0.7499999180493572  1.0000
  Se  Se1       1.0  0.9999999823778207  3.966707301590944e-08  9.934514285107376e-09  1.0000
  O   O1        1.0  0.24324659728628084  0.2432466237810985  0.7567534363599873  1.0000
  O   O2        1.0  0.7567533637422628  0.7567533521069075  0.24324663147416847  1.0000
  O   O3        1.0  0.7567534157491372  0.24324662879707068  0.24324656036346257  1.0000
  O   O4        1.0  0.2432466003877179  0.7567533797579362  0.7567534445312529  1.0000
  O   O5        1.0  0.24324660819788888  0.7567534293179774  0.24324661554933524  1.0000
  O   O6        1.0  0.756753415049589  0.24324659090381498  0.756753418060242  1.0000
