data_image0
_chemical_formula_structural       Y2SeS6
_chemical_formula_sum              "Y2 Se1 S6"
_cell_length_a       6.3461969796516975
_cell_length_b       6.346196880669115
_cell_length_c       6.346196861970548
_cell_angle_alpha    59.999999815597874
_cell_angle_beta     60.00000066509496
_cell_angle_gamma    60.00000010197898

_space_group_name_H-M_alt    "P 1"
_space_group_IT_number       1

loop_
  _space_group_symop_operation_xyz
  'x, y, z'

loop_
  _atom_site_type_symbol
  _atom_site_label
  _atom_site_symmetry_multiplicity
  _atom_site_fract_x
  _atom_site_fract_y
  _atom_site_fract_z
  _atom_site_occupancy
  Y   Y1        1.0  0.24999961107450613  0.24999995312988463  0.25000022518636855  1.0000
  Y   Y2        1.0  0.7500003090904642  0.7499998150022381  0.749999679336394  1.0000
  Se  Se1       1.0  6.779200631543581e-10  1.235128273479513e-07  0.9999999788740453  1.0000
  S   S1        1.0  0.2573720779621412  0.25737222370774143  0.7426278531340492  1.0000
  S   S2        1.0  0.7426279202905104  0.7426278068891388  0.2573722466857731  1.0000
  S   S3        1.0  0.7426279267978572  0.25737215307217054  0.25737210008852346  1.0000
  S   S4        1.0  0.2573721154732256  0.742627827347624  0.7426279098415594  1.0000
  S   S5        1.0  0.25737199585170845  0.7426278579412562  0.25737227966094467  1.0000
  S   S6        1.0  0.7426280335155808  0.25737222669248633  0.7426277287349737  1.0000
