data_image0
_chemical_formula_structural       Y2SnO6
_chemical_formula_sum              "Y2 Sn1 O6"
_cell_length_a       5.347648780378934
_cell_length_b       5.347648606402848
_cell_length_c       5.347648671742325
_cell_angle_alpha    60.000000730915446
_cell_angle_beta     60.00000123014234
_cell_angle_gamma    60.00000049060188

_space_group_name_H-M_alt    "P 1"
_space_group_IT_number       1

loop_
  _space_group_symop_operation_xyz
  'x, y, z'

loop_
  _atom_site_type_symbol
  _atom_site_label
  _atom_site_symmetry_multiplicity
  _atom_site_fract_x
  _atom_site_fract_y
  _atom_site_fract_z
  _atom_site_occupancy
  Y   Y1        1.0  0.2500000215616905  0.2500000763961169  0.25000004662138037  1.0000
  Y   Y2        1.0  0.749999852032842  0.7500000574196459  0.7499999992180345  1.0000
  Sn  Sn1       1.0  0.9999999558977749  4.8095235787789154e-08  0.9999999980034948  1.0000
  O   O1        1.0  0.2656718831124776  0.2656718137419869  0.7343280704975116  1.0000
  O   O2        1.0  0.7343281646231788  0.7343280956293414  0.2656719387841932  1.0000
  O   O3        1.0  0.7343279935480072  0.2656720220680223  0.26567178555190796  1.0000
  O   O4        1.0  0.2656719363409399  0.7343280659427533  0.7343281727636406  1.0000
  O   O5        1.0  0.26567196024922785  0.7343281158666171  0.26567186393442777  1.0000
  O   O6        1.0  0.7343282186142693  0.2656717110557359  0.7343281135279213  1.0000
