data_image0
_chemical_formula_structural       Y2SnSe6
_chemical_formula_sum              "Y2 Sn1 Se6"
_cell_length_a       6.898891055516312
_cell_length_b       6.898891004435254
_cell_length_c       6.898890989069286
_cell_angle_alpha    59.99999766569179
_cell_angle_beta     59.99999929666126
_cell_angle_gamma    59.99999856008639

_space_group_name_H-M_alt    "P 1"
_space_group_IT_number       1

loop_
  _space_group_symop_operation_xyz
  'x, y, z'

loop_
  _atom_site_type_symbol
  _atom_site_label
  _atom_site_symmetry_multiplicity
  _atom_site_fract_x
  _atom_site_fract_y
  _atom_site_fract_z
  _atom_site_occupancy
  Y   Y1        1.0  0.24999995271216152  0.2499998902228613  0.2500000192124599  1.0000
  Y   Y2        1.0  0.7499999081398849  0.7500000328252799  0.7500000457914415  1.0000
  Sn  Sn1       1.0  0.9999999944885264  0.9999999964494435  3.352118194163528e-08  1.0000
  Se  Se1       1.0  0.26468468961344893  0.2646846953851542  0.7353152920774731  1.0000
  Se  Se2       1.0  0.7353153369715045  0.735315343056052  0.26468468599524747  1.0000
  Se  Se3       1.0  0.7353153576509824  0.2646846989482499  0.264684639996813  1.0000
  Se  Se4       1.0  0.26468470279763145  0.7353153483693462  0.7353153080088319  1.0000
  Se  Se5       1.0  0.2646847193358823  0.7353153434214751  0.2646846363364263  1.0000
  Se  Se6       1.0  0.735315336616557  0.26468464708722667  0.7353153481197877  1.0000
