data_image0
_chemical_formula_structural       Y2SnS6
_chemical_formula_sum              "Y2 Sn1 S6"
_cell_length_a       6.53601355182393
_cell_length_b       6.536013354176599
_cell_length_c       6.536013516297488
_cell_angle_alpha    59.99999970962884
_cell_angle_beta     60.00000166785015
_cell_angle_gamma    59.999999908129766

_space_group_name_H-M_alt    "P 1"
_space_group_IT_number       1

loop_
  _space_group_symop_operation_xyz
  'x, y, z'

loop_
  _atom_site_type_symbol
  _atom_site_label
  _atom_site_symmetry_multiplicity
  _atom_site_fract_x
  _atom_site_fract_y
  _atom_site_fract_z
  _atom_site_occupancy
  Y   Y1        1.0  0.24999990376607953  0.24999995632115224  0.2500000495729891  1.0000
  Y   Y2        1.0  0.7500000475541386  0.7499999308002059  0.7500000858412758  1.0000
  Sn  Sn1       1.0  2.899856485558411e-08  0.9999999925046367  2.1378076033674813e-08  1.0000
  S   S1        1.0  0.2623829982921011  0.26238299957464767  0.7376170836643106  1.0000
  S   S2        1.0  0.7376169298622512  0.7376170524447051  0.2623829778239211  1.0000
  S   S3        1.0  0.7376170627418569  0.26238298035468777  0.2623829460914737  1.0000
  S   S4        1.0  0.2623829976283181  0.7376170248186441  0.7376169855027362  1.0000
  S   S5        1.0  0.2623829568009451  0.7376170040225154  0.26238291952829157  1.0000
  S   S6        1.0  0.7376170681989739  0.26238306486140534  0.7376169198665373  1.0000
