data_image0
_chemical_formula_structural       Y2SO6
_chemical_formula_sum              "Y2 S1 O6"
_cell_length_a       5.134776565140145
_cell_length_b       5.13477646563269
_cell_length_c       5.134776410912779
_cell_angle_alpha    59.99999905747525
_cell_angle_beta     60.000001191902136
_cell_angle_gamma    59.99999957613553

_space_group_name_H-M_alt    "P 1"
_space_group_IT_number       1

loop_
  _space_group_symop_operation_xyz
  'x, y, z'

loop_
  _atom_site_type_symbol
  _atom_site_label
  _atom_site_symmetry_multiplicity
  _atom_site_fract_x
  _atom_site_fract_y
  _atom_site_fract_z
  _atom_site_occupancy
  Y   Y1        1.0  0.25000002339663896  0.24999999220086697  0.2500000085415392  1.0000
  Y   Y2        1.0  0.7500000249180004  0.7500000314621126  0.7499999526681628  1.0000
  S   S1        1.0  2.6599582413710385e-08  0.9999999809184307  2.7401065181129564e-08  1.0000
  O   O1        1.0  0.23186224957751625  0.23186211120666422  0.7681378330883988  1.0000
  O   O2        1.0  0.7681377562830443  0.7681378981451377  0.23186221492906564  1.0000
  O   O3        1.0  0.7681378189161588  0.23186214499557367  0.23186217396443842  1.0000
  O   O4        1.0  0.23186209806091518  0.7681378476598568  0.7681378255727225  1.0000
  O   O5        1.0  0.23186215706043437  0.7681378630903842  0.23186212615987833  1.0000
  O   O6        1.0  0.7681378282882424  0.2318621605725961  0.7681377964226436  1.0000
