data_image0
_chemical_formula_structural       Y2TiS6
_chemical_formula_sum              "Y2 Ti1 S6"
_cell_length_a       6.340826128857034
_cell_length_b       6.340825836558775
_cell_length_c       6.340826203331831
_cell_angle_alpha    59.99999960916906
_cell_angle_beta     59.999999457226
_cell_angle_gamma    59.999999646308005

_space_group_name_H-M_alt    "P 1"
_space_group_IT_number       1

loop_
  _space_group_symop_operation_xyz
  'x, y, z'

loop_
  _atom_site_type_symbol
  _atom_site_label
  _atom_site_symmetry_multiplicity
  _atom_site_fract_x
  _atom_site_fract_y
  _atom_site_fract_z
  _atom_site_occupancy
  Y   Y1        1.0  0.24999995695533017  0.25000011228725677  0.24999997716381317  1.0000
  Y   Y2        1.0  0.7500000028533695  0.7499999408996249  0.7500000193205348  1.0000
  Ti  Ti1       1.0  0.9999999845857253  0.9999999806847738  4.575221814011046e-08  1.0000
  S   S1        1.0  0.256742040827547  0.25674205282523743  0.7432579631886252  1.0000
  S   S2        1.0  0.7432579646559481  0.7432579288953064  0.25674206984771625  1.0000
  S   S3        1.0  0.7432579347246379  0.25674209480928234  0.2567420641624264  1.0000
  S   S4        1.0  0.2567421000062344  0.7432578811166928  0.7432578972184123  1.0000
  S   S5        1.0  0.2567420788966682  0.7432578975453632  0.2567420905655445  1.0000
  S   S6        1.0  0.743257938892363  0.2567421073534516  0.7432578647997948  1.0000
