data_image0
_chemical_formula_structural       Y2TiO6
_chemical_formula_sum              "Y2 Ti1 O6"
_cell_length_a       5.256658148521974
_cell_length_b       5.256658596933754
_cell_length_c       5.256658459174044
_cell_angle_alpha    60.00000251557382
_cell_angle_beta     60.00000087673053
_cell_angle_gamma    60.000001769302514

_space_group_name_H-M_alt    "P 1"
_space_group_IT_number       1

loop_
  _space_group_symop_operation_xyz
  'x, y, z'

loop_
  _atom_site_type_symbol
  _atom_site_label
  _atom_site_symmetry_multiplicity
  _atom_site_fract_x
  _atom_site_fract_y
  _atom_site_fract_z
  _atom_site_occupancy
  Y   Y1        1.0  0.25000007958346965  0.24999996620177523  0.2500000027720526  1.0000
  Y   Y2        1.0  0.7499999938340992  0.7499999941309115  0.7499999878940558  1.0000
  Ti  Ti1       1.0  0.9999999660072162  1.630924657696224e-08  3.357230763961711e-08  1.0000
  O   O1        1.0  0.2557999305753198  0.2557998804912358  0.7442001146992956  1.0000
  O   O2        1.0  0.7442001098697322  0.7442001194496202  0.25579988786778  1.0000
  O   O3        1.0  0.7442000670431757  0.255799935658638  0.2557998554074593  1.0000
  O   O4        1.0  0.25579988806393156  0.7442001621376945  0.7442000895374214  1.0000
  O   O5        1.0  0.2557998565043023  0.7442000370811761  0.25579999500957373  1.0000
  O   O6        1.0  0.7442001372135713  0.25579987898355877  0.744200116613181  1.0000
