data_image0
_chemical_formula_structural       Y2VO6
_chemical_formula_sum              "Y2 V1 O6"
_cell_length_a       5.203497153216403
_cell_length_b       5.203496980607169
_cell_length_c       5.2034968601357905
_cell_angle_alpha    59.99999991066693
_cell_angle_beta     60.00000070771681
_cell_angle_gamma    59.999999041928724

_space_group_name_H-M_alt    "P 1"
_space_group_IT_number       1

loop_
  _space_group_symop_operation_xyz
  'x, y, z'

loop_
  _atom_site_type_symbol
  _atom_site_label
  _atom_site_symmetry_multiplicity
  _atom_site_fract_x
  _atom_site_fract_y
  _atom_site_fract_z
  _atom_site_occupancy
  Y   Y1        1.0  0.24999986454439085  0.25000001126222093  0.25000003137978566  1.0000
  Y   Y2        1.0  0.749999906120403  0.7500000549699228  0.7500000003319225  1.0000
  V   V1        1.0  0.9999999826511469  0.9999999788167385  0.9999999673778741  1.0000
  O   O1        1.0  0.2535239937862496  0.25352402072155583  0.746476010007205  1.0000
  O   O2        1.0  0.7464760308196638  0.7464759560701472  0.25352401248197604  1.0000
  O   O3        1.0  0.7464760410076409  0.2535239628487685  0.2535240690851471  1.0000
  O   O4        1.0  0.2535240530167825  0.7464760586631533  0.7464759693624825  1.0000
  O   O5        1.0  0.25352405333105255  0.7464760283381168  0.25352391214675163  1.0000
  O   O6        1.0  0.746476034820681  0.2535239908201101  0.7464759766713046  1.0000
