data_image0
_chemical_formula_structural       Y2VS6
_chemical_formula_sum              "Y2 V1 S6"
_cell_length_a       6.291371078242812
_cell_length_b       6.2913713396430815
_cell_length_c       6.29137127586847
_cell_angle_alpha    60.000000822120114
_cell_angle_beta     59.99999989397829
_cell_angle_gamma    59.999999716231365

_space_group_name_H-M_alt    "P 1"
_space_group_IT_number       1

loop_
  _space_group_symop_operation_xyz
  'x, y, z'

loop_
  _atom_site_type_symbol
  _atom_site_label
  _atom_site_symmetry_multiplicity
  _atom_site_fract_x
  _atom_site_fract_y
  _atom_site_fract_z
  _atom_site_occupancy
  Y   Y1        1.0  0.25000003256275755  0.25000019194997525  0.2499998653230125  1.0000
  Y   Y2        1.0  0.7500000522242157  0.7499998477819859  0.7500000733353132  1.0000
  V   V1        1.0  0.9999999775493035  0.9999999902664717  4.965762004759084e-09  1.0000
  S   S1        1.0  0.25367695512687094  0.25367705473903945  0.7463229809616215  1.0000
  S   S2        1.0  0.746322996511322  0.7463230375539782  0.25367691374819956  1.0000
  S   S3        1.0  0.7463230841576796  0.2536769901740672  0.2536770438815978  1.0000
  S   S4        1.0  0.2536770064344854  0.7463229055016705  0.7463230640393952  1.0000
  S   S5        1.0  0.2536770319218301  0.7463229142535789  0.25367706179275806  1.0000
  S   S6        1.0  0.7463228803592897  0.25367709238438774  0.7463229653601828  1.0000
