data_image0
_chemical_formula_structural       Y2VSe6
_chemical_formula_sum              "Y2 V1 Se6"
_cell_length_a       6.617288860994961
_cell_length_b       6.617288796093228
_cell_length_c       6.617288953280101
_cell_angle_alpha    59.99999927554704
_cell_angle_beta     59.9999989268511
_cell_angle_gamma    59.99999912645664

_space_group_name_H-M_alt    "P 1"
_space_group_IT_number       1

loop_
  _space_group_symop_operation_xyz
  'x, y, z'

loop_
  _atom_site_type_symbol
  _atom_site_label
  _atom_site_symmetry_multiplicity
  _atom_site_fract_x
  _atom_site_fract_y
  _atom_site_fract_z
  _atom_site_occupancy
  Y   Y1        1.0  0.2500000094883909  0.25000003850711205  0.24999998907064708  1.0000
  Y   Y2        1.0  0.7499999888963157  0.7500000248308724  0.7500001290579468  1.0000
  V   V1        1.0  0.9999999986784269  0.9999999777900903  0.999999989097848  1.0000
  Se  Se1       1.0  0.25482396381362343  0.2548238935509678  0.7451761045192942  1.0000
  Se  Se2       1.0  0.7451760611872768  0.745176116113068  0.2548238835748527  1.0000
  Se  Se3       1.0  0.745176018914838  0.25482394924299956  0.25482388914871185  1.0000
  Se  Se4       1.0  0.25482388402548206  0.7451760863325975  0.7451760744826864  1.0000
  Se  Se5       1.0  0.2548239895954182  0.7451760404382559  0.254823874306068  1.0000
  Se  Se6       1.0  0.7451760906822333  0.25482387668448964  0.7451760538383178  1.0000
