data_image0
_chemical_formula_structural       Y2VTe6
_chemical_formula_sum              "Y2 V1 Te6"
_cell_length_a       7.141703213138523
_cell_length_b       7.141703176831449
_cell_length_c       7.141703121456151
_cell_angle_alpha    60.000000359997046
_cell_angle_beta     60.000000259818094
_cell_angle_gamma    59.99999967153877

_space_group_name_H-M_alt    "P 1"
_space_group_IT_number       1

loop_
  _space_group_symop_operation_xyz
  'x, y, z'

loop_
  _atom_site_type_symbol
  _atom_site_label
  _atom_site_symmetry_multiplicity
  _atom_site_fract_x
  _atom_site_fract_y
  _atom_site_fract_z
  _atom_site_occupancy
  Y   Y1        1.0  0.2500000116537497  0.25000000669983446  0.24999989258952518  1.0000
  Y   Y2        1.0  0.7499998705505866  0.7499999652220688  0.7500001598728  1.0000
  V   V1        1.0  0.9999999966682381  5.144759625906519e-09  0.9999999948928224  1.0000
  Te  Te1       1.0  0.25808393607458724  0.2580838345756406  0.7419161031495345  1.0000
  Te  Te2       1.0  0.7419161270367199  0.7419161184821431  0.2580838416870664  1.0000
  Te  Te3       1.0  0.7419161546448686  0.25808391389211716  0.2580838517131477  1.0000
  Te  Te4       1.0  0.2580838886720232  0.7419160597447051  0.7419161641426789  1.0000
  Te  Te5       1.0  0.25808390139147896  0.7419161840647704  0.2580838624376966  1.0000
  Te  Te6       1.0  0.7419161157924746  0.2580839164761227  0.7419161198352788  1.0000
