data_image0
_chemical_formula_structural       Y2ZnTe6
_chemical_formula_sum              "Y2 Zn1 Te6"
_cell_length_a       7.1853661345244975
_cell_length_b       7.185366276622295
_cell_length_c       7.185366197944524
_cell_angle_alpha    59.99999883277118
_cell_angle_beta     60.00000053221857
_cell_angle_gamma    59.99999939422132

_space_group_name_H-M_alt    "P 1"
_space_group_IT_number       1

loop_
  _space_group_symop_operation_xyz
  'x, y, z'

loop_
  _atom_site_type_symbol
  _atom_site_label
  _atom_site_symmetry_multiplicity
  _atom_site_fract_x
  _atom_site_fract_y
  _atom_site_fract_z
  _atom_site_occupancy
  Y   Y1        1.0  0.25000003484338185  0.2500000072476542  0.24999994853895918  1.0000
  Y   Y2        1.0  0.7499999712786726  0.7499999586765  0.75000014279145  1.0000
  Zn  Zn1       1.0  0.9999999893023218  2.7271982790064282e-08  0.9999999708370846  1.0000
  Te  Te1       1.0  0.26085192720158773  0.26085195678486417  0.7391480527273581  1.0000
  Te  Te2       1.0  0.7391480586781667  0.7391480312977788  0.2608518789891596  1.0000
  Te  Te3       1.0  0.7391480005523124  0.260851976346386  0.26085194878116386  1.0000
  Te  Te4       1.0  0.26085197443480146  0.7391480492352311  0.7391480573103901  1.0000
  Te  Te5       1.0  0.26085198638844515  0.7391480641311006  0.26085192294706144  1.0000
  Te  Te6       1.0  0.7391480540324057  0.2608519290650369  0.7391480763623871  1.0000
