data_image0
_chemical_formula_structural       Y2ZnO6
_chemical_formula_sum              "Y2 Zn1 O6"
_cell_length_a       5.151670192137169
_cell_length_b       5.151670586806198
_cell_length_c       5.1516702605000875
_cell_angle_alpha    60.00000110626362
_cell_angle_beta     60.00000143828266
_cell_angle_gamma    60.00000087527943

_space_group_name_H-M_alt    "P 1"
_space_group_IT_number       1

loop_
  _space_group_symop_operation_xyz
  'x, y, z'

loop_
  _atom_site_type_symbol
  _atom_site_label
  _atom_site_symmetry_multiplicity
  _atom_site_fract_x
  _atom_site_fract_y
  _atom_site_fract_z
  _atom_site_occupancy
  Y   Y1        1.0  0.24999998247950023  0.2500001273523572  0.2499999001269384  1.0000
  Y   Y2        1.0  0.7500000269135849  0.7499999755260879  0.7499999706702607  1.0000
  Zn  Zn1       1.0  8.189111201444302e-08  0.9999999762262574  0.9999999709413167  1.0000
  O   O1        1.0  0.2628957598688763  0.26289577047978124  0.7371042442578765  1.0000
  O   O2        1.0  0.7371042431652182  0.7371041564729747  0.2628958011497387  1.0000
  O   O3        1.0  0.7371041837417566  0.26289577082884785  0.2628957914686055  1.0000
  O   O4        1.0  0.2628957574146258  0.7371042274451329  0.7371042880396125  1.0000
  O   O5        1.0  0.26289573158180085  0.7371042242387602  0.2628957999826398  1.0000
  O   O6        1.0  0.7371042143060015  0.2628958001863372  0.7371042136152411  1.0000
