data_image0
_chemical_formula_structural       Y2ZnSe6
_chemical_formula_sum              "Y2 Zn1 Se6"
_cell_length_a       6.6215978773373365
_cell_length_b       6.621597869457136
_cell_length_c       6.6215978929470865
_cell_angle_alpha    60.000000365222846
_cell_angle_beta     60.00000010343985
_cell_angle_gamma    60.00000037396819

_space_group_name_H-M_alt    "P 1"
_space_group_IT_number       1

loop_
  _space_group_symop_operation_xyz
  'x, y, z'

loop_
  _atom_site_type_symbol
  _atom_site_label
  _atom_site_symmetry_multiplicity
  _atom_site_fract_x
  _atom_site_fract_y
  _atom_site_fract_z
  _atom_site_occupancy
  Y   Y1        1.0  0.2500000408694936  0.24999995459611182  0.2500000735239364  1.0000
  Y   Y2        1.0  0.7499999272408715  0.7500001412315338  0.7500000013292952  1.0000
  Zn  Zn1       1.0  0.9999999922328359  0.9999999500602239  1.6696990389916426e-09  1.0000
  Se  Se1       1.0  0.2623854844288961  0.2623854487036558  0.7376145312849188  1.0000
  Se  Se2       1.0  0.7376145417933859  0.7376145564925441  0.2623854269296413  1.0000
  Se  Se3       1.0  0.7376145233427226  0.2623854116183048  0.262385486098618  1.0000
  Se  Se4       1.0  0.2623854667878335  0.7376145658335752  0.7376145206462694  1.0000
  Se  Se5       1.0  0.26238545757101783  0.7376145228679304  0.2623854523595775  1.0000
  Se  Se6       1.0  0.7376145582063751  0.26238545088470683  0.7376145147175325  1.0000
