data_image0
_chemical_formula_structural       Y2ZnS6
_chemical_formula_sum              "Y2 Zn1 S6"
_cell_length_a       6.2695462439863325
_cell_length_b       6.269546139787368
_cell_length_c       6.269546058704326
_cell_angle_alpha    60.00000008184413
_cell_angle_beta     59.999999483566704
_cell_angle_gamma    59.99999819308567

_space_group_name_H-M_alt    "P 1"
_space_group_IT_number       1

loop_
  _space_group_symop_operation_xyz
  'x, y, z'

loop_
  _atom_site_type_symbol
  _atom_site_label
  _atom_site_symmetry_multiplicity
  _atom_site_fract_x
  _atom_site_fract_y
  _atom_site_fract_z
  _atom_site_occupancy
  Y   Y1        1.0  0.2499999529500121  0.24999999880706436  0.2500000462685349  1.0000
  Y   Y2        1.0  0.7499999912333836  0.7500000081420858  0.7499999790278339  1.0000
  Zn  Zn1       1.0  2.2694780923622995e-09  9.76741260563723e-09  2.1096755350931032e-08  1.0000
  S   S1        1.0  0.26004785777528794  0.26004775441951283  0.7399521888980791  1.0000
  S   S2        1.0  0.7399521443964704  0.7399522056460559  0.26004785477107534  1.0000
  S   S3        1.0  0.7399522006373569  0.2600477928004638  0.26004780717911485  1.0000
  S   S4        1.0  0.26004783868561715  0.7399521828929644  0.7399521606551356  1.0000
  S   S5        1.0  0.2600478287357535  0.7399521957402037  0.2600478309141695  1.0000
  S   S6        1.0  0.7399521752202594  0.26004786395297347  0.7399521078186518  1.0000
