data_image0
_chemical_formula_structural       Zn2AgTe6
_chemical_formula_sum              "Zn2 Ag1 Te6"
_cell_length_a       7.24545531637871
_cell_length_b       7.245455338317503
_cell_length_c       7.245455445858774
_cell_angle_alpha    59.99999904519748
_cell_angle_beta     59.9999999729657
_cell_angle_gamma    59.999999337469845

_space_group_name_H-M_alt    "P 1"
_space_group_IT_number       1

loop_
  _space_group_symop_operation_xyz
  'x, y, z'

loop_
  _atom_site_type_symbol
  _atom_site_label
  _atom_site_symmetry_multiplicity
  _atom_site_fract_x
  _atom_site_fract_y
  _atom_site_fract_z
  _atom_site_occupancy
  Zn  Zn1       1.0  0.2500000095800913  0.2500000411115325  0.24999997996009507  1.0000
  Zn  Zn2       1.0  0.7499999602945626  0.7499999796537519  0.7500000500840901  1.0000
  Ag  Ag1       1.0  0.9999999718438713  5.578197581166201e-08  0.9999999530628645  1.0000
  Te  Te1       1.0  0.27847369204825384  0.27847375741216657  0.7215262801929744  1.0000
  Te  Te2       1.0  0.721526316108119  0.7215262058807796  0.2784737152809055  1.0000
  Te  Te3       1.0  0.7215262351143417  0.27847376803260043  0.27847369926738874  1.0000
  Te  Te4       1.0  0.27847379066928846  0.7215261901892566  0.7215263244327941  1.0000
  Te  Te5       1.0  0.27847378770300796  0.7215262154379416  0.278473695828492  1.0000
  Te  Te6       1.0  0.721526236276999  0.27847378166226205  0.7215263093343289  1.0000
