data_image0
_chemical_formula_structural       Zn2AuS6
_chemical_formula_sum              "Zn2 Au1 S6"
_cell_length_a       6.514752331648751
_cell_length_b       6.514752363160576
_cell_length_c       6.514752326666425
_cell_angle_alpha    60.00000091058177
_cell_angle_beta     60.00000039607529
_cell_angle_gamma    60.00000141170495

_space_group_name_H-M_alt    "P 1"
_space_group_IT_number       1

loop_
  _space_group_symop_operation_xyz
  'x, y, z'

loop_
  _atom_site_type_symbol
  _atom_site_label
  _atom_site_symmetry_multiplicity
  _atom_site_fract_x
  _atom_site_fract_y
  _atom_site_fract_z
  _atom_site_occupancy
  Zn  Zn1       1.0  0.24999986664514498  0.2500002396737113  0.24999997295943116  1.0000
  Zn  Zn2       1.0  0.7500000314035333  0.7499999350794359  0.7499998372388248  1.0000
  Au  Au1       1.0  2.8663136983293533e-08  1.5039648824071338e-08  0.9999999244243853  1.0000
  S   S1        1.0  0.26465526633538367  0.26465543548039083  0.7353445903969497  1.0000
  S   S2        1.0  0.7353447380628362  0.7353445531571033  0.2646554715112938  1.0000
  S   S3        1.0  0.7353446779922219  0.26465528968277613  0.2646554693688957  1.0000
  S   S4        1.0  0.2646553870468348  0.7353445861573524  0.7353447398808554  1.0000
  S   S5        1.0  0.26465531413690085  0.7353445284281257  0.2646553612674101  1.0000
  S   S6        1.0  0.7353446797526438  0.2646554226102454  0.7353446433409101  1.0000
