data_image0
_chemical_formula_structural       Zn2AuO6
_chemical_formula_sum              "Zn2 Au1 O6"
_cell_length_a       5.298236761769375
_cell_length_b       5.29823714754298
_cell_length_c       5.298236932684561
_cell_angle_alpha    59.99999989659165
_cell_angle_beta     60.00000067924143
_cell_angle_gamma    59.99999963862615

_space_group_name_H-M_alt    "P 1"
_space_group_IT_number       1

loop_
  _space_group_symop_operation_xyz
  'x, y, z'

loop_
  _atom_site_type_symbol
  _atom_site_label
  _atom_site_symmetry_multiplicity
  _atom_site_fract_x
  _atom_site_fract_y
  _atom_site_fract_z
  _atom_site_occupancy
  Zn  Zn1       1.0  0.25000016656485824  0.2500001873256553  0.2499997054072232  1.0000
  Zn  Zn2       1.0  0.7500000293474227  0.7500000834740609  0.7499998548855408  1.0000
  Au  Au1       1.0  0.9999999866591615  1.3869650181906806e-08  0.9999999808613907  1.0000
  O   O1        1.0  0.261384809544788  0.2613847815343008  0.738615310244837  1.0000
  O   O2        1.0  0.7386153266473936  0.7386152303652825  0.2613848378024556  1.0000
  O   O3        1.0  0.7386151009761533  0.26138473891701053  0.2613847723160154  1.0000
  O   O4        1.0  0.26138476290376855  0.7386150764958822  0.7386153704283714  1.0000
  O   O5        1.0  0.2613847019326613  0.7386152146004321  0.26138480364537814  1.0000
  O   O6        1.0  0.7386151225403977  0.26138468634196615  0.7386153349118889  1.0000
