data_image0
_chemical_formula_structural       Zn2AgO6
_chemical_formula_sum              "Zn2 Ag1 O6"
_cell_length_a       5.30668776392123
_cell_length_b       5.30668787327464
_cell_length_c       5.306688036060882
_cell_angle_alpha    59.9999995683572
_cell_angle_beta     59.99999878897173
_cell_angle_gamma    59.99999982015328

_space_group_name_H-M_alt    "P 1"
_space_group_IT_number       1

loop_
  _space_group_symop_operation_xyz
  'x, y, z'

loop_
  _atom_site_type_symbol
  _atom_site_label
  _atom_site_symmetry_multiplicity
  _atom_site_fract_x
  _atom_site_fract_y
  _atom_site_fract_z
  _atom_site_occupancy
  Zn  Zn1       1.0  0.24999991953748954  0.25000006790307455  0.2500000953526912  1.0000
  Zn  Zn2       1.0  0.7499999754178562  0.7500000167671276  0.7500000280369543  1.0000
  Ag  Ag1       1.0  8.670065786869304e-11  7.154574009441921e-08  0.9999999943344123  1.0000
  O   O1        1.0  0.26563740749956644  0.2656373472208369  0.7343627009037034  1.0000
  O   O2        1.0  0.7343626699741841  0.7343625228121448  0.2656373725908417  1.0000
  O   O3        1.0  0.7343625380335551  0.26563731324312745  0.2656374102852686  1.0000
  O   O4        1.0  0.26563738604618686  0.7343626514148648  0.7343625832977329  1.0000
  O   O5        1.0  0.2656373566086928  0.7343626284048692  0.2656373588383105  1.0000
  O   O6        1.0  0.7343627373032947  0.26563736856410197  0.7343625129445197  1.0000
