data_image0
_chemical_formula_structural       Zn2BeO6
_chemical_formula_sum              "Zn2 Be1 O6"
_cell_length_a       4.957412931154043
_cell_length_b       4.9574126551695
_cell_length_c       4.957412117072897
_cell_angle_alpha    60.00000266689879
_cell_angle_beta     60.000005870731144
_cell_angle_gamma    60.00000051740235

_space_group_name_H-M_alt    "P 1"
_space_group_IT_number       1

loop_
  _space_group_symop_operation_xyz
  'x, y, z'

loop_
  _atom_site_type_symbol
  _atom_site_label
  _atom_site_symmetry_multiplicity
  _atom_site_fract_x
  _atom_site_fract_y
  _atom_site_fract_z
  _atom_site_occupancy
  Zn  Zn1       1.0  0.24999999772988024  0.25000019564270065  0.24999979174730877  1.0000
  Zn  Zn2       1.0  0.7499998888545449  0.7499999915297922  0.7499999954109534  1.0000
  Be  Be1       1.0  4.618516637466188e-08  0.9999999802357419  0.9999998637414748  1.0000
  O   O1        1.0  0.23621487257594942  0.23621494753182606  0.7637851481687272  1.0000
  O   O2        1.0  0.763784942932375  0.763785180347888  0.23621487361722077  1.0000
  O   O3        1.0  0.7637852156124226  0.2362149133888484  0.2362148654232383  1.0000
  O   O4        1.0  0.23621502095159672  0.7637849575554893  0.7637853325017853  1.0000
  O   O5        1.0  0.23621476431576766  0.7637850775986054  0.236214985380619  1.0000
  O   O6        1.0  0.763785243183458  0.23621475381721868  0.7637851511744524  1.0000
