data_image0
_chemical_formula_structural       Zn2BeSe6
_chemical_formula_sum              "Zn2 Be1 Se6"
_cell_length_a       6.158092505280355
_cell_length_b       6.158092377553006
_cell_length_c       6.1580922720453986
_cell_angle_alpha    59.99999769991692
_cell_angle_beta     59.999996538883344
_cell_angle_gamma    59.99999761704384

_space_group_name_H-M_alt    "P 1"
_space_group_IT_number       1

loop_
  _space_group_symop_operation_xyz
  'x, y, z'

loop_
  _atom_site_type_symbol
  _atom_site_label
  _atom_site_symmetry_multiplicity
  _atom_site_fract_x
  _atom_site_fract_y
  _atom_site_fract_z
  _atom_site_occupancy
  Zn  Zn1       1.0  0.24999921792733337  0.2500003595486164  0.25000014886847355  1.0000
  Zn  Zn2       1.0  0.7500003265104794  0.750000024561621  0.7499997330921151  1.0000
  Be  Be1       1.0  0.9999998118666288  0.999999934368342  1.1551536598111993e-07  1.0000
  Se  Se1       1.0  0.22450898252074777  0.22450906573400362  0.7754909172092332  1.0000
  Se  Se2       1.0  0.7754911988810687  0.7754902006491887  0.22450952990878428  1.0000
  Se  Se3       1.0  0.7754913078501011  0.22450912550119748  0.22450877617674173  1.0000
  Se  Se4       1.0  0.2245091383197305  0.7754912029215646  0.7754909620688238  1.0000
  Se  Se5       1.0  0.2245090389162195  0.775490837111836  0.22450900407034008  1.0000
  Se  Se6       1.0  0.7754910010243957  0.22450929242711598  0.7754908256274183  1.0000
