data_image0
_chemical_formula_structural       Zn2BeS6
_chemical_formula_sum              "Zn2 Be1 S6"
_cell_length_a       5.610517758846169
_cell_length_b       5.610520682134773
_cell_length_c       5.610516716835135
_cell_angle_alpha    60.00000121361774
_cell_angle_beta     59.99998959234119
_cell_angle_gamma    60.00002635910094

_space_group_name_H-M_alt    "P 1"
_space_group_IT_number       1

loop_
  _space_group_symop_operation_xyz
  'x, y, z'

loop_
  _atom_site_type_symbol
  _atom_site_label
  _atom_site_symmetry_multiplicity
  _atom_site_fract_x
  _atom_site_fract_y
  _atom_site_fract_z
  _atom_site_occupancy
  Zn  Zn1       1.0  0.24999806316766798  0.25000084416917084  0.24999975873316554  1.0000
  Zn  Zn2       1.0  0.7499999847121862  0.7499990267011052  0.7500046371376198  1.0000
  Be  Be1       1.0  0.9999996384628043  0.9999998559256139  6.360147710686671e-07  1.0000
  S   S1        1.0  0.25136205349087776  0.25136008614815697  0.7486399497859758  1.0000
  S   S2        1.0  0.7486403336201933  0.7486380536501099  0.25135867717555044  1.0000
  S   S3        1.0  0.7486393190515994  0.2513627607436191  0.2513599222231038  1.0000
  S   S4        1.0  0.2513608886743292  0.7486380706229672  0.7486379388896863  1.0000
  S   S5        1.0  0.251361162427014  0.7486399370257351  0.25136042872395653  1.0000
  S   S6        1.0  0.7486388874850401  0.2513612195992361  0.7486377978230344  1.0000
