data_image0
_chemical_formula_structural       Zn2CdS6
_chemical_formula_sum              "Zn2 Cd1 S6"
_cell_length_a       6.706659854551053
_cell_length_b       6.706659498750809
_cell_length_c       6.706659732877356
_cell_angle_alpha    59.99999966163352
_cell_angle_beta     59.999999035162155
_cell_angle_gamma    60.000002760050364

_space_group_name_H-M_alt    "P 1"
_space_group_IT_number       1

loop_
  _space_group_symop_operation_xyz
  'x, y, z'

loop_
  _atom_site_type_symbol
  _atom_site_label
  _atom_site_symmetry_multiplicity
  _atom_site_fract_x
  _atom_site_fract_y
  _atom_site_fract_z
  _atom_site_occupancy
  Zn  Zn1       1.0  0.2500001253506474  0.24999964713111658  0.2500002858382528  1.0000
  Zn  Zn2       1.0  0.7500000318769777  0.7500002270115799  0.7500001377869157  1.0000
  Cd  Cd1       1.0  0.9999999649747495  0.9999999707814043  1.991201078436124e-07  1.0000
  S   S1        1.0  0.279747043930365  0.2797467878276962  0.720253184992186  1.0000
  S   S2        1.0  0.7202531475049138  0.7202531283167295  0.2797468590766458  1.0000
  S   S3        1.0  0.7202529724979873  0.2797467549927924  0.27974684068462063  1.0000
  S   S4        1.0  0.2797468248687209  0.7202533309847018  0.7202528994975615  1.0000
  S   S5        1.0  0.27974673633717156  0.7202534521340515  0.27974667627356953  1.0000
  S   S6        1.0  0.7202532014796816  0.2797466721928562  0.7202529118845128  1.0000
