data_image0
_chemical_formula_structural       Zn2CrSe6
_chemical_formula_sum              "Zn2 Cr1 Se6"
_cell_length_a       6.656943208504524
_cell_length_b       6.656943131569257
_cell_length_c       6.656943308716257
_cell_angle_alpha    59.999999561663046
_cell_angle_beta     60.00000097480032
_cell_angle_gamma    60.000000362921796

_space_group_name_H-M_alt    "P 1"
_space_group_IT_number       1

loop_
  _space_group_symop_operation_xyz
  'x, y, z'

loop_
  _atom_site_type_symbol
  _atom_site_label
  _atom_site_symmetry_multiplicity
  _atom_site_fract_x
  _atom_site_fract_y
  _atom_site_fract_z
  _atom_site_occupancy
  Zn  Zn1       1.0  0.25000004646854823  0.2499999574192578  0.2500000055256132  1.0000
  Zn  Zn2       1.0  0.7499999924201716  0.7499999697672108  0.7499999466768266  1.0000
  Cr  Cr1       1.0  0.9999999823385335  1.6558206355805296e-08  3.5102021788414345e-08  1.0000
  Se  Se1       1.0  0.2561238811681658  0.25612391050780375  0.7438761411092916  1.0000
  Se  Se2       1.0  0.7438761513413412  0.7438761086687007  0.25612390498711335  1.0000
  Se  Se3       1.0  0.7438760727351348  0.2561239029815724  0.25612389473827235  1.0000
  Se  Se4       1.0  0.2561238825419455  0.7438761033163266  0.7438760747361807  1.0000
  Se  Se5       1.0  0.25612390683839276  0.7438761127861636  0.2561238674823283  1.0000
  Se  Se6       1.0  0.7438760826042023  0.25612392110874677  0.7438761266919273  1.0000
