data_image0
_chemical_formula_structural       Zn2CoS6
_chemical_formula_sum              "Zn2 Co1 S6"
_cell_length_a       6.102346488966239
_cell_length_b       6.102345851465271
_cell_length_c       6.102346328382677
_cell_angle_alpha    59.999999282719216
_cell_angle_beta     60.00000044117032
_cell_angle_gamma    59.99999708037645

_space_group_name_H-M_alt    "P 1"
_space_group_IT_number       1

loop_
  _space_group_symop_operation_xyz
  'x, y, z'

loop_
  _atom_site_type_symbol
  _atom_site_label
  _atom_site_symmetry_multiplicity
  _atom_site_fract_x
  _atom_site_fract_y
  _atom_site_fract_z
  _atom_site_occupancy
  Zn  Zn1       1.0  0.2499996618578365  0.2500003982923507  0.24999977858803207  1.0000
  Zn  Zn2       1.0  0.7499999427806092  0.749999521033465  0.7500002332192  1.0000
  Co  Co1       1.0  0.9999999462142513  4.2147143537738836e-08  1.0414213979846979e-07  1.0000
  S   S1        1.0  0.25069678192765704  0.25069697547948416  0.7493030767645414  1.0000
  S   S2        1.0  0.7493033403012407  0.7493029237762616  0.2506967895214759  1.0000
  S   S3        1.0  0.7493033739840349  0.2506968944259996  0.25069662737578324  1.0000
  S   S4        1.0  0.25069711315879456  0.749302920535466  0.7493033198267879  1.0000
  S   S5        1.0  0.2506968697478072  0.7493031520158198  0.25069683965279976  1.0000
  S   S6        1.0  0.7493029652760289  0.2506971887814097  0.7493032182141  1.0000
