data_image0
_chemical_formula_structural       Zn2CoO6
_chemical_formula_sum              "Zn2 Co1 O6"
_cell_length_a       5.039925955392803
_cell_length_b       5.039926746499742
_cell_length_c       5.039926260125788
_cell_angle_alpha    59.999999283443096
_cell_angle_beta     60.00000120988288
_cell_angle_gamma    60.000000066909614

_space_group_name_H-M_alt    "P 1"
_space_group_IT_number       1

loop_
  _space_group_symop_operation_xyz
  'x, y, z'

loop_
  _atom_site_type_symbol
  _atom_site_label
  _atom_site_symmetry_multiplicity
  _atom_site_fract_x
  _atom_site_fract_y
  _atom_site_fract_z
  _atom_site_occupancy
  Zn  Zn1       1.0  0.24999988260075467  0.2500000038879276  0.2500000812167582  1.0000
  Zn  Zn2       1.0  0.7499998889004678  0.7500000238142137  0.7499998650381493  1.0000
  Co  Co1       1.0  0.9999999762789092  2.430086423362838e-09  0.9999999908039414  1.0000
  O   O1        1.0  0.24705541631549274  0.24705549804900231  0.7529445553769906  1.0000
  O   O2        1.0  0.7529444394920469  0.7529446341467619  0.24705556830731956  1.0000
  O   O3        1.0  0.7529445830324475  0.24705540394529724  0.24705535433736672  1.0000
  O   O4        1.0  0.247055620701659  0.7529445848754708  0.7529445202436257  1.0000
  O   O5        1.0  0.24705538445546046  0.7529445915580801  0.24705544966729984  1.0000
  O   O6        1.0  0.752944779035437  0.24705530491946445  0.7529446181928956  1.0000
