data_image0
_chemical_formula_structural       Zn2CuSe6
_chemical_formula_sum              "Zn2 Cu1 Se6"
_cell_length_a       6.3848759769036985
_cell_length_b       6.384876466162023
_cell_length_c       6.384875817865685
_cell_angle_alpha    60.00000340232452
_cell_angle_beta     60.00000134841922
_cell_angle_gamma    60.00000674188722

_space_group_name_H-M_alt    "P 1"
_space_group_IT_number       1

loop_
  _space_group_symop_operation_xyz
  'x, y, z'

loop_
  _atom_site_type_symbol
  _atom_site_label
  _atom_site_symmetry_multiplicity
  _atom_site_fract_x
  _atom_site_fract_y
  _atom_site_fract_z
  _atom_site_occupancy
  Zn  Zn1       1.0  0.2499999512659021  0.24999987329704274  0.2500001813646687  1.0000
  Zn  Zn2       1.0  0.7499998882779542  0.7500001512315732  0.749999902523591  1.0000
  Cu  Cu1       1.0  0.9999999450149203  0.9999999750634427  8.636794785790722e-09  1.0000
  Se  Se1       1.0  0.28580446179251523  0.2858043878618096  0.7141955579395259  1.0000
  Se  Se2       1.0  0.7141956070444148  0.7141957517586084  0.2858043302632794  1.0000
  Se  Se3       1.0  0.7141955870590035  0.28580427689454074  0.2858044754692367  1.0000
  Se  Se4       1.0  0.28580447016226  0.7141957131065462  0.714195455762239  1.0000
  Se  Se5       1.0  0.28580437771878636  0.7141956581164011  0.2858044615828642  1.0000
  Se  Se6       1.0  0.714195690319013  0.2858042072019107  0.7141956581426296  1.0000
