data_image0
_chemical_formula_structural       Zn2CrO6
_chemical_formula_sum              "Zn2 Cr1 O6"
_cell_length_a       5.136347081683872
_cell_length_b       5.136346831855093
_cell_length_c       5.1363469605065415
_cell_angle_alpha    60.00000043721444
_cell_angle_beta     59.999999877868945
_cell_angle_gamma    60.00000117705326

_space_group_name_H-M_alt    "P 1"
_space_group_IT_number       1

loop_
  _space_group_symop_operation_xyz
  'x, y, z'

loop_
  _atom_site_type_symbol
  _atom_site_label
  _atom_site_symmetry_multiplicity
  _atom_site_fract_x
  _atom_site_fract_y
  _atom_site_fract_z
  _atom_site_occupancy
  Zn  Zn1       1.0  0.24999974350832052  0.2500000252085724  0.25000016105740996  1.0000
  Zn  Zn2       1.0  0.7499999617446808  0.7500002020024669  0.7499996552576518  1.0000
  Cr  Cr1       1.0  3.821764480076281e-08  1.2566697890648456e-15  8.147902371164078e-09  1.0000
  O   O1        1.0  0.25611744361069344  0.25611735524848017  0.7438825875464807  1.0000
  O   O2        1.0  0.7438826289277066  0.7438825524440185  0.25611760010766843  1.0000
  O   O3        1.0  0.7438826665734147  0.25611733931759256  0.2561174179343243  1.0000
  O   O4        1.0  0.25611737153828956  0.7438826446778409  0.7438825755068076  1.0000
  O   O5        1.0  0.2561174233485285  0.7438825430211159  0.25611741259061105  1.0000
  O   O6        1.0  0.7438827209926013  0.2561173718247812  0.743882542841485  1.0000
