data_image0
_chemical_formula_structural       Zn2CrTe6
_chemical_formula_sum              "Zn2 Cr1 Te6"
_cell_length_a       7.10461308074409
_cell_length_b       7.104613188618807
_cell_length_c       7.104613158514568
_cell_angle_alpha    59.99999930731721
_cell_angle_beta     59.99999995527969
_cell_angle_gamma    60.00000452509823

_space_group_name_H-M_alt    "P 1"
_space_group_IT_number       1

loop_
  _space_group_symop_operation_xyz
  'x, y, z'

loop_
  _atom_site_type_symbol
  _atom_site_label
  _atom_site_symmetry_multiplicity
  _atom_site_fract_x
  _atom_site_fract_y
  _atom_site_fract_z
  _atom_site_occupancy
  Zn  Zn1       1.0  0.2500000151169728  0.250000035180948  0.249999962721383  1.0000
  Zn  Zn2       1.0  0.7499999662866873  0.7500001038189666  0.7499999890822584  1.0000
  Cr  Cr1       1.0  0.9999998862331009  0.9999998293365961  3.885339821661696e-07  1.0000
  Te  Te1       1.0  0.26522800428571275  0.2652278737619576  0.7347720700047691  1.0000
  Te  Te2       1.0  0.7347722304817926  0.7347722462753714  0.26522769422143455  1.0000
  Te  Te3       1.0  0.7347720550574766  0.26522790606464763  0.2652279057940762  1.0000
  Te  Te4       1.0  0.26522795478451366  0.7347719915930943  0.7347720708243902  1.0000
  Te  Te5       1.0  0.2652279182075127  0.7347720724397804  0.26522787850456886  1.0000
  Te  Te6       1.0  0.7347719598203287  0.26522794761291524  0.734772045114511  1.0000
