data_image0
_chemical_formula_structural       Zn2CdTe6
_chemical_formula_sum              "Zn2 Cd1 Te6"
_cell_length_a       7.448118114262012
_cell_length_b       7.448118193908088
_cell_length_c       7.448118081944642
_cell_angle_alpha    60.00000091725926
_cell_angle_beta     60.00000059637901
_cell_angle_gamma    60.0000011748176

_space_group_name_H-M_alt    "P 1"
_space_group_IT_number       1

loop_
  _space_group_symop_operation_xyz
  'x, y, z'

loop_
  _atom_site_type_symbol
  _atom_site_label
  _atom_site_symmetry_multiplicity
  _atom_site_fract_x
  _atom_site_fract_y
  _atom_site_fract_z
  _atom_site_occupancy
  Zn  Zn1       1.0  0.24999998331175308  0.2500000127786434  0.25000000750123247  1.0000
  Zn  Zn2       1.0  0.7500000033986599  0.7499999988710944  0.7500000208748993  1.0000
  Cd  Cd1       1.0  1.7773651020538705e-08  1.6443681909235913e-08  0.9999999896044388  1.0000
  Te  Te1       1.0  0.2837824345125633  0.28378245700374916  0.7162175706215412  1.0000
  Te  Te2       1.0  0.7162176079155146  0.7162175595790934  0.28378241266037446  1.0000
  Te  Te3       1.0  0.7162175677066399  0.28378244863468227  0.28378244811409314  1.0000
  Te  Te4       1.0  0.2837823970332262  0.7162175498601097  0.7162175521756694  1.0000
  Te  Te5       1.0  0.2837824346338792  0.7162175288088011  0.2837824529741  1.0000
  Te  Te6       1.0  0.7162175511066011  0.2837824252880502  0.7162175469307366  1.0000
