data_image0
_chemical_formula_structural       Zn2CO6
_chemical_formula_sum              "Zn2 C1 O6"
_cell_length_a       4.701062347223899
_cell_length_b       4.701062324536006
_cell_length_c       4.701062391123472
_cell_angle_alpha    60.00000168266128
_cell_angle_beta     60.000002004250156
_cell_angle_gamma    60.000002644362176

_space_group_name_H-M_alt    "P 1"
_space_group_IT_number       1

loop_
  _space_group_symop_operation_xyz
  'x, y, z'

loop_
  _atom_site_type_symbol
  _atom_site_label
  _atom_site_symmetry_multiplicity
  _atom_site_fract_x
  _atom_site_fract_y
  _atom_site_fract_z
  _atom_site_occupancy
  Zn  Zn1       1.0  0.24999999480390198  0.24999994197554096  0.2500000452435995  1.0000
  Zn  Zn2       1.0  0.7500000187225769  0.7499999587944356  0.7499999883260968  1.0000
  C   C1        1.0  1.3154066347411232e-09  0.9999999739474872  0.999999984715229  1.0000
  O   O1        1.0  0.225605866903491  0.2256059555478072  0.7743940514764378  1.0000
  O   O2        1.0  0.774394109255492  0.7743941015372429  0.22560590560204163  1.0000
  O   O3        1.0  0.774394164189667  0.2256058384433449  0.2256058994529148  1.0000
  O   O4        1.0  0.22560585434719158  0.7743941430894208  0.7743941188835222  1.0000
  O   O5        1.0  0.2256059190715477  0.7743942126606985  0.22560575978039626  1.0000
  O   O6        1.0  0.7743940300430748  0.22560588871362333  0.7743942609997051  1.0000
