data_image0
_chemical_formula_structural       Zn2CuTe6
_chemical_formula_sum              "Zn2 Cu1 Te6"
_cell_length_a       7.033401732191207
_cell_length_b       7.033402314768635
_cell_length_c       7.03340217205601
_cell_angle_alpha    60.000002271890395
_cell_angle_beta     60.00000602061655
_cell_angle_gamma    60.00000140971368

_space_group_name_H-M_alt    "P 1"
_space_group_IT_number       1

loop_
  _space_group_symop_operation_xyz
  'x, y, z'

loop_
  _atom_site_type_symbol
  _atom_site_label
  _atom_site_symmetry_multiplicity
  _atom_site_fract_x
  _atom_site_fract_y
  _atom_site_fract_z
  _atom_site_occupancy
  Zn  Zn1       1.0  0.25000012189672444  0.25000028993468776  0.24999991106053804  1.0000
  Zn  Zn2       1.0  0.7500000762838734  0.7499996595822941  0.7500000123841085  1.0000
  Cu  Cu1       1.0  2.3765897362638317e-07  6.808585907910053e-07  0.9999986279539659  1.0000
  Te  Te1       1.0  0.2702454499402846  0.27024582745308967  0.7297549281898306  1.0000
  Te  Te2       1.0  0.729754315439032  0.7297538887261673  0.270246181396509  1.0000
  Te  Te3       1.0  0.7297535951272273  0.27024599524371956  0.27024558596239334  1.0000
  Te  Te4       1.0  0.27024612247367524  0.7297538445697161  0.7297546809646022  1.0000
  Te  Te5       1.0  0.2702459566864695  0.7297537074890407  0.2702457426381695  1.0000
  Te  Te6       1.0  0.729754124717381  0.270246109687145  0.7297543053652401  1.0000
