data_image0
_chemical_formula_structural       Zn2FeO6
_chemical_formula_sum              "Zn2 Fe1 O6"
_cell_length_a       5.126715095224748
_cell_length_b       5.126715002473427
_cell_length_c       5.126715114658129
_cell_angle_alpha    59.9999996667009
_cell_angle_beta     59.99999984016581
_cell_angle_gamma    59.999999291845015

_space_group_name_H-M_alt    "P 1"
_space_group_IT_number       1

loop_
  _space_group_symop_operation_xyz
  'x, y, z'

loop_
  _atom_site_type_symbol
  _atom_site_label
  _atom_site_symmetry_multiplicity
  _atom_site_fract_x
  _atom_site_fract_y
  _atom_site_fract_z
  _atom_site_occupancy
  Zn  Zn1       1.0  0.24999999492485184  0.24999999431813352  0.25000007874330904  1.0000
  Zn  Zn2       1.0  0.749999996285969  0.7500000092328131  0.7500000008221058  1.0000
  Fe  Fe1       1.0  6.336166772986799e-08  0.999999945054226  0.9999999587312849  1.0000
  O   O1        1.0  0.2573904462039634  0.2573904205342338  0.7426095878712754  1.0000
  O   O2        1.0  0.7426095581343436  0.7426095639051391  0.2573904595759819  1.0000
  O   O3        1.0  0.7426095349746986  0.2573904182424053  0.25739039052966667  1.0000
  O   O4        1.0  0.2573903853446194  0.7426096020311678  0.7426096185918494  1.0000
  O   O5        1.0  0.257390374555254  0.7426096619323089  0.2573903738597527  1.0000
  O   O6        1.0  0.7426096369030099  0.2573903822307305  0.7426095465384892  1.0000
