data_image0
_chemical_formula_structural       Zn2FeSe6
_chemical_formula_sum              "Zn2 Fe1 Se6"
_cell_length_a       6.7152866697377585
_cell_length_b       6.7152867325707835
_cell_length_c       6.715286207466607
_cell_angle_alpha    60.00000091474751
_cell_angle_beta     60.000002754748316
_cell_angle_gamma    59.99999784187858

_space_group_name_H-M_alt    "P 1"
_space_group_IT_number       1

loop_
  _space_group_symop_operation_xyz
  'x, y, z'

loop_
  _atom_site_type_symbol
  _atom_site_label
  _atom_site_symmetry_multiplicity
  _atom_site_fract_x
  _atom_site_fract_y
  _atom_site_fract_z
  _atom_site_occupancy
  Zn  Zn1       1.0  0.250000006781317  0.24999995883686876  0.2500000233132326  1.0000
  Zn  Zn2       1.0  0.7500000309887503  0.75000000964919  0.7499999459281116  1.0000
  Fe  Fe1       1.0  0.9999999456521171  5.47144891308367e-08  0.9999999521642222  1.0000
  Se  Se1       1.0  0.24071807483828217  0.2407181997811227  0.7592818728078807  1.0000
  Se  Se2       1.0  0.7592818664991041  0.759281836186137  0.24071821514898895  1.0000
  Se  Se3       1.0  0.759281904138926  0.24071801109285346  0.2407181702946188  1.0000
  Se  Se4       1.0  0.24071805390782738  0.7592819902218996  0.7592818372854324  1.0000
  Se  Se5       1.0  0.2407181987089917  0.7592818733191723  0.24071802986333496  1.0000
  Se  Se6       1.0  0.7592819155539813  0.24071805139529456  0.759281934930472  1.0000
