data_image0
_chemical_formula_structural       Zn2FeTe6
_chemical_formula_sum              "Zn2 Fe1 Te6"
_cell_length_a       7.337606747809099
_cell_length_b       7.337609824524532
_cell_length_c       7.337609258981655
_cell_angle_alpha    60.00000115342453
_cell_angle_beta     59.999991620476166
_cell_angle_gamma    60.00000734198972

_space_group_name_H-M_alt    "P 1"
_space_group_IT_number       1

loop_
  _space_group_symop_operation_xyz
  'x, y, z'

loop_
  _atom_site_type_symbol
  _atom_site_label
  _atom_site_symmetry_multiplicity
  _atom_site_fract_x
  _atom_site_fract_y
  _atom_site_fract_z
  _atom_site_occupancy
  Zn  Zn1       1.0  0.2499998126247378  0.25000013116093484  0.25000001474206607  1.0000
  Zn  Zn2       1.0  0.7499999190424076  0.7500000830240412  0.7500001905545886  1.0000
  Fe  Fe1       1.0  0.9999995612774549  6.509619480122292e-08  0.9999998733595697  1.0000
  Te  Te1       1.0  0.22852715646406999  0.22852655764032187  0.7714732029947937  1.0000
  Te  Te2       1.0  0.7714733738062336  0.7714734796165519  0.22852670918129495  1.0000
  Te  Te3       1.0  0.7714732151747348  0.2285267060346285  0.22852732525516528  1.0000
  Te  Te4       1.0  0.22852672032560775  0.7714733545901008  0.7714728767104878  1.0000
  Te  Te5       1.0  0.2285270350021301  0.771472905199406  0.22852696133847689  1.0000
  Te  Te6       1.0  0.7714732239825618  0.22852675149512108  0.7714727888642541  1.0000
