data_image0
_chemical_formula_structural       Zn2GeO6
_chemical_formula_sum              "Zn2 Ge1 O6"
_cell_length_a       5.117552598467149
_cell_length_b       5.117552729697493
_cell_length_c       5.117552668416193
_cell_angle_alpha    59.99999959707504
_cell_angle_beta     59.999999281273084
_cell_angle_gamma    59.99999987508456

_space_group_name_H-M_alt    "P 1"
_space_group_IT_number       1

loop_
  _space_group_symop_operation_xyz
  'x, y, z'

loop_
  _atom_site_type_symbol
  _atom_site_label
  _atom_site_symmetry_multiplicity
  _atom_site_fract_x
  _atom_site_fract_y
  _atom_site_fract_z
  _atom_site_occupancy
  Zn  Zn1       1.0  0.24999994396576455  0.2500000036448832  0.25000004485367683  1.0000
  Zn  Zn2       1.0  0.750000022252175  0.7499999678566223  0.7499999690818289  1.0000
  Ge  Ge1       1.0  1.0894636171949633e-08  0.9999999808542104  0.9999999494119239  1.0000
  O   O1        1.0  0.25842480833778114  0.2584247478937459  0.7415752357449836  1.0000
  O   O2        1.0  0.7415751956671948  0.741575293011248  0.2584247421817904  1.0000
  O   O3        1.0  0.7415752472972564  0.2584247174790353  0.2584248303786864  1.0000
  O   O4        1.0  0.25842479151111025  0.7415752731682594  0.741575208034836  1.0000
  O   O5        1.0  0.2584247437653081  0.7415752172274362  0.2584247541178993  1.0000
  O   O6        1.0  0.7415752841719054  0.25842475188084524  0.7415752477411127  1.0000
