data_image0
_chemical_formula_structural       Zn2GeS6
_chemical_formula_sum              "Zn2 Ge1 S6"
_cell_length_a       6.54726165078618
_cell_length_b       6.5472617579836205
_cell_length_c       6.547261281340373
_cell_angle_alpha    59.99999818479566
_cell_angle_beta     59.99999950020645
_cell_angle_gamma    59.999997107998034

_space_group_name_H-M_alt    "P 1"
_space_group_IT_number       1

loop_
  _space_group_symop_operation_xyz
  'x, y, z'

loop_
  _atom_site_type_symbol
  _atom_site_label
  _atom_site_symmetry_multiplicity
  _atom_site_fract_x
  _atom_site_fract_y
  _atom_site_fract_z
  _atom_site_occupancy
  Zn  Zn1       1.0  0.25000010202535583  0.2500000445129189  0.2500000287295707  1.0000
  Zn  Zn2       1.0  0.7499999447472132  0.749999937123528  0.7499996792778403  1.0000
  Ge  Ge1       1.0  0.9999999965094344  0.9999999363988673  2.2854357966192883e-08  1.0000
  S   S1        1.0  0.250647634365469  0.25064776515829706  0.749352299769345  1.0000
  S   S2        1.0  0.749352220148941  0.7493524334702347  0.2506479411372568  1.0000
  S   S3        1.0  0.7493522229129855  0.2506476204210328  0.2506477871519251  1.0000
  S   S4        1.0  0.2506477485213078  0.7493523967572135  0.749352249279673  1.0000
  S   S5        1.0  0.25064769528223796  0.7493521318401679  0.2506476721796308  1.0000
  S   S6        1.0  0.7493523906296893  0.2506478011601073  0.7493522941173141  1.0000
