data_image0
_chemical_formula_structural       Zn2GeTe6
_chemical_formula_sum              "Zn2 Ge1 Te6"
_cell_length_a       7.286022457979499
_cell_length_b       7.28602234633543
_cell_length_c       7.286022396749548
_cell_angle_alpha    60.00000007850613
_cell_angle_beta     59.99999869441624
_cell_angle_gamma    60.00000018935914

_space_group_name_H-M_alt    "P 1"
_space_group_IT_number       1

loop_
  _space_group_symop_operation_xyz
  'x, y, z'

loop_
  _atom_site_type_symbol
  _atom_site_label
  _atom_site_symmetry_multiplicity
  _atom_site_fract_x
  _atom_site_fract_y
  _atom_site_fract_z
  _atom_site_occupancy
  Zn  Zn1       1.0  0.2499999805699137  0.24999999338359938  0.2500000135800992  1.0000
  Zn  Zn2       1.0  0.7500000044294375  0.7500000154507757  0.7500000054553697  1.0000
  Ge  Ge1       1.0  4.949734536288734e-08  8.404756640258336e-09  0.9999999532065658  1.0000
  Te  Te1       1.0  0.27784671641397984  0.2778467046575382  0.7221532693882182  1.0000
  Te  Te2       1.0  0.7221532066677455  0.7221531713816838  0.27784677700660093  1.0000
  Te  Te3       1.0  0.722153260027413  0.27784678804922563  0.27784674243069246  1.0000
  Te  Te4       1.0  0.27784671073875217  0.7221533300469837  0.7221532551677815  1.0000
  Te  Te5       1.0  0.27784677594927737  0.7221532602829054  0.27784675333002157  1.0000
  Te  Te6       1.0  0.7221533056442133  0.2778467250181521  0.7221532278025443  1.0000
