data_image0
_chemical_formula_structural       Zn2MgTe6
_chemical_formula_sum              "Zn2 Mg1 Te6"
_cell_length_a       7.408200039016357
_cell_length_b       7.408200047891651
_cell_length_c       7.408199872085795
_cell_angle_alpha    60.00000130425547
_cell_angle_beta     60.00000001841256
_cell_angle_gamma    60.000000094401656

_space_group_name_H-M_alt    "P 1"
_space_group_IT_number       1

loop_
  _space_group_symop_operation_xyz
  'x, y, z'

loop_
  _atom_site_type_symbol
  _atom_site_label
  _atom_site_symmetry_multiplicity
  _atom_site_fract_x
  _atom_site_fract_y
  _atom_site_fract_z
  _atom_site_occupancy
  Zn  Zn1       1.0  0.2500000234849518  0.24999998254884825  0.250000007923582  1.0000
  Zn  Zn2       1.0  0.7499999655181732  0.7500000286547491  0.7500000154871522  1.0000
  Mg  Mg1       1.0  0.9999999746046111  0.9999999966935423  0.9999999522575663  1.0000
  Te  Te1       1.0  0.2821593926817487  0.2821593276779338  0.7178406471947337  1.0000
  Te  Te2       1.0  0.7178406141583537  0.7178407562677243  0.2821593390256153  1.0000
  Te  Te3       1.0  0.7178406564525315  0.28215927663923807  0.28215935407645354  1.0000
  Te  Te4       1.0  0.2821593125551942  0.7178407477901886  0.717840668669499  1.0000
  Te  Te5       1.0  0.2821593498760446  0.7178406547545094  0.2821592859643145  1.0000
  Te  Te6       1.0  0.7178407133791552  0.28215922253756665  0.7178407267804745  1.0000
