data_image0
_chemical_formula_structural       Zn2MnTe6
_chemical_formula_sum              "Zn2 Mn1 Te6"
_cell_length_a       6.995439968397662
_cell_length_b       6.995440246601047
_cell_length_c       6.995440578467655
_cell_angle_alpha    59.99999715485441
_cell_angle_beta     59.999996149059704
_cell_angle_gamma    60.00000613193959

_space_group_name_H-M_alt    "P 1"
_space_group_IT_number       1

loop_
  _space_group_symop_operation_xyz
  'x, y, z'

loop_
  _atom_site_type_symbol
  _atom_site_label
  _atom_site_symmetry_multiplicity
  _atom_site_fract_x
  _atom_site_fract_y
  _atom_site_fract_z
  _atom_site_occupancy
  Zn  Zn1       1.0  0.2500000149945809  0.24999995476806205  0.2499999995563981  1.0000
  Zn  Zn2       1.0  0.750000037279744  0.7499999220797914  0.7500000594035422  1.0000
  Mn  Mn1       1.0  6.6978580577845e-08  0.99999986343948  8.76825641314516e-08  1.0000
  Te  Te1       1.0  0.25606242846551425  0.25606243359142117  0.7439375362620292  1.0000
  Te  Te2       1.0  0.7439376708392827  0.7439377181282636  0.2560622774061073  1.0000
  Te  Te3       1.0  0.743937455972857  0.25606243065135786  0.25606263993850953  1.0000
  Te  Te4       1.0  0.25606239056836844  0.7439375880093304  0.7439375038731568  1.0000
  Te  Te5       1.0  0.25606242999084516  0.7439375582690124  0.25606249220190114  1.0000
  Te  Te6       1.0  0.7439374860263035  0.2560625391766021  0.7439374216635635  1.0000
