data_image0
_chemical_formula_structural       Zn2MgO6
_chemical_formula_sum              "Zn2 Mg1 O6"
_cell_length_a       5.13271052072614
_cell_length_b       5.132710440965698
_cell_length_c       5.132710639754643
_cell_angle_alpha    59.999999542940316
_cell_angle_beta     59.999998722531174
_cell_angle_gamma    59.999999570535266

_space_group_name_H-M_alt    "P 1"
_space_group_IT_number       1

loop_
  _space_group_symop_operation_xyz
  'x, y, z'

loop_
  _atom_site_type_symbol
  _atom_site_label
  _atom_site_symmetry_multiplicity
  _atom_site_fract_x
  _atom_site_fract_y
  _atom_site_fract_z
  _atom_site_occupancy
  Zn  Zn1       1.0  0.2499999823711031  0.25000014079269245  0.2499999448796959  1.0000
  Zn  Zn2       1.0  0.7500000700823017  0.749999911740653  0.7499999232657328  1.0000
  Mg  Mg1       1.0  0.999999970504516  0.9999999737522819  3.1768177615298296e-08  1.0000
  O   O1        1.0  0.26754818928337154  0.26754824450051135  0.7324517896351651  1.0000
  O   O2        1.0  0.7324518494223753  0.7324517817851173  0.26754821735353634  1.0000
  O   O3        1.0  0.7324517908361173  0.26754819557516984  0.26754818953026627  1.0000
  O   O4        1.0  0.2675481639956092  0.7324517853734908  0.732451852839605  1.0000
  O   O5        1.0  0.267548145386602  0.7324517538859358  0.2675482436331276  1.0000
  O   O6        1.0  0.7324518474403287  0.267548200815007  0.7324518123458832  1.0000
