data_image0
_chemical_formula_structural       Zn2MgS6
_chemical_formula_sum              "Zn2 Mg1 S6"
_cell_length_a       6.514657090190067
_cell_length_b       6.514656908197332
_cell_length_c       6.514656970939498
_cell_angle_alpha    59.999999870602565
_cell_angle_beta     59.99999873479357
_cell_angle_gamma    60.00000062142752

_space_group_name_H-M_alt    "P 1"
_space_group_IT_number       1

loop_
  _space_group_symop_operation_xyz
  'x, y, z'

loop_
  _atom_site_type_symbol
  _atom_site_label
  _atom_site_symmetry_multiplicity
  _atom_site_fract_x
  _atom_site_fract_y
  _atom_site_fract_z
  _atom_site_occupancy
  Zn  Zn1       1.0  0.24999997206672087  0.24999986459854065  0.2500002234757296  1.0000
  Zn  Zn2       1.0  0.7500002738355582  0.7500001107911337  0.7499995009166173  1.0000
  Mg  Mg1       1.0  1.271352705888407e-07  0.9999999323205901  5.7767081293609346e-08  1.0000
  S   S1        1.0  0.26762028662429127  0.26762029102985474  0.7323796815327318  1.0000
  S   S2        1.0  0.7323796498122316  0.7323797087996076  0.2676207057376845  1.0000
  S   S3        1.0  0.7323796687464152  0.2676202434095556  0.2676204922963226  1.0000
  S   S4        1.0  0.2676202599366996  0.7323798222193318  0.7323794499660209  1.0000
  S   S5        1.0  0.26762008929991166  0.7323796957382226  0.26762043108052513  1.0000
  S   S6        1.0  0.7323796733274788  0.2676203097311829  0.732379464649399  1.0000
