data_image0
_chemical_formula_structural       Zn2MnS6
_chemical_formula_sum              "Zn2 Mn1 S6"
_cell_length_a       6.492545044270005
_cell_length_b       6.492544460204331
_cell_length_c       6.4925447861375245
_cell_angle_alpha    59.999998355085815
_cell_angle_beta     59.99999798529435
_cell_angle_gamma    59.9999974890059

_space_group_name_H-M_alt    "P 1"
_space_group_IT_number       1

loop_
  _space_group_symop_operation_xyz
  'x, y, z'

loop_
  _atom_site_type_symbol
  _atom_site_label
  _atom_site_symmetry_multiplicity
  _atom_site_fract_x
  _atom_site_fract_y
  _atom_site_fract_z
  _atom_site_occupancy
  Zn  Zn1       1.0  0.24999998724465267  0.2500001722480258  0.250000047519131  1.0000
  Zn  Zn2       1.0  0.7499999040207134  0.7500000923070846  0.7500002542533516  1.0000
  Mn  Mn1       1.0  4.93326918412798e-08  0.999999900021506  0.9999998004495955  1.0000
  S   S1        1.0  0.24214402563602463  0.24214364429705948  0.7578561749656997  1.0000
  S   S2        1.0  0.7578562066395793  0.7578563335272798  0.24214375619617187  1.0000
  S   S3        1.0  0.7578560683201591  0.24214396059606377  0.24214378355604377  1.0000
  S   S4        1.0  0.24214357539443612  0.7578561662528169  0.7578562641787928  1.0000
  S   S5        1.0  0.24214393149795405  0.7578560728979543  0.24214369025819094  1.0000
  S   S6        1.0  0.7578563598320862  0.2421436370594817  0.7578561604825392  1.0000
