data_image0
_chemical_formula_structural       Zn2NbSe6
_chemical_formula_sum              "Zn2 Nb1 Se6"
_cell_length_a       6.914613269121496
_cell_length_b       6.914613267086039
_cell_length_c       6.914613311100061
_cell_angle_alpha    59.99999998847667
_cell_angle_beta     60.00000084030352
_cell_angle_gamma    60.00000075292246

_space_group_name_H-M_alt    "P 1"
_space_group_IT_number       1

loop_
  _space_group_symop_operation_xyz
  'x, y, z'

loop_
  _atom_site_type_symbol
  _atom_site_label
  _atom_site_symmetry_multiplicity
  _atom_site_fract_x
  _atom_site_fract_y
  _atom_site_fract_z
  _atom_site_occupancy
  Zn  Zn1       1.0  0.25000000340579204  0.25000000370040104  0.2500000037722501  1.0000
  Zn  Zn2       1.0  0.7499999972630333  0.7499999898463072  0.7500000067281827  1.0000
  Nb  Nb1       1.0  4.4330190860708706e-08  0.9999999521764847  8.977724809620562e-09  1.0000
  Se  Se1       1.0  0.2553886673632188  0.25538869286384003  0.7446113062126961  1.0000
  Se  Se2       1.0  0.7446113232685719  0.7446113307939707  0.2553886392946288  1.0000
  Se  Se3       1.0  0.7446113627887943  0.25538864890864293  0.25538866856684816  1.0000
  Se  Se4       1.0  0.2553886375761345  0.7446113605792372  0.7446113615929839  1.0000
  Se  Se5       1.0  0.2553886453443566  0.7446113419163978  0.2553886574247603  1.0000
  Se  Se6       1.0  0.744611324860311  0.2553886728852061  0.7446113388795412  1.0000
