data_image0
_chemical_formula_structural       Zn2NbO6
_chemical_formula_sum              "Zn2 Nb1 O6"
_cell_length_a       5.322406368644183
_cell_length_b       5.322406170590836
_cell_length_c       5.322406647048071
_cell_angle_alpha    59.999996011766214
_cell_angle_beta     59.99999636936177
_cell_angle_gamma    59.999998441853904

_space_group_name_H-M_alt    "P 1"
_space_group_IT_number       1

loop_
  _space_group_symop_operation_xyz
  'x, y, z'

loop_
  _atom_site_type_symbol
  _atom_site_label
  _atom_site_symmetry_multiplicity
  _atom_site_fract_x
  _atom_site_fract_y
  _atom_site_fract_z
  _atom_site_occupancy
  Zn  Zn1       1.0  0.24999992237640775  0.24999988562633282  0.2500001330193414  1.0000
  Zn  Zn2       1.0  0.7499999617418082  0.7500001078968254  0.7499999202983201  1.0000
  Nb  Nb1       1.0  7.670382977107433e-10  0.999999997698889  0.9999999312496123  1.0000
  O   O1        1.0  0.26312634328770707  0.2631262626277323  0.7368737443835812  1.0000
  O   O2        1.0  0.7368737246258722  0.7368736871743133  0.26312635726445815  1.0000
  O   O3        1.0  0.736873679112144  0.2631262955920817  0.2631262865597238  1.0000
  O   O4        1.0  0.2631262993890435  0.7368737922766431  0.7368736799090637  1.0000
  O   O5        1.0  0.263126303199168  0.7368737299589778  0.2631263036731638  1.0000
  O   O6        1.0  0.7368737930270457  0.2631262520586272  0.7368737263760935  1.0000
