data_image0
_chemical_formula_structural       Zn2NbTe6
_chemical_formula_sum              "Zn2 Nb1 Te6"
_cell_length_a       7.318053965439602
_cell_length_b       7.3180539591776395
_cell_length_c       7.318053898727644
_cell_angle_alpha    60.00000040711587
_cell_angle_beta     60.00000045843603
_cell_angle_gamma    59.99999996928695

_space_group_name_H-M_alt    "P 1"
_space_group_IT_number       1

loop_
  _space_group_symop_operation_xyz
  'x, y, z'

loop_
  _atom_site_type_symbol
  _atom_site_label
  _atom_site_symmetry_multiplicity
  _atom_site_fract_x
  _atom_site_fract_y
  _atom_site_fract_z
  _atom_site_occupancy
  Zn  Zn1       1.0  0.24999999502281942  0.2500000040777209  0.25000000245246834  1.0000
  Zn  Zn2       1.0  0.7499999985364998  0.7499999954972261  0.7499999912270671  1.0000
  Nb  Nb1       1.0  0.9999999865319581  1.6735936503025062e-08  0.9999998890473716  1.0000
  Te  Te1       1.0  0.2653689200590526  0.2653689648114724  0.7346310569552116  1.0000
  Te  Te2       1.0  0.7346310775803253  0.7346310414578492  0.2653689504678762  1.0000
  Te  Te3       1.0  0.7346310701128942  0.26536890611491043  0.265368961862321  1.0000
  Te  Te4       1.0  0.2653689123055561  0.7346310984808176  0.7346310991019833  1.0000
  Te  Te5       1.0  0.26536893195009353  0.7346310846581358  0.26536894295697394  1.0000
  Te  Te6       1.0  0.7346311089620248  0.2653688864657188  0.7346311068629167  1.0000
