data_image0
_chemical_formula_structural       Zn2NiSe6
_chemical_formula_sum              "Zn2 Ni1 Se6"
_cell_length_a       6.586031054715248
_cell_length_b       6.586030945935932
_cell_length_c       6.586030785114258
_cell_angle_alpha    60.00000174514292
_cell_angle_beta     60.00000343143907
_cell_angle_gamma    60.00000349126323

_space_group_name_H-M_alt    "P 1"
_space_group_IT_number       1

loop_
  _space_group_symop_operation_xyz
  'x, y, z'

loop_
  _atom_site_type_symbol
  _atom_site_label
  _atom_site_symmetry_multiplicity
  _atom_site_fract_x
  _atom_site_fract_y
  _atom_site_fract_z
  _atom_site_occupancy
  Zn  Zn1       1.0  0.25000018981894573  0.2500002595488861  0.2499997654400541  1.0000
  Zn  Zn2       1.0  0.750000001168024  0.7499999325241331  0.7500002555744408  1.0000
  Ni  Ni1       1.0  0.9999999766941406  0.9999999962807794  0.9999999375942792  1.0000
  Se  Se1       1.0  0.25109020406017796  0.2510903196670154  0.7489096762725255  1.0000
  Se  Se2       1.0  0.7489097144488597  0.7489096957430539  0.2510902352720594  1.0000
  Se  Se3       1.0  0.7489096626478953  0.25109032462993497  0.2510903702764608  1.0000
  Se  Se4       1.0  0.2510902774502412  0.7489096312726182  0.7489097849453833  1.0000
  Se  Se5       1.0  0.25109038209029705  0.7489095964173172  0.25109028382603293  1.0000
  Se  Se6       1.0  0.7489095758078516  0.25109025348747066  0.7489097317724971  1.0000
