data_image0
_chemical_formula_structural       Zn2NbS6
_chemical_formula_sum              "Zn2 Nb1 S6"
_cell_length_a       6.524326509980065
_cell_length_b       6.5243260902276035
_cell_length_c       6.524326511335731
_cell_angle_alpha    59.999996024417605
_cell_angle_beta     59.99999703640011
_cell_angle_gamma    59.999995751303594

_space_group_name_H-M_alt    "P 1"
_space_group_IT_number       1

loop_
  _space_group_symop_operation_xyz
  'x, y, z'

loop_
  _atom_site_type_symbol
  _atom_site_label
  _atom_site_symmetry_multiplicity
  _atom_site_fract_x
  _atom_site_fract_y
  _atom_site_fract_z
  _atom_site_occupancy
  Zn  Zn1       1.0  0.2499999928510297  0.2499999092355861  0.2500002367458163  1.0000
  Zn  Zn2       1.0  0.7499999831784525  0.7500000111636013  0.7500001968095555  1.0000
  Nb  Nb1       1.0  0.9999999626739345  0.9999999155261088  0.9999999551419378  1.0000
  S   S1        1.0  0.2570155722203246  0.25701554933472476  0.7429843438670756  1.0000
  S   S2        1.0  0.7429844400616503  0.7429845118542883  0.25701548310599914  1.0000
  S   S3        1.0  0.7429845301504404  0.25701563041419007  0.2570154323189773  1.0000
  S   S4        1.0  0.25701534338469423  0.7429845603014583  0.7429844973586175  1.0000
  S   S5        1.0  0.2570156270974744  0.7429845330987855  0.2570153722283728  1.0000
  S   S6        1.0  0.7429845641376757  0.25701536289683596  0.7429844785193137  1.0000
