data_image0
_chemical_formula_structural       Zn2NiTe6
_chemical_formula_sum              "Zn2 Ni1 Te6"
_cell_length_a       6.978182697006752
_cell_length_b       6.9781831728120505
_cell_length_c       6.978182965270423
_cell_angle_alpha    60.00000036275051
_cell_angle_beta     59.99999881516048
_cell_angle_gamma    60.00000391129442

_space_group_name_H-M_alt    "P 1"
_space_group_IT_number       1

loop_
  _space_group_symop_operation_xyz
  'x, y, z'

loop_
  _atom_site_type_symbol
  _atom_site_label
  _atom_site_symmetry_multiplicity
  _atom_site_fract_x
  _atom_site_fract_y
  _atom_site_fract_z
  _atom_site_occupancy
  Zn  Zn1       1.0  0.25000001893150325  0.2500000673256847  0.24999992539060037  1.0000
  Zn  Zn2       1.0  0.7500000138261445  0.7499999387112112  0.7500000181372504  1.0000
  Ni  Ni1       1.0  0.9999999718868159  0.9999999701632062  0.9999997108405964  1.0000
  Te  Te1       1.0  0.26135325170994367  0.2613534209460148  0.7386466604284961  1.0000
  Te  Te2       1.0  0.7386468495598084  0.738646607907256  0.2613532474663796  1.0000
  Te  Te3       1.0  0.7386464623773588  0.26135367128162906  0.26135335730170944  1.0000
  Te  Te4       1.0  0.26135341941266954  0.7386464997351874  0.738646807073001  1.0000
  Te  Te5       1.0  0.26135350911953953  0.7386463435377694  0.26135349238283223  1.0000
  Te  Te6       1.0  0.7386464987197329  0.2613534940089859  0.7386467714031748  1.0000
