data_image0
_chemical_formula_structural       Zn2PdO6
_chemical_formula_sum              "Zn2 Pd1 O6"
_cell_length_a       4.722171774290952
_cell_length_b       4.72217215089795
_cell_length_c       4.722171519660796
_cell_angle_alpha    59.9999885315466
_cell_angle_beta     59.99999605503934
_cell_angle_gamma    59.99998749581907

_space_group_name_H-M_alt    "P 1"
_space_group_IT_number       1

loop_
  _space_group_symop_operation_xyz
  'x, y, z'

loop_
  _atom_site_type_symbol
  _atom_site_label
  _atom_site_symmetry_multiplicity
  _atom_site_fract_x
  _atom_site_fract_y
  _atom_site_fract_z
  _atom_site_occupancy
  Zn  Zn1       1.0  0.2499999777038378  0.2500001601034362  0.2500001698181285  1.0000
  Zn  Zn2       1.0  0.7499997815299517  0.7500004362191481  0.7499998745770089  1.0000
  Pd  Pd1       1.0  2.7523890228765773e-06  0.9999972300295165  0.9999990494865261  1.0000
  O   O1        1.0  0.26652767900313806  0.2665273023998365  0.733472402293361  1.0000
  O   O2        1.0  0.7334727693240966  0.7334721216131637  0.2665275957068646  1.0000
  O   O3        1.0  0.7334716890447371  0.2665285553694471  0.26652869908385607  1.0000
  O   O4        1.0  0.2665263602970709  0.7334736567690321  0.7334733977825016  1.0000
  O   O5        1.0  0.2665273737112968  0.7334725973698818  0.266526747868424  1.0000
  O   O6        1.0  0.7334717165556113  0.2665279444873086  0.7334720170487946  1.0000
