data_image0
_chemical_formula_structural       Zn2ScS6
_chemical_formula_sum              "Zn2 Sc1 S6"
_cell_length_a       6.604626212802282
_cell_length_b       6.604626352079822
_cell_length_c       6.604626349832196
_cell_angle_alpha    60.00000154282773
_cell_angle_beta     59.9999992709413
_cell_angle_gamma    59.99999962477317

_space_group_name_H-M_alt    "P 1"
_space_group_IT_number       1

loop_
  _space_group_symop_operation_xyz
  'x, y, z'

loop_
  _atom_site_type_symbol
  _atom_site_label
  _atom_site_symmetry_multiplicity
  _atom_site_fract_x
  _atom_site_fract_y
  _atom_site_fract_z
  _atom_site_occupancy
  Zn  Zn1       1.0  0.25000007050866796  0.2500000308170354  0.2499999135535204  1.0000
  Zn  Zn2       1.0  0.7499999771480809  0.7499999144311927  0.7500001255221207  1.0000
  Sc  Sc1       1.0  1.2121899173275422e-07  0.9999998776113022  0.9999999612185065  1.0000
  S   S1        1.0  0.26672528368711834  0.2667253019828258  0.7332745996630099  1.0000
  S   S2        1.0  0.7332748177433639  0.7332746655178872  0.2667251546028206  1.0000
  S   S3        1.0  0.7332747212159778  0.2667253277159074  0.2667253375153621  1.0000
  S   S4        1.0  0.26672520265830096  0.7332749049603201  0.7332746712165844  1.0000
  S   S5        1.0  0.26672525127420565  0.7332746705509785  0.26672533091511635  1.0000
  S   S6        1.0  0.7332745585927151  0.26672530622161567  0.7332748960823072  1.0000
