data_image0
_chemical_formula_structural       Zn2ScTe6
_chemical_formula_sum              "Zn2 Sc1 Te6"
_cell_length_a       7.4334519653466264
_cell_length_b       7.433451842539383
_cell_length_c       7.433451793643933
_cell_angle_alpha    60.000000704944334
_cell_angle_beta     59.999999993529435
_cell_angle_gamma    59.99999877935958

_space_group_name_H-M_alt    "P 1"
_space_group_IT_number       1

loop_
  _space_group_symop_operation_xyz
  'x, y, z'

loop_
  _atom_site_type_symbol
  _atom_site_label
  _atom_site_symmetry_multiplicity
  _atom_site_fract_x
  _atom_site_fract_y
  _atom_site_fract_z
  _atom_site_occupancy
  Zn  Zn1       1.0  0.25000001773622177  0.24999995027884986  0.250000033373409  1.0000
  Zn  Zn2       1.0  0.7499999652902654  0.7500000353691585  0.7500000047286725  1.0000
  Sc  Sc1       1.0  4.724495485930102e-08  0.9999999934095477  0.9999998249666937  1.0000
  Te  Te1       1.0  0.2733169658821689  0.27331696561033275  0.7266830251069175  1.0000
  Te  Te2       1.0  0.7266830183207883  0.7266830398090258  0.2733169581273424  1.0000
  Te  Te3       1.0  0.7266830105368814  0.27331695867048195  0.2733170268741906  1.0000
  Te  Te4       1.0  0.2733169521852169  0.7266830599297784  0.7266830600600311  1.0000
  Te  Te5       1.0  0.2733169750880103  0.7266830297431348  0.2733170160628731  1.0000
  Te  Te6       1.0  0.7266830517939757  0.2733169641429361  0.7266830538390392  1.0000
