data_image0
_chemical_formula_structural       Zn2SO6
_chemical_formula_sum              "Zn2 S1 O6"
_cell_length_a       4.905008466490322
_cell_length_b       4.905008087329616
_cell_length_c       4.905008529264445
_cell_angle_alpha    59.99999739742952
_cell_angle_beta     59.99999795363194
_cell_angle_gamma    59.99999729425663

_space_group_name_H-M_alt    "P 1"
_space_group_IT_number       1

loop_
  _space_group_symop_operation_xyz
  'x, y, z'

loop_
  _atom_site_type_symbol
  _atom_site_label
  _atom_site_symmetry_multiplicity
  _atom_site_fract_x
  _atom_site_fract_y
  _atom_site_fract_z
  _atom_site_occupancy
  Zn  Zn1       1.0  0.24999999932377462  0.25000002145818473  0.25000008213251546  1.0000
  Zn  Zn2       1.0  0.7500001613118058  0.7499999345343262  0.7499999340312133  1.0000
  S   S1        1.0  2.908181587050509e-08  0.9999999975030724  0.9999999622427662  1.0000
  O   O1        1.0  0.23136496889210859  0.23136493798020613  0.7686349813359127  1.0000
  O   O2        1.0  0.7686350170607751  0.7686351253801825  0.23136499712959305  1.0000
  O   O3        1.0  0.7686350610801955  0.23136493149846885  0.23136490870386417  1.0000
  O   O4        1.0  0.23136499913579472  0.7686350644448805  0.7686351336167772  1.0000
  O   O5        1.0  0.2313648982384143  0.7686351886885792  0.23136487780906093  1.0000
  O   O6        1.0  0.7686350125497574  0.23136482473326048  0.7686351203946947  1.0000
