data_image0
_chemical_formula_structural       Zn2TiSe6
_chemical_formula_sum              "Zn2 Ti1 Se6"
_cell_length_a       6.866787589601918
_cell_length_b       6.8667874855582385
_cell_length_c       6.866787739732611
_cell_angle_alpha    59.99999975726203
_cell_angle_beta     59.99999864034765
_cell_angle_gamma    59.99999999139884

_space_group_name_H-M_alt    "P 1"
_space_group_IT_number       1

loop_
  _space_group_symop_operation_xyz
  'x, y, z'

loop_
  _atom_site_type_symbol
  _atom_site_label
  _atom_site_symmetry_multiplicity
  _atom_site_fract_x
  _atom_site_fract_y
  _atom_site_fract_z
  _atom_site_occupancy
  Zn  Zn1       1.0  0.25000001703573954  0.25000005748865545  0.2499999590407982  1.0000
  Zn  Zn2       1.0  0.7499999729593215  0.7500000083768216  0.7500000055223396  1.0000
  Ti  Ti1       1.0  0.9999999901815726  4.458944127595493e-08  0.9999999797019234  1.0000
  Se  Se1       1.0  0.25416862574533783  0.25416852783028293  0.7458314268269572  1.0000
  Se  Se2       1.0  0.7458314187420945  0.7458313846475164  0.2541686104843926  1.0000
  Se  Se3       1.0  0.745831395184327  0.2541685474109528  0.2541686464901183  1.0000
  Se  Se4       1.0  0.25416863218136043  0.7458313811190453  0.7458313884434347  1.0000
  Se  Se5       1.0  0.2541686349702922  0.7458313923007699  0.2541686130773462  1.0000
  Se  Se6       1.0  0.7458313149730271  0.25416865751250783  0.7458313693437674  1.0000
