data_image0
_chemical_formula_structural       Zn2TiO6
_chemical_formula_sum              "Zn2 Ti1 O6"
_cell_length_a       5.17443801779375
_cell_length_b       5.174437795678717
_cell_length_c       5.1744375147616735
_cell_angle_alpha    59.9999998225017
_cell_angle_beta     59.99999908621961
_cell_angle_gamma    59.99999867839401

_space_group_name_H-M_alt    "P 1"
_space_group_IT_number       1

loop_
  _space_group_symop_operation_xyz
  'x, y, z'

loop_
  _atom_site_type_symbol
  _atom_site_label
  _atom_site_symmetry_multiplicity
  _atom_site_fract_x
  _atom_site_fract_y
  _atom_site_fract_z
  _atom_site_occupancy
  Zn  Zn1       1.0  0.24999997013704572  0.2499999591062441  0.2500000803984202  1.0000
  Zn  Zn2       1.0  0.7499997789933447  0.7500001376792644  0.7499999969942107  1.0000
  Ti  Ti1       1.0  1.5191509043161097e-08  6.153976152726806e-08  0.9999999809601354  1.0000
  O   O1        1.0  0.25827503595133816  0.2582748429425367  0.7417250825067038  1.0000
  O   O2        1.0  0.7417250826724022  0.741725069223685  0.25827495269589446  1.0000
  O   O3        1.0  0.7417250731739016  0.2582749064537331  0.2582749278159009  1.0000
  O   O4        1.0  0.25827516133173284  0.7417250530507669  0.7417249426757867  1.0000
  O   O5        1.0  0.2582749118733345  0.7417251320629765  0.2582749325284306  1.0000
  O   O6        1.0  0.7417250778156536  0.2582748321753524  0.7417250386789013  1.0000
