data_image0
_chemical_formula_structural       Zn2TiS6
_chemical_formula_sum              "Zn2 Ti1 S6"
_cell_length_a       6.442396753197957
_cell_length_b       6.442397011651082
_cell_length_c       6.442396471071824
_cell_angle_alpha    60.000003117354574
_cell_angle_beta     60.00000457662353
_cell_angle_gamma    59.99999781059565

_space_group_name_H-M_alt    "P 1"
_space_group_IT_number       1

loop_
  _space_group_symop_operation_xyz
  'x, y, z'

loop_
  _atom_site_type_symbol
  _atom_site_label
  _atom_site_symmetry_multiplicity
  _atom_site_fract_x
  _atom_site_fract_y
  _atom_site_fract_z
  _atom_site_occupancy
  Zn  Zn1       1.0  0.2499999403745988  0.25000008724749123  0.2499999639451916  1.0000
  Zn  Zn2       1.0  0.7499998747326974  0.7500001761943152  0.7499998395076386  1.0000
  Ti  Ti1       1.0  0.9999998723644884  0.9999999258582734  0.9999999798156575  1.0000
  S   S1        1.0  0.25601191471759993  0.2560119016324701  0.743988109237205  1.0000
  S   S2        1.0  0.7439881294497409  0.7439882553493932  0.25601194801571486  1.0000
  S   S3        1.0  0.743988201532123  0.2560116544234945  0.2560117952117992  1.0000
  S   S4        1.0  0.25601192235600395  0.743988112838988  0.7439883223551566  1.0000
  S   S5        1.0  0.2560116548595295  0.7439882992196456  0.2560117001733043  1.0000
  S   S6        1.0  0.743988502176068  0.2560115783049027  0.7439883363755796  1.0000
