data_image0
_chemical_formula_structural       Zn2VSe6
_chemical_formula_sum              "Zn2 V1 Se6"
_cell_length_a       6.782339911811651
_cell_length_b       6.782339515091333
_cell_length_c       6.782339862881533
_cell_angle_alpha    59.99999835116882
_cell_angle_beta     60.000000188215566
_cell_angle_gamma    59.99999904155923

_space_group_name_H-M_alt    "P 1"
_space_group_IT_number       1

loop_
  _space_group_symop_operation_xyz
  'x, y, z'

loop_
  _atom_site_type_symbol
  _atom_site_label
  _atom_site_symmetry_multiplicity
  _atom_site_fract_x
  _atom_site_fract_y
  _atom_site_fract_z
  _atom_site_occupancy
  Zn  Zn1       1.0  0.2500000486780853  0.2500000326028446  0.24999994734614528  1.0000
  Zn  Zn2       1.0  0.7499999906957396  0.7499999407052114  0.750000029222121  1.0000
  V   V1        1.0  2.4679065114548854e-08  0.9999999259628028  2.562804752622621e-09  1.0000
  Se  Se1       1.0  0.250188267442052  0.25018830233846556  0.7498117382699361  1.0000
  Se  Se2       1.0  0.7498117291447398  0.7498117125026519  0.2501883037996823  1.0000
  Se  Se3       1.0  0.749811603954065  0.25018833559185816  0.25018835188814037  1.0000
  Se  Se4       1.0  0.2501883616777128  0.7498116955013265  0.749811620863246  1.0000
  Se  Se5       1.0  0.25018836022945035  0.7498117312530241  0.2501883043034213  1.0000
  Se  Se6       1.0  0.749811619107967  0.25018832512115496  0.7498116858150833  1.0000
