data_image0
_chemical_formula_structural       Zn2VTe6
_chemical_formula_sum              "Zn2 V1 Te6"
_cell_length_a       7.081355921912605
_cell_length_b       7.081355764613822
_cell_length_c       7.081355364754765
_cell_angle_alpha    60.0000011472086
_cell_angle_beta     60.00000193387327
_cell_angle_gamma    60.00000044072912

_space_group_name_H-M_alt    "P 1"
_space_group_IT_number       1

loop_
  _space_group_symop_operation_xyz
  'x, y, z'

loop_
  _atom_site_type_symbol
  _atom_site_label
  _atom_site_symmetry_multiplicity
  _atom_site_fract_x
  _atom_site_fract_y
  _atom_site_fract_z
  _atom_site_occupancy
  Zn  Zn1       1.0  0.24999993838482357  0.24999987874748134  0.25000006305395195  1.0000
  Zn  Zn2       1.0  0.7499998353575724  0.7500000305762936  0.7500001612375761  1.0000
  V   V1        1.0  0.9999999117685431  0.9999998097512129  6.43956943072008e-08  1.0000
  Te  Te1       1.0  0.26634241676514314  0.26634234534456874  0.7336576705509733  1.0000
  Te  Te2       1.0  0.7336575801375974  0.7336578043844922  0.26634229512671526  1.0000
  Te  Te3       1.0  0.733657698885258  0.26634243786326506  0.2663423228686525  1.0000
  Te  Te4       1.0  0.26634244752595565  0.733657595986989  0.7336575977510218  1.0000
  Te  Te5       1.0  0.2663424157823057  0.7336577006663748  0.26634232153814164  1.0000
  Te  Te6       1.0  0.7336577576400913  0.26634239890618794  0.7336575004649017  1.0000
