data_image0
_chemical_formula_structural       Zn2VS6
_chemical_formula_sum              "Zn2 V1 S6"
_cell_length_a       6.427355199870195
_cell_length_b       6.427355242702185
_cell_length_c       6.427355200109396
_cell_angle_alpha    60.000000246022225
_cell_angle_beta     60.00000001843173
_cell_angle_gamma    60.00000023269719

_space_group_name_H-M_alt    "P 1"
_space_group_IT_number       1

loop_
  _space_group_symop_operation_xyz
  'x, y, z'

loop_
  _atom_site_type_symbol
  _atom_site_label
  _atom_site_symmetry_multiplicity
  _atom_site_fract_x
  _atom_site_fract_y
  _atom_site_fract_z
  _atom_site_occupancy
  Zn  Zn1       1.0  0.2500000114378498  0.24999998872441243  0.24999999688646243  1.0000
  Zn  Zn2       1.0  0.7499999982550588  0.7500000042836209  0.7499999943009906  1.0000
  V   V1        1.0  0.9999999882773448  0.9999999866613658  1.719819440221503e-08  1.0000
  S   S1        1.0  0.24706866376263348  0.24706867724090764  0.7529313249004334  1.0000
  S   S2        1.0  0.7529313406309338  0.7529313424443941  0.24706865870975603  1.0000
  S   S3        1.0  0.7529313244166465  0.2470686752566217  0.24706866550788564  1.0000
  S   S4        1.0  0.2470686732266718  0.7529313215624499  0.7529313329105431  1.0000
  S   S5        1.0  0.24706867051548997  0.752931334784929  0.24706867205673191  1.0000
  S   S6        1.0  0.7529313322994934  0.2470686734672577  0.7529313305061061  1.0000
