data_image0
_chemical_formula_structural       Zr2CN6
_chemical_formula_sum              "Zr2 C1 N6"
_cell_length_a       4.994309467124499
_cell_length_b       4.994309630900126
_cell_length_c       4.994309602830155
_cell_angle_alpha    60.00000164347885
_cell_angle_beta     60.00000026090473
_cell_angle_gamma    60.00000044435411

_space_group_name_H-M_alt    "P 1"
_space_group_IT_number       1

loop_
  _space_group_symop_operation_xyz
  'x, y, z'

loop_
  _atom_site_type_symbol
  _atom_site_label
  _atom_site_symmetry_multiplicity
  _atom_site_fract_x
  _atom_site_fract_y
  _atom_site_fract_z
  _atom_site_occupancy
  Zr  Zr1       1.0  0.2499999032687967  0.24999998039755614  0.2500001329083135  1.0000
  Zr  Zr2       1.0  0.7499998649689945  0.7499999681677508  0.750000119441896  1.0000
  C   C1        1.0  6.726094835712573e-06  2.623939087176866e-07  0.9999932800846197  1.0000
  N   N1        1.0  0.23310299537409995  0.23310298386915385  0.7668969943997545  1.0000
  N   N2        1.0  0.766893552913424  0.7668936124286425  0.23310634783596118  1.0000
  N   N3        1.0  0.7668937809859705  0.23310619954897932  0.23310622011235113  1.0000
  N   N4        1.0  0.23310310923070077  0.7668969590516663  0.7668968956785114  1.0000
  N   N5        1.0  0.23310467364923582  0.7668953267089464  0.23310464562014457  1.0000
  N   N6        1.0  0.7668953662623311  0.23310472239985947  0.7668952724528035  1.0000
