data_image0
_chemical_formula_structural       Zr2CoN6
_chemical_formula_sum              "Zr2 Co1 N6"
_cell_length_a       4.956549584093028
_cell_length_b       4.9565497094861355
_cell_length_c       4.956549664317399
_cell_angle_alpha    59.9999992044143
_cell_angle_beta     59.999999085519306
_cell_angle_gamma    59.999997795718976

_space_group_name_H-M_alt    "P 1"
_space_group_IT_number       1

loop_
  _space_group_symop_operation_xyz
  'x, y, z'

loop_
  _atom_site_type_symbol
  _atom_site_label
  _atom_site_symmetry_multiplicity
  _atom_site_fract_x
  _atom_site_fract_y
  _atom_site_fract_z
  _atom_site_occupancy
  Zr  Zr1       1.0  0.2500000018951517  0.25000001825995927  0.24999997459280596  1.0000
  Zr  Zr2       1.0  0.7499999866728305  0.7499999930058129  0.7500000125925429  1.0000
  Co  Co1       1.0  0.9999999847987664  0.9999999827032618  5.256457093494416e-08  1.0000
  N   N1        1.0  0.25566896851545834  0.25566898640582014  0.7443310329388787  1.0000
  N   N2        1.0  0.7443310385483745  0.7443310322728389  0.2556689917304135  1.0000
  N   N3        1.0  0.7443310295644724  0.2556689825554896  0.25566898196380156  1.0000
  N   N4        1.0  0.25566897067598604  0.7443309867039188  0.7443310022306987  1.0000
  N   N5        1.0  0.25566900842418805  0.7443310118488097  0.2556689631305758  1.0000
  N   N6        1.0  0.7443310024752823  0.25566900930081277  0.7443309857542462  1.0000
