data_image0
_chemical_formula_structural       Zr2FeN6
_chemical_formula_sum              "Zr2 Fe1 N6"
_cell_length_a       4.993169774704242
_cell_length_b       4.993169926656716
_cell_length_c       4.993169874976271
_cell_angle_alpha    59.9999998239383
_cell_angle_beta     60.00000044221998
_cell_angle_gamma    60.000000582705866

_space_group_name_H-M_alt    "P 1"
_space_group_IT_number       1

loop_
  _space_group_symop_operation_xyz
  'x, y, z'

loop_
  _atom_site_type_symbol
  _atom_site_label
  _atom_site_symmetry_multiplicity
  _atom_site_fract_x
  _atom_site_fract_y
  _atom_site_fract_z
  _atom_site_occupancy
  Zr  Zr1       1.0  0.24999993315300154  0.250000070069354  0.24999999599750816  1.0000
  Zr  Zr2       1.0  0.7499999915218343  0.7500000017166321  0.7500000002122985  1.0000
  Fe  Fe1       1.0  1.5430821000042083e-09  0.9999999190562685  1.7670231363113634e-08  1.0000
  N   N1        1.0  0.26020808197636364  0.2602080728309058  0.7397919327698956  1.0000
  N   N2        1.0  0.7397919209528117  0.7397919376340714  0.260208060981454  1.0000
  N   N3        1.0  0.7397919321937444  0.26020808065789786  0.26020810001633493  1.0000
  N   N4        1.0  0.26020808108384585  0.7397919126371965  0.7397919271867855  1.0000
  N   N5        1.0  0.2602080893585281  0.7397919272724433  0.2602080641987545  1.0000
  N   N6        1.0  0.7397919301553405  0.260208102815257  0.7397918794051144  1.0000
