data_image0
_chemical_formula_structural       Zr2GeN6
_chemical_formula_sum              "Zr2 Ge1 N6"
_cell_length_a       4.994257883875285
_cell_length_b       4.994258092879366
_cell_length_c       4.994257926682094
_cell_angle_alpha    60.00000061524058
_cell_angle_beta     60.00000113741084
_cell_angle_gamma    60.00000030004842

_space_group_name_H-M_alt    "P 1"
_space_group_IT_number       1

loop_
  _space_group_symop_operation_xyz
  'x, y, z'

loop_
  _atom_site_type_symbol
  _atom_site_label
  _atom_site_symmetry_multiplicity
  _atom_site_fract_x
  _atom_site_fract_y
  _atom_site_fract_z
  _atom_site_occupancy
  Zr  Zr1       1.0  0.25000005781120616  0.2499999915930491  0.2500000084329476  1.0000
  Zr  Zr2       1.0  0.7500000180129744  0.7499999208284193  0.750000093943137  1.0000
  Ge  Ge1       1.0  4.948680467264169e-08  3.187997585893353e-08  0.9999999993625995  1.0000
  N   N1        1.0  0.26299246995703496  0.2629924719303969  0.7370074895314446  1.0000
  N   N2        1.0  0.7370074481784401  0.7370075459402293  0.2629924367321654  1.0000
  N   N3        1.0  0.7370074848991277  0.2629925751779902  0.2629924346375443  1.0000
  N   N4        1.0  0.2629925076188354  0.7370074623110818  0.7370074926807866  1.0000
  N   N5        1.0  0.2629925107900348  0.7370075017978018  0.2629925316443101  1.0000
  N   N6        1.0  0.7370074500363277  0.2629925405958814  0.7370074971686918  1.0000
