data_image0
_chemical_formula_structural       Zr2HfN6
_chemical_formula_sum              "Zr2 Hf1 N6"
_cell_length_a       5.086057695392541
_cell_length_b       5.086057982630804
_cell_length_c       5.0860578346406236
_cell_angle_alpha    60.00000032253082
_cell_angle_beta     60.00000018478104
_cell_angle_gamma    60.000000523854375

_space_group_name_H-M_alt    "P 1"
_space_group_IT_number       1

loop_
  _space_group_symop_operation_xyz
  'x, y, z'

loop_
  _atom_site_type_symbol
  _atom_site_label
  _atom_site_symmetry_multiplicity
  _atom_site_fract_x
  _atom_site_fract_y
  _atom_site_fract_z
  _atom_site_occupancy
  Zr  Zr1       1.0  0.24999988636826553  0.2499999765134224  0.25000008566637427  1.0000
  Zr  Zr2       1.0  0.7500000292819079  0.7499999632528731  0.7500000471896298  1.0000
  Hf  Hf1       1.0  0.9999999735351496  3.8528695387011325e-08  0.999999993968077  1.0000
  N   N1        1.0  0.27860855140088614  0.2786085670956869  0.7213914230923263  1.0000
  N   N2        1.0  0.7213913580560167  0.7213914593601739  0.2786085731737233  1.0000
  N   N3        1.0  0.7213915471328645  0.27860859067132715  0.2786085474631265  1.0000
  N   N4        1.0  0.2786085018683715  0.7213914598649663  0.7213914476030732  1.0000
  N   N5        1.0  0.2786085789365449  0.7213914456375884  0.2786085609304755  1.0000
  N   N6        1.0  0.7213915505137296  0.2786085133930549  0.7213913039990382  1.0000
