data_image0
_chemical_formula_structural       Zr2MnN6
_chemical_formula_sum              "Zr2 Mn1 N6"
_cell_length_a       5.001289569255436
_cell_length_b       5.001289495628712
_cell_length_c       5.001289677668125
_cell_angle_alpha    59.9999978800155
_cell_angle_beta     59.99999809189812
_cell_angle_gamma    59.99999935009373

_space_group_name_H-M_alt    "P 1"
_space_group_IT_number       1

loop_
  _space_group_symop_operation_xyz
  'x, y, z'

loop_
  _atom_site_type_symbol
  _atom_site_label
  _atom_site_symmetry_multiplicity
  _atom_site_fract_x
  _atom_site_fract_y
  _atom_site_fract_z
  _atom_site_occupancy
  Zr  Zr1       1.0  0.25000002256493625  0.2499999965941732  0.2500000286618942  1.0000
  Zr  Zr2       1.0  0.7500000001792365  0.7500000191688185  0.7499999650864213  1.0000
  Mn  Mn1       1.0  0.999999964551629  2.4488576189623e-09  5.448995798390805e-08  1.0000
  N   N1        1.0  0.25801573296822894  0.2580157165030743  0.7419842596252122  1.0000
  N   N2        1.0  0.741984273218176  0.7419842796690516  0.2580157302030934  1.0000
  N   N3        1.0  0.7419842634469475  0.2580157281548381  0.2580157345402208  1.0000
  N   N4        1.0  0.2580157416670954  0.7419842435287054  0.7419842740670101  1.0000
  N   N5        1.0  0.25801572763591474  0.7419842684154279  0.2580157353211382  1.0000
  N   N6        1.0  0.7419842581673682  0.25801574734756355  0.7419842469053587  1.0000
