data_image0
_chemical_formula_structural       Zr2NiN6
_chemical_formula_sum              "Zr2 Ni1 N6"
_cell_length_a       4.964927326490539
_cell_length_b       4.964927282981068
_cell_length_c       4.9649275223587
_cell_angle_alpha    59.999998337981275
_cell_angle_beta     59.99999842135634
_cell_angle_gamma    59.99999841657556

_space_group_name_H-M_alt    "P 1"
_space_group_IT_number       1

loop_
  _space_group_symop_operation_xyz
  'x, y, z'

loop_
  _atom_site_type_symbol
  _atom_site_label
  _atom_site_symmetry_multiplicity
  _atom_site_fract_x
  _atom_site_fract_y
  _atom_site_fract_z
  _atom_site_occupancy
  Zr  Zr1       1.0  0.24999995325353047  0.24999996505255342  0.2500000560786274  1.0000
  Zr  Zr2       1.0  0.7500000649152018  0.7499999913625948  0.749999963174651  1.0000
  Ni  Ni1       1.0  0.9999999789274874  7.400379736353093e-09  6.836066493288472e-09  1.0000
  N   N1        1.0  0.26062793466516265  0.2606279340500715  0.7393720725526337  1.0000
  N   N2        1.0  0.7393720461026414  0.7393721136364259  0.2606279499773555  1.0000
  N   N3        1.0  0.7393720940637291  0.2606278975806811  0.26062792366814747  1.0000
  N   N4        1.0  0.26062790958640053  0.7393720884359857  0.7393720477611111  1.0000
  N   N5        1.0  0.2606279046782887  0.7393720513033445  0.26062796843039404  1.0000
  N   N6        1.0  0.7393721208666176  0.26062792484614944  0.7393720392817525  1.0000
