data_image0
_chemical_formula_structural       Zr2NbN6
_chemical_formula_sum              "Zr2 Nb1 N6"
_cell_length_a       5.152429156893592
_cell_length_b       5.152429050958268
_cell_length_c       5.152429381363509
_cell_angle_alpha    59.9999973256479
_cell_angle_beta     59.99999989407324
_cell_angle_gamma    59.99999934377629

_space_group_name_H-M_alt    "P 1"
_space_group_IT_number       1

loop_
  _space_group_symop_operation_xyz
  'x, y, z'

loop_
  _atom_site_type_symbol
  _atom_site_label
  _atom_site_symmetry_multiplicity
  _atom_site_fract_x
  _atom_site_fract_y
  _atom_site_fract_z
  _atom_site_occupancy
  Zr  Zr1       1.0  0.24999996732138766  0.2500000126000623  0.2500000327338697  1.0000
  Zr  Zr2       1.0  0.7499999955690638  0.7500000259150676  0.7499999583592857  1.0000
  Nb  Nb1       1.0  1.5823503270059574e-08  0.9999999928689275  0.9999999801271285  1.0000
  N   N1        1.0  0.27405477369948955  0.2740548893948516  0.7259451892164637  1.0000
  N   N2        1.0  0.7259452045173386  0.7259450896946701  0.27405489961875734  1.0000
  N   N3        1.0  0.7259451605963776  0.27405481169945217  0.2740548599538793  1.0000
  N   N4        1.0  0.27405484686710785  0.7259452006684108  0.7259451374530494  1.0000
  N   N5        1.0  0.27405491150030237  0.7259451297169013  0.27405476470106  1.0000
  N   N6        1.0  0.7259451236718067  0.2740548398645252  0.7259451917239749  1.0000
