data_image0
_chemical_formula_structural       Zr2OsN6
_chemical_formula_sum              "Zr2 Os1 N6"
_cell_length_a       5.121888197472615
_cell_length_b       5.121888017042432
_cell_length_c       5.121887978611146
_cell_angle_alpha    59.99999942476228
_cell_angle_beta     59.99999929060468
_cell_angle_gamma    59.999998669108265

_space_group_name_H-M_alt    "P 1"
_space_group_IT_number       1

loop_
  _space_group_symop_operation_xyz
  'x, y, z'

loop_
  _atom_site_type_symbol
  _atom_site_label
  _atom_site_symmetry_multiplicity
  _atom_site_fract_x
  _atom_site_fract_y
  _atom_site_fract_z
  _atom_site_occupancy
  Zr  Zr1       1.0  0.24999999585905108  0.24999998842287127  0.2500000043802486  1.0000
  Zr  Zr2       1.0  0.7500000260159768  0.749999998745387  0.7499999752305415  1.0000
  Os  Os1       1.0  2.9034249779939048e-08  1.4347188412298966e-08  0.9999999978333309  1.0000
  N   N1        1.0  0.2570988800410324  0.25709894554817353  0.7429010758944949  1.0000
  N   N2        1.0  0.7429010610608447  0.7429010607496698  0.2570989423476993  1.0000
  N   N3        1.0  0.7429011078694988  0.2570988985487203  0.25709889800673136  1.0000
  N   N4        1.0  0.25709889781416156  0.7429011101403209  0.7429011121302372  1.0000
  N   N5        1.0  0.2570989090643665  0.7429010940397126  0.2570988985775117  1.0000
  N   N6        1.0  0.7429011174563019  0.2570988859549515  0.742901109630926  1.0000
