data_image0
_chemical_formula_structural       Zr2PN6
_chemical_formula_sum              "Zr2 P1 N6"
_cell_length_a       4.950761325828502
_cell_length_b       4.950761290999037
_cell_length_c       4.950761031563278
_cell_angle_alpha    60.00000106921758
_cell_angle_beta     60.00000038415725
_cell_angle_gamma    59.9999999935225

_space_group_name_H-M_alt    "P 1"
_space_group_IT_number       1

loop_
  _space_group_symop_operation_xyz
  'x, y, z'

loop_
  _atom_site_type_symbol
  _atom_site_label
  _atom_site_symmetry_multiplicity
  _atom_site_fract_x
  _atom_site_fract_y
  _atom_site_fract_z
  _atom_site_occupancy
  Zr  Zr1       1.0  0.25000000819496193  0.24999999146182253  0.2500000270779133  1.0000
  Zr  Zr2       1.0  0.7500000006709875  0.7500000461271635  0.7500000270214691  1.0000
  P   P1        1.0  0.9999999850639587  0.9999999678399297  0.9999999629513119  1.0000
  N   N1        1.0  0.2468281951259768  0.24682817901743434  0.7531718023625714  1.0000
  N   N2        1.0  0.7531717653261403  0.7531718288853333  0.24682817363313167  1.0000
  N   N3        1.0  0.7531718203249906  0.2468281667095299  0.24682817203357293  1.0000
  N   N4        1.0  0.24682818486659444  0.7531718189285733  0.7531718432220148  1.0000
  N   N5        1.0  0.24682815712516745  0.7531718494007006  0.24682815772040098  1.0000
  N   N6        1.0  0.7531718507989585  0.24682815602821515  0.7531718523331842  1.0000
