data_image0
_chemical_formula_structural       Zr2PdN6
_chemical_formula_sum              "Zr2 Pd1 N6"
_cell_length_a       4.945709443283691
_cell_length_b       4.945709209887141
_cell_length_c       4.945709251142081
_cell_angle_alpha    60.00000544329172
_cell_angle_beta     60.00000161899853
_cell_angle_gamma    60.00000291948544

_space_group_name_H-M_alt    "P 1"
_space_group_IT_number       1

loop_
  _space_group_symop_operation_xyz
  'x, y, z'

loop_
  _atom_site_type_symbol
  _atom_site_label
  _atom_site_symmetry_multiplicity
  _atom_site_fract_x
  _atom_site_fract_y
  _atom_site_fract_z
  _atom_site_occupancy
  Zr  Zr1       1.0  0.24999998697423692  0.2500000407240049  0.25000000454878285  1.0000
  Zr  Zr2       1.0  0.7499999526236869  0.7499999859711926  0.7500000252376253  1.0000
  Pd  Pd1       1.0  0.9999999587999233  0.9999999975236198  0.9999999995967267  1.0000
  N   N1        1.0  0.274187385361735  0.2741873395896251  0.7258126437705319  1.0000
  N   N2        1.0  0.7258126908091189  0.7258125855740469  0.2741872512217981  1.0000
  N   N3        1.0  0.7258125524507375  0.27418740810572867  0.27418736945028716  1.0000
  N   N4        1.0  0.27418747110523056  0.725812541821737  0.725812678982463  1.0000
  N   N5        1.0  0.2741873052030805  0.7258126567404904  0.2741874619502124  1.0000
  N   N6        1.0  0.7258126683317097  0.2741873451909251  0.7258126097546103  1.0000
