data_image0
_chemical_formula_structural       Zr2PtN6
_chemical_formula_sum              "Zr2 Pt1 N6"
_cell_length_a       5.150047146347339
_cell_length_b       5.150047100282373
_cell_length_c       5.1500468836965565
_cell_angle_alpha    60.000000107821144
_cell_angle_beta     59.999999135405126
_cell_angle_gamma    59.99999931570208

_space_group_name_H-M_alt    "P 1"
_space_group_IT_number       1

loop_
  _space_group_symop_operation_xyz
  'x, y, z'

loop_
  _atom_site_type_symbol
  _atom_site_label
  _atom_site_symmetry_multiplicity
  _atom_site_fract_x
  _atom_site_fract_y
  _atom_site_fract_z
  _atom_site_occupancy
  Zr  Zr1       1.0  0.25000001020655627  0.2499999340394129  0.2500000319227561  1.0000
  Zr  Zr2       1.0  0.749999978774972  0.7500000518212206  0.7499999541210666  1.0000
  Pt  Pt1       1.0  0.9999999709884928  0.9999999928656291  3.1665048896379255e-08  1.0000
  N   N1        1.0  0.2650169731968648  0.26501694753093114  0.7349830525963692  1.0000
  N   N2        1.0  0.7349830297580555  0.7349830502203204  0.2650169379910172  1.0000
  N   N3        1.0  0.7349830457458872  0.2650169772224202  0.26501697627196624  1.0000
  N   N4        1.0  0.26501699242619503  0.7349830157725836  0.7349830301526407  1.0000
  N   N5        1.0  0.26501693131365517  0.7349830537502489  0.2650170055540655  1.0000
  N   N6        1.0  0.7349830530242971  0.2650169796728572  0.7349829842727974  1.0000
