data_image0
_chemical_formula_structural       Zr2PbN6
_chemical_formula_sum              "Zr2 Pb1 N6"
_cell_length_a       5.4350727700985475
_cell_length_b       5.435072673308575
_cell_length_c       5.435073043089431
_cell_angle_alpha    60.00000017339698
_cell_angle_beta     60.00000035178265
_cell_angle_gamma    59.99999985419099

_space_group_name_H-M_alt    "P 1"
_space_group_IT_number       1

loop_
  _space_group_symop_operation_xyz
  'x, y, z'

loop_
  _atom_site_type_symbol
  _atom_site_label
  _atom_site_symmetry_multiplicity
  _atom_site_fract_x
  _atom_site_fract_y
  _atom_site_fract_z
  _atom_site_occupancy
  Zr  Zr1       1.0  0.25000022497429625  0.25000043968280533  0.24999964817246698  1.0000
  Zr  Zr2       1.0  0.7499997869416132  0.7499994577315116  0.7500003338856568  1.0000
  Pb  Pb1       1.0  0.9999999787325331  3.8307975545640946e-08  1.723836950491468e-08  1.0000
  N   N1        1.0  0.2745558800829041  0.2745563731407867  0.7254438746673569  1.0000
  N   N2        1.0  0.7254441441935952  0.7254435445542241  0.27455615178688086  1.0000
  N   N3        1.0  0.7254436746798799  0.274556373185144  0.2745559027227634  1.0000
  N   N4        1.0  0.2745562347390294  0.7254437743577168  0.7254440570368386  1.0000
  N   N5        1.0  0.2745562949986325  0.7254436617410533  0.27455601960122816  1.0000
  N   N6        1.0  0.7254437855025673  0.2745562784880622  0.7254440649883971  1.0000
