data_image0
_chemical_formula_structural       Zr2RhN6
_chemical_formula_sum              "Zr2 Rh1 N6"
_cell_length_a       5.038061324463732
_cell_length_b       5.038061312937764
_cell_length_c       5.038061344054048
_cell_angle_alpha    60.00000064864033
_cell_angle_beta     60.00000235420781
_cell_angle_gamma    60.00000239787303

_space_group_name_H-M_alt    "P 1"
_space_group_IT_number       1

loop_
  _space_group_symop_operation_xyz
  'x, y, z'

loop_
  _atom_site_type_symbol
  _atom_site_label
  _atom_site_symmetry_multiplicity
  _atom_site_fract_x
  _atom_site_fract_y
  _atom_site_fract_z
  _atom_site_occupancy
  Zr  Zr1       1.0  0.24999998723090386  0.2500000025776483  0.2500000129808199  1.0000
  Zr  Zr2       1.0  0.7499999979707372  0.7499999882850704  0.7499999650259987  1.0000
  Rh  Rh1       1.0  0.9999999827289021  2.430984390465972e-08  0.9999999647223792  1.0000
  N   N1        1.0  0.2684548061159996  0.2684548407914199  0.7315451884640748  1.0000
  N   N2        1.0  0.7315451852902074  0.7315451452093302  0.2684548603275026  1.0000
  N   N3        1.0  0.7315451844325755  0.26845479140566325  0.26845481909582897  1.0000
  N   N4        1.0  0.26845484487231464  0.7315451702852432  0.7315452030524244  1.0000
  N   N5        1.0  0.26845480515597886  0.7315451652902649  0.26845486174001754  1.0000
  N   N6        1.0  0.7315451913425514  0.2684548741921427  0.7315451855530367  1.0000
