data_image0
_chemical_formula_structural       Zr2RuN6
_chemical_formula_sum              "Zr2 Ru1 N6"
_cell_length_a       5.043270559053746
_cell_length_b       5.043270854196441
_cell_length_c       5.043270182569544
_cell_angle_alpha    60.00000197799959
_cell_angle_beta     60.000002727515856
_cell_angle_gamma    60.00000038667993

_space_group_name_H-M_alt    "P 1"
_space_group_IT_number       1

loop_
  _space_group_symop_operation_xyz
  'x, y, z'

loop_
  _atom_site_type_symbol
  _atom_site_label
  _atom_site_symmetry_multiplicity
  _atom_site_fract_x
  _atom_site_fract_y
  _atom_site_fract_z
  _atom_site_occupancy
  Zr  Zr1       1.0  0.2500000054150387  0.2500000427947107  0.2500000072330019  1.0000
  Zr  Zr2       1.0  0.7500000246892881  0.749999965676425  0.7500000115857975  1.0000
  Ru  Ru1       1.0  2.07451664717832e-08  0.9999999927145808  0.9999999516304775  1.0000
  N   N1        1.0  0.26272883322933177  0.26272879564216295  0.7372712104901834  1.0000
  N   N2        1.0  0.7372711909546124  0.7372712031150807  0.2627287864031471  1.0000
  N   N3        1.0  0.7372711438709678  0.26272879150973616  0.26272882606740955  1.0000
  N   N4        1.0  0.26272877186908095  0.7372712509600298  0.7372711694833194  1.0000
  N   N5        1.0  0.2627288391885622  0.7372711551993842  0.26272878495011637  1.0000
  N   N6        1.0  0.7372712265095449  0.262728787702974  0.7372711893709701  1.0000
