data_image0
_chemical_formula_structural       Zr2ReN6
_chemical_formula_sum              "Zr2 Re1 N6"
_cell_length_a       5.139956598873626
_cell_length_b       5.139956286681633
_cell_length_c       5.139956525540943
_cell_angle_alpha    60.00000038372465
_cell_angle_beta     59.999999355444736
_cell_angle_gamma    59.99999893156508

_space_group_name_H-M_alt    "P 1"
_space_group_IT_number       1

loop_
  _space_group_symop_operation_xyz
  'x, y, z'

loop_
  _atom_site_type_symbol
  _atom_site_label
  _atom_site_symmetry_multiplicity
  _atom_site_fract_x
  _atom_site_fract_y
  _atom_site_fract_z
  _atom_site_occupancy
  Zr  Zr1       1.0  0.2500000302063668  0.24999997673790786  0.2500000091820429  1.0000
  Zr  Zr2       1.0  0.7499999796986865  0.7500000136114574  0.7500000315797621  1.0000
  Re  Re1       1.0  4.3069285485163566e-08  1.9062338227833226e-08  0.9999999358599784  1.0000
  N   N1        1.0  0.26250646044433346  0.2625064258703639  0.7374935709794027  1.0000
  N   N2        1.0  0.737493483381158  0.7374935740101697  0.2625064455269724  1.0000
  N   N3        1.0  0.7374935094593784  0.26250644272612245  0.2625064610974104  1.0000
  N   N4        1.0  0.26250645669501954  0.7374935643027882  0.7374935406703229  1.0000
  N   N5        1.0  0.26250650609381343  0.7374934995337514  0.26250642387912093  1.0000
  N   N6        1.0  0.7374935659428649  0.2625064526909344  0.7374935620772918  1.0000
