data_image0
_chemical_formula_structural       Zr2SN6
_chemical_formula_sum              "Zr2 S1 N6"
_cell_length_a       5.04085260835741
_cell_length_b       5.040853135600149
_cell_length_c       5.040852596544448
_cell_angle_alpha    60.00000177476687
_cell_angle_beta     60.00000058183302
_cell_angle_gamma    60.00000119523148

_space_group_name_H-M_alt    "P 1"
_space_group_IT_number       1

loop_
  _space_group_symop_operation_xyz
  'x, y, z'

loop_
  _atom_site_type_symbol
  _atom_site_label
  _atom_site_symmetry_multiplicity
  _atom_site_fract_x
  _atom_site_fract_y
  _atom_site_fract_z
  _atom_site_occupancy
  Zr  Zr1       1.0  0.25000001586997983  0.25000000782307663  0.25000003174587565  1.0000
  Zr  Zr2       1.0  0.7499999877742218  0.7500000380470617  0.7500000047904599  1.0000
  S   S1        1.0  0.9999999764460632  0.9999999538368786  1.7004407070562776e-08  1.0000
  N   N1        1.0  0.24202306837963883  0.2420230070687462  0.7579769309027564  1.0000
  N   N2        1.0  0.7579769255936882  0.757976985349358  0.24202305387579584  1.0000
  N   N3        1.0  0.7579769780376701  0.24202304027476457  0.24202301307504895  1.0000
  N   N4        1.0  0.24202300415664668  0.7579770493288606  0.757976911146124  1.0000
  N   N5        1.0  0.24202301130800208  0.7579769512883473  0.24202304796363858  1.0000
  N   N6        1.0  0.7579770061279878  0.2420230119740998  0.757976959499325  1.0000
