data_image0
_chemical_formula_structural       Zr2SiN6
_chemical_formula_sum              "Zr2 Si1 N6"
_cell_length_a       4.975407605066376
_cell_length_b       4.9754077104547365
_cell_length_c       4.975408062286419
_cell_angle_alpha    59.999997000226756
_cell_angle_beta     59.99999738835812
_cell_angle_gamma    59.999997329554304

_space_group_name_H-M_alt    "P 1"
_space_group_IT_number       1

loop_
  _space_group_symop_operation_xyz
  'x, y, z'

loop_
  _atom_site_type_symbol
  _atom_site_label
  _atom_site_symmetry_multiplicity
  _atom_site_fract_x
  _atom_site_fract_y
  _atom_site_fract_z
  _atom_site_occupancy
  Zr  Zr1       1.0  0.24999993495656836  0.2500000038400379  0.2500000299329946  1.0000
  Zr  Zr2       1.0  0.7499999988569387  0.7500000213664992  0.7500000240601118  1.0000
  Si  Si1       1.0  2.731082178822805e-08  0.9999999876920148  0.9999999261723638  1.0000
  N   N1        1.0  0.2513580837255179  0.25135806976561875  0.7486419203436878  1.0000
  N   N2        1.0  0.7486419115313002  0.7486419382097385  0.25135806129621846  1.0000
  N   N3        1.0  0.7486419902692183  0.25135803144748914  0.2513580383735188  1.0000
  N   N4        1.0  0.25135802219462616  0.7486419666814789  0.7486420300309117  1.0000
  N   N5        1.0  0.25135802686108843  0.7486419810564464  0.25135804118107213  1.0000
  N   N6        1.0  0.7486419972068354  0.2513580170725223  0.7486419148973925  1.0000
