data_image0
_chemical_formula_structural       Zr2TeN6
_chemical_formula_sum              "Zr2 Te1 N6"
_cell_length_a       5.258011836943294
_cell_length_b       5.2580116640010885
_cell_length_c       5.258011632322436
_cell_angle_alpha    60.000000662089676
_cell_angle_beta     60.000001355353554
_cell_angle_gamma    59.99999975455102

_space_group_name_H-M_alt    "P 1"
_space_group_IT_number       1

loop_
  _space_group_symop_operation_xyz
  'x, y, z'

loop_
  _atom_site_type_symbol
  _atom_site_label
  _atom_site_symmetry_multiplicity
  _atom_site_fract_x
  _atom_site_fract_y
  _atom_site_fract_z
  _atom_site_occupancy
  Zr  Zr1       1.0  0.24999996255799342  0.2500000023921041  0.2500000249635152  1.0000
  Zr  Zr2       1.0  0.7499999996968258  0.7499999675783342  0.749999983524183  1.0000
  Te  Te1       1.0  0.9999999799917235  0.9999999743777793  2.6618967708896205e-08  1.0000
  N   N1        1.0  0.26815069243504386  0.2681507324655723  0.7318492672632577  1.0000
  N   N2        1.0  0.731849348212518  0.7318492724442581  0.26815073210486373  1.0000
  N   N3        1.0  0.7318493156467282  0.2681506763769308  0.26815069465629643  1.0000
  N   N4        1.0  0.26815074487589546  0.7318493611429986  0.7318492689599466  1.0000
  N   N5        1.0  0.2681506656500553  0.7318493145729228  0.2681506905289026  1.0000
  N   N6        1.0  0.7318492928101102  0.2681507392520565  0.7318493235734829  1.0000
