data_image0
_chemical_formula_structural       Zr2TaN6
_chemical_formula_sum              "Zr2 Ta1 N6"
_cell_length_a       5.177262886253003
_cell_length_b       5.177261883591343
_cell_length_c       5.177262548776609
_cell_angle_alpha    60.000000029452735
_cell_angle_beta     60.0000010853361
_cell_angle_gamma    60.00000021889816

_space_group_name_H-M_alt    "P 1"
_space_group_IT_number       1

loop_
  _space_group_symop_operation_xyz
  'x, y, z'

loop_
  _atom_site_type_symbol
  _atom_site_label
  _atom_site_symmetry_multiplicity
  _atom_site_fract_x
  _atom_site_fract_y
  _atom_site_fract_z
  _atom_site_occupancy
  Zr  Zr1       1.0  0.2500001283259067  0.24999997324698225  0.2500000529359603  1.0000
  Zr  Zr2       1.0  0.7499999621388521  0.7499999102784164  0.7499999229822775  1.0000
  Ta  Ta1       1.0  0.9999998942738616  0.9999999692469099  2.6718644948344255e-07  1.0000
  N   N1        1.0  0.27073833192190927  0.2707382990036674  0.7292617956409906  1.0000
  N   N2        1.0  0.7292617286671544  0.7292617477497181  0.27073836469905443  1.0000
  N   N3        1.0  0.7292615992660635  0.27073842910246054  0.27073823738837255  1.0000
  N   N4        1.0  0.27073832133017167  0.7292616294790145  0.7292616181132127  1.0000
  N   N5        1.0  0.27073844664016006  0.7292615627971356  0.2707381881342695  1.0000
  N   N6        1.0  0.7292616289311941  0.27073843900939004  0.7292614791975954  1.0000
