data_image0
_chemical_formula_structural       Zr2VN6
_chemical_formula_sum              "Zr2 V1 N6"
_cell_length_a       5.00985056733924
_cell_length_b       5.009850619308396
_cell_length_c       5.0098507819034594
_cell_angle_alpha    59.99999842903591
_cell_angle_beta     59.99999890448653
_cell_angle_gamma    59.999999198821925

_space_group_name_H-M_alt    "P 1"
_space_group_IT_number       1

loop_
  _space_group_symop_operation_xyz
  'x, y, z'

loop_
  _atom_site_type_symbol
  _atom_site_label
  _atom_site_symmetry_multiplicity
  _atom_site_fract_x
  _atom_site_fract_y
  _atom_site_fract_z
  _atom_site_occupancy
  Zr  Zr1       1.0  0.25000000620251384  0.250000006360612  0.2500000191445892  1.0000
  Zr  Zr2       1.0  0.7499999973525221  0.7499999652990201  0.7500000270863926  1.0000
  V   V1        1.0  1.9253773571777493e-08  0.9999999975553262  4.349320349370887e-08  1.0000
  N   N1        1.0  0.2679865322453306  0.2679865633134099  0.7320134594682628  1.0000
  N   N2        1.0  0.732013417854491  0.7320134719077325  0.26798656773709845  1.0000
  N   N3        1.0  0.7320134641285394  0.26798657954657873  0.2679865133612107  1.0000
  N   N4        1.0  0.2679865928337338  0.7320134116704414  0.7320134404975702  1.0000
  N   N5        1.0  0.2679865665481329  0.7320134099606405  0.26798655405398814  1.0000
  N   N6        1.0  0.7320134436418567  0.267986576367033  0.7320133837181917  1.0000
