data_image0
_chemical_formula_structural       Zr2WN6
_chemical_formula_sum              "Zr2 W1 N6"
_cell_length_a       5.078208962704946
_cell_length_b       5.078208637359207
_cell_length_c       5.078209176344196
_cell_angle_alpha    59.999995201218304
_cell_angle_beta     59.99999646491783
_cell_angle_gamma    59.99999742297258

_space_group_name_H-M_alt    "P 1"
_space_group_IT_number       1

loop_
  _space_group_symop_operation_xyz
  'x, y, z'

loop_
  _atom_site_type_symbol
  _atom_site_label
  _atom_site_symmetry_multiplicity
  _atom_site_fract_x
  _atom_site_fract_y
  _atom_site_fract_z
  _atom_site_occupancy
  Zr  Zr1       1.0  0.2500000667701047  0.25000005564349587  0.2499998795019249  1.0000
  Zr  Zr2       1.0  0.749999986778816  0.7500000366951362  0.7499999226334975  1.0000
  W   W1        1.0  2.342799893198464e-08  0.9999999638235149  2.8035422452864095e-08  1.0000
  N   N1        1.0  0.2684719362041447  0.26847196147067487  0.7315280685509892  1.0000
  N   N2        1.0  0.7315280110499507  0.7315280609267494  0.26847201271467064  1.0000
  N   N3        1.0  0.7315280878922584  0.26847183081587594  0.26847193911227557  1.0000
  N   N4        1.0  0.2684718913807809  0.7315281023462183  0.7315281294084169  1.0000
  N   N5        1.0  0.26847196312810995  0.7315280740028487  0.26847189471033384  1.0000
  N   N6        1.0  0.731528004176701  0.26847197010046714  0.7315281459850407  1.0000
