9
Lattice="3.608788185539963 1.2327391135914636 0.9756217079634432 2.377905821509968 2.7808829959807153 0.5663378876553294 -0.7986162836580784 -0.0475204458722697 2.584034561428212" Properties=species:S:1:pos:R:3:forces:R:3 energy=-29706348544.0 free_energy=-29706348544.0 stress="0.0 564021952.0 -1600936832.0 564021952.0 0.0 -850526528.0 -1600936832.0 -850526528.0 0.0" pbc="T T T"
Br       2.38673962       2.30360688       0.04772744 17243496448.00000000 -33347493888.00000000 -67319742464.00000000
Br       6.88716921       3.39819809       2.64681757 -10890932224.00000000 5236610048.00000000 2529733888.00000000
Pd      -1.96584684      -1.53422840      -1.61546256 -2353285632.00000000 -2435993088.00000000 -5329747456.00000000
O        2.73000797       2.50848210      -0.38904586 -55563857920.00000000 -60650668032.00000000 48897437696.00000000
O        2.53404824      -1.20815861       1.18533641 2550844416.00000000 -8639563776.00000000 9591120896.00000000
O        4.08456902       0.53931129      -1.40645434 9248291840.00000000 10763929600.00000000 -9527001088.00000000
O        0.71905627       1.83510686       2.61342233 10455142400.00000000 823573952.00000000 5619095552.00000000
O        2.47092354       2.16078570      -0.16488590 21830569984.00000000 84824932352.00000000 21134639104.00000000
O        2.02936542       1.35811991       1.43518504 7479725056.00000000 3424645376.00000000 -5595554304.00000000
