9
Lattice="3.0948351056546346 -0.5873788990392107 0.5720570786231748 0.08101077119921786 1.5255092728577921 0.9030943160371041 0.201205903336797 0.3171875232358773 3.2117280836513076" Properties=species:S:1:pos:R:3:forces:R:3 energy=-259809853440.0 free_energy=-259809853440.0 stress="0.0 0.0 -4657740288.0 0.0 0.0 -1461036416.0 -4657740288.0 -1461036416.0 0.0" pbc="T T T"
Fe       1.53911507      -0.72700626       0.50044903 -241829085184.00000000 98171060224.00000000 -11501783040.00000000
Fe       1.40878135       0.70968315       1.38616188 175290613760.00000000 -15620345856.00000000 59902406656.00000000
P        0.25215007       0.04241033       0.55109965 9132146688.00000000 -220108324864.00000000 518003621888.00000000
O        0.23517655      -0.06319436       0.56899667 596278116352.00000000 -168290009088.00000000 -736490487808.00000000
O        1.92179676       0.40420639       1.71661792 -124171649024.00000000 -53152489472.00000000 -9763371008.00000000
O        1.50947447       0.75678506       0.17763145 -7855533056.00000000 32166254592.00000000 50263261184.00000000
O       -0.61014892       1.72967493       2.04479552 -192491520.00000000 13303760896.00000000 30934904832.00000000
O        0.46990747       1.27829091       1.35457145 -366721630208.00000000 223361105920.00000000 333508771840.00000000
O        0.86291567       1.00096994       1.89964595 -39930232832.00000000 90168819712.00000000 -234857234432.00000000
