9
Lattice="4.202031447522105 0.916531481023757 3.0044521686430286 3.2443371937331236 2.571832651363232 4.3682064260373705 2.5295721457666094 -0.7724494772599486 5.390291993024139" Properties=species:S:1:pos:R:3:forces:R:3 energy=-36891692.0 free_energy=-36891692.0 stress="5827642.0 -3887855.5 -704412.1875 -3887855.5 4531002.0 4205540.0 -704412.1875 4205540.0 4659549.5" pbc="T T T"
Pt       2.30507107       1.07829010       2.00767035 -30861572.00000000 20773650.00000000 -14441559.00000000
Pt       9.26934213       5.00353063       9.42847462 -9688390.00000000 -3012177.00000000 -15166894.00000000
Se       1.26102227       1.79422101       0.79862450 -50337448.00000000 -3479193.75000000 2518799.50000000
S        3.98445376       2.29320263       3.63008903 65423344.00000000 4431680.50000000 -4558476.00000000
S        8.02286422       4.94927147       8.05796842 12911667.00000000 -20376472.00000000 12871007.00000000
S        4.18660007       2.63751450       4.33466431 41021304.00000000 13566558.00000000 13428077.00000000
S        6.96940003       2.40652538       9.10675021 -1488858.00000000  -35500.00000000 26063580.00000000
S        4.29407672       3.37978239       4.74539326 -16632910.00000000 -7273286.00000000 -7481910.00000000
S        5.92149397       1.27244521       5.01642407 -10347132.00000000 -4595253.00000000 -13232624.00000000
