data_image0
_chemical_formula_structural       Ag2AsO6
_chemical_formula_sum              "Ag2 As1 O6"
_cell_length_a       5.785439475221493
_cell_length_b       5.7854370775858674
_cell_length_c       5.7854435701820695
_cell_angle_alpha    59.999976139515184
_cell_angle_beta     59.99998425531121
_cell_angle_gamma    60.000058142972776

_space_group_name_H-M_alt    "P 1"
_space_group_IT_number       1

loop_
  _space_group_symop_operation_xyz
  'x, y, z'

loop_
  _atom_site_type_symbol
  _atom_site_label
  _atom_site_symmetry_multiplicity
  _atom_site_fract_x
  _atom_site_fract_y
  _atom_site_fract_z
  _atom_site_occupancy
  Ag  Ag1       1.0  0.24999981578443764  0.2500003271935017  0.2500001659540328  1.0000
  Ag  Ag2       1.0  0.7499998922943633  0.7499995928653079  0.7500004823188439  1.0000
  As  As1       1.0  2.9611903633356293e-07  0.9999997523177444  0.9999997649075376  1.0000
  O   O1        1.0  0.22165264903327767  0.22165259880463736  0.7783471933254744  1.0000
  O   O2        1.0  0.778346810699516  0.7783479944421843  0.22165250619570337  1.0000
  O   O3        1.0  0.7783485276107864  0.22165143489737557  0.2216514995508619  1.0000
  O   O4        1.0  0.22165186124747252  0.7783481612694505  0.7783481354244064  1.0000
  O   O5        1.0  0.22165187267759817  0.7783483032818047  0.22165150105295012  1.0000
  O   O6        1.0  0.7783485218397584  0.22165165911644097  0.7783481951491559  1.0000
