data_image0
_chemical_formula_structural       Ag2AsS6
_chemical_formula_sum              "Ag2 As1 S6"
_cell_length_a       6.635867973378433
_cell_length_b       6.635868035889894
_cell_length_c       6.635867603786846
_cell_angle_alpha    60.00000280967724
_cell_angle_beta     60.00000246282683
_cell_angle_gamma    60.00000059124051

_space_group_name_H-M_alt    "P 1"
_space_group_IT_number       1

loop_
  _space_group_symop_operation_xyz
  'x, y, z'

loop_
  _atom_site_type_symbol
  _atom_site_label
  _atom_site_symmetry_multiplicity
  _atom_site_fract_x
  _atom_site_fract_y
  _atom_site_fract_z
  _atom_site_occupancy
  Ag  Ag1       1.0  0.2500000434199083  0.24999997940702315  0.24999997865647136  1.0000
  Ag  Ag2       1.0  0.7500000466992012  0.7500000009729588  0.7500000187079049  1.0000
  As  As1       1.0  5.74048476249331e-08  3.137594279859733e-08  0.9999999224564423  1.0000
  S   S1        1.0  0.25400371060518173  0.25400376457472806  0.745996276344653  1.0000
  S   S2        1.0  0.7459962029566608  0.7459961973488188  0.2540037687968286  1.0000
  S   S3        1.0  0.7459961946323955  0.25400380915065884  0.2540037079937845  1.0000
  S   S4        1.0  0.254003676567082  0.7459963059613206  0.7459962817346641  1.0000
  S   S5        1.0  0.2540037668852539  0.7459962554712299  0.25400367623363856  1.0000
  S   S6        1.0  0.7459963201065598  0.25400364554607047  0.7459963322364866  1.0000
