data_image0
_chemical_formula_structural       Ag2AsO6
_chemical_formula_sum              "Ag2 As1 O6"
_cell_length_a       5.786809712965875
_cell_length_b       5.786807502772598
_cell_length_c       5.786809762410297
_cell_angle_alpha    59.99999292672196
_cell_angle_beta     60.000000579883405
_cell_angle_gamma    60.000001527381194

_space_group_name_H-M_alt    "P 1"
_space_group_IT_number       1

loop_
  _space_group_symop_operation_xyz
  'x, y, z'

loop_
  _atom_site_type_symbol
  _atom_site_label
  _atom_site_symmetry_multiplicity
  _atom_site_fract_x
  _atom_site_fract_y
  _atom_site_fract_z
  _atom_site_occupancy
  Ag  Ag1       1.0  0.24999997957495418  0.2500000204002861  0.24999999346600038  1.0000
  Ag  Ag2       1.0  0.7499999820807784  0.7499999850089109  0.7500000659387284  1.0000
  As  As1       1.0  6.365228253037213e-08  0.9999999407395881  0.999999861286701  1.0000
  O   O1        1.0  0.2215349722997631  0.221535003814705  0.7784649639998903  1.0000
  O   O2        1.0  0.778464884564488  0.778465160327718  0.2215349803025114  1.0000
  O   O3        1.0  0.7784650485002165  0.22153506175303442  0.22153514948725497  1.0000
  O   O4        1.0  0.22153537417975402  0.778464590210191  0.7784647697249347  1.0000
  O   O5        1.0  0.22153485161795522  0.778465041912939  0.22153507835840566  1.0000
  O   O6        1.0  0.7784649237772183  0.22153513916102094  0.7784649172215133  1.0000
