data_image0
_chemical_formula_structural       Ag2BiS6
_chemical_formula_sum              "Ag2 Bi1 S6"
_cell_length_a       6.725458507082832
_cell_length_b       6.725458478838934
_cell_length_c       6.72545832106949
_cell_angle_alpha    59.99999934075737
_cell_angle_beta     60.000001997715934
_cell_angle_gamma    59.99999914251417

_space_group_name_H-M_alt    "P 1"
_space_group_IT_number       1

loop_
  _space_group_symop_operation_xyz
  'x, y, z'

loop_
  _atom_site_type_symbol
  _atom_site_label
  _atom_site_symmetry_multiplicity
  _atom_site_fract_x
  _atom_site_fract_y
  _atom_site_fract_z
  _atom_site_occupancy
  Ag  Ag1       1.0  0.2499999777596324  0.2500000468069496  0.24999999143194715  1.0000
  Ag  Ag2       1.0  0.7499999919693418  0.749999943746602  0.7500000299057574  1.0000
  Bi  Bi1       1.0  0.9999999797779362  4.006327304874362e-08  0.9999999692629696  1.0000
  S   S1        1.0  0.2573417448357401  0.25734179877272395  0.7426583284596281  1.0000
  S   S2        1.0  0.742658226211423  0.742658182675536  0.25734181572262893  1.0000
  S   S3        1.0  0.7426582375461097  0.25734176840194395  0.25734178533843544  1.0000
  S   S4        1.0  0.25734177158550975  0.7426581966567974  0.7426582275584646  1.0000
  S   S5        1.0  0.2573417485498128  0.7426582138229922  0.25734175328382863  1.0000
  S   S6        1.0  0.7426583229618356  0.25734181133065914  0.7426581091623509  1.0000
