data_image0
_chemical_formula_structural       Ag2BiTe6
_chemical_formula_sum              "Ag2 Bi1 Te6"
_cell_length_a       7.555481189153565
_cell_length_b       7.555481210770349
_cell_length_c       7.55548126888189
_cell_angle_alpha    59.99999955733845
_cell_angle_beta     59.99999942926022
_cell_angle_gamma    60.00000028061896

_space_group_name_H-M_alt    "P 1"
_space_group_IT_number       1

loop_
  _space_group_symop_operation_xyz
  'x, y, z'

loop_
  _atom_site_type_symbol
  _atom_site_label
  _atom_site_symmetry_multiplicity
  _atom_site_fract_x
  _atom_site_fract_y
  _atom_site_fract_z
  _atom_site_occupancy
  Ag  Ag1       1.0  0.24999996166126884  0.25000006233139976  0.25000003958312056  1.0000
  Ag  Ag2       1.0  0.7500000022944363  0.7500000459670424  0.7499999347233461  1.0000
  Bi  Bi1       1.0  8.961590411893131e-08  0.9999998686988544  0.9999995602498569  1.0000
  Te  Te1       1.0  0.28429467700378175  0.28429470731345663  0.7157052369609147  1.0000
  Te  Te2       1.0  0.715705346634964  0.715705263199832  0.28429468110155404  1.0000
  Te  Te3       1.0  0.7157050288566091  0.2842949696419544  0.2842948453810746  1.0000
  Te  Te4       1.0  0.2842942257129161  0.7157057400481556  0.715705499249288  1.0000
  Te  Te5       1.0  0.2842949239917106  0.7157050143985612  0.2842948146612787  1.0000
  Te  Te6       1.0  0.7157057469293517  0.2842943255450261  0.7157053888713005  1.0000
