data_image0
_chemical_formula_structural       Ag2BiSe6
_chemical_formula_sum              "Ag2 Bi1 Se6"
_cell_length_a       6.845544565537408
_cell_length_b       6.845544546155294
_cell_length_c       6.845544067018588
_cell_angle_alpha    60.000016043159434
_cell_angle_beta     59.99998777242558
_cell_angle_gamma    59.999997862476874

_space_group_name_H-M_alt    "P 1"
_space_group_IT_number       1

loop_
  _space_group_symop_operation_xyz
  'x, y, z'

loop_
  _atom_site_type_symbol
  _atom_site_label
  _atom_site_symmetry_multiplicity
  _atom_site_fract_x
  _atom_site_fract_y
  _atom_site_fract_z
  _atom_site_occupancy
  Ag  Ag1       1.0  0.25000011973812386  0.2499998264422424  0.24999988882540813  1.0000
  Ag  Ag2       1.0  0.7499999935426076  0.7500002271757404  0.7500000246501233  1.0000
  Bi  Bi1       1.0  0.9999998505011383  2.916251625837956e-07  0.9999993329287544  1.0000
  Se  Se1       1.0  0.2988718283072314  0.298870557151061  0.7011286230531419  1.0000
  Se  Se2       1.0  0.7011276955299994  0.7011277073547308  0.29887186031910457  1.0000
  Se  Se3       1.0  0.7011283467785395  0.29887179290488275  0.2988715768544194  1.0000
  Se  Se4       1.0  0.29887015481389406  0.7011303378726934  0.701129437600156  1.0000
  Se  Se5       1.0  0.2988724274846049  0.7011282420621473  0.2988709438418073  1.0000
  Se  Se6       1.0  0.7011295581819866  0.2988710422374343  0.7011283202258217  1.0000
