data_image0
_chemical_formula_structural       Ag2BiS6
_chemical_formula_sum              "Ag2 Bi1 S6"
_cell_length_a       6.722877922075759
_cell_length_b       6.722878252360471
_cell_length_c       6.722878031960472
_cell_angle_alpha    59.99999845968166
_cell_angle_beta     59.99999880521529
_cell_angle_gamma    59.999998845162374

_space_group_name_H-M_alt    "P 1"
_space_group_IT_number       1

loop_
  _space_group_symop_operation_xyz
  'x, y, z'

loop_
  _atom_site_type_symbol
  _atom_site_label
  _atom_site_symmetry_multiplicity
  _atom_site_fract_x
  _atom_site_fract_y
  _atom_site_fract_z
  _atom_site_occupancy
  Ag  Ag1       1.0  0.24999999939230988  0.250000002090277  0.2500000115110761  1.0000
  Ag  Ag2       1.0  0.7499999413066578  0.7499999862315081  0.7500000402639462  1.0000
  Bi  Bi1       1.0  7.576352892849938e-08  2.0039322451224323e-08  0.9999999892850283  1.0000
  S   S1        1.0  0.25743969122074556  0.25743968225059555  0.7425602902312688  1.0000
  S   S2        1.0  0.7425603156804637  0.7425604372376754  0.25743965988447065  1.0000
  S   S3        1.0  0.7425602159308274  0.2574397434973432  0.25743971453316644  1.0000
  S   S4        1.0  0.25743969416446494  0.7425602284286332  0.7425602938059799  1.0000
  S   S5        1.0  0.2574397459862806  0.7425602525950018  0.2574396728568907  1.0000
  S   S6        1.0  0.742560293673866  0.25743965010421516  0.7425603395247473  1.0000
