data_image0
_chemical_formula_structural       Ag2BiO6
_chemical_formula_sum              "Ag2 Bi1 O6"
_cell_length_a       5.645341742664373
_cell_length_b       5.64534151590069
_cell_length_c       5.645341639027342
_cell_angle_alpha    60.00000107258555
_cell_angle_beta     60.0000004020018
_cell_angle_gamma    59.99999975921536

_space_group_name_H-M_alt    "P 1"
_space_group_IT_number       1

loop_
  _space_group_symop_operation_xyz
  'x, y, z'

loop_
  _atom_site_type_symbol
  _atom_site_label
  _atom_site_symmetry_multiplicity
  _atom_site_fract_x
  _atom_site_fract_y
  _atom_site_fract_z
  _atom_site_occupancy
  Ag  Ag1       1.0  0.24999994596179603  0.25000003861196346  0.2500000674849892  1.0000
  Ag  Ag2       1.0  0.7500000044955125  0.7499999596334135  0.7500000059429673  1.0000
  Bi  Bi1       1.0  1.5916816450263004e-09  0.9999999522714681  8.683781576804696e-08  1.0000
  O   O1        1.0  0.25686697871817243  0.25686693112698883  0.7431330341630086  1.0000
  O   O2        1.0  0.7431330204779  0.7431330497625572  0.2568669952315296  1.0000
  O   O3        1.0  0.7431330547352584  0.25686690330819245  0.2568669116575826  1.0000
  O   O4        1.0  0.2568669652657914  0.7431330949371827  0.7431330455153929  1.0000
  O   O5        1.0  0.2568669267191373  0.7431331215514686  0.25686689691932313  1.0000
  O   O6        1.0  0.7431330825373047  0.25686693960879164  0.7431330501108626  1.0000
