data_image0
_chemical_formula_structural       Ag2BiTe6
_chemical_formula_sum              "Ag2 Bi1 Te6"
_cell_length_a       7.552349316799324
_cell_length_b       7.552349308777005
_cell_length_c       7.552349117345553
_cell_angle_alpha    60.00000092175138
_cell_angle_beta     60.00000083231478
_cell_angle_gamma    60.00000066743925

_space_group_name_H-M_alt    "P 1"
_space_group_IT_number       1

loop_
  _space_group_symop_operation_xyz
  'x, y, z'

loop_
  _atom_site_type_symbol
  _atom_site_label
  _atom_site_symmetry_multiplicity
  _atom_site_fract_x
  _atom_site_fract_y
  _atom_site_fract_z
  _atom_site_occupancy
  Ag  Ag1       1.0  0.25000001016748175  0.24999996318021497  0.25000000960890323  1.0000
  Ag  Ag2       1.0  0.7500000066701558  0.7500000435996759  0.749999912073777  1.0000
  Bi  Bi1       1.0  9.528641367876957e-09  8.1083700368265e-09  0.999999966023759  1.0000
  Te  Te1       1.0  0.2843566290316639  0.28435655800418624  0.7156433923587289  1.0000
  Te  Te2       1.0  0.7156433906174209  0.7156434082338544  0.28435662895872416  1.0000
  Te  Te3       1.0  0.7156434179080389  0.28435655007619864  0.2843566469876701  1.0000
  Te  Te4       1.0  0.2843565988527659  0.7156434340002561  0.7156434079015471  1.0000
  Te  Te5       1.0  0.28435655052701536  0.7156434464992097  0.2843566196318082  1.0000
  Te  Te6       1.0  0.7156433920104955  0.28435658136244324  0.7156434186982649  1.0000
