data_image0
_chemical_formula_structural       Ag2BO6
_chemical_formula_sum              "Ag2 B1 O6"
_cell_length_a       5.065065389632587
_cell_length_b       5.065065440700222
_cell_length_c       5.0650653714701095
_cell_angle_alpha    59.99999973170988
_cell_angle_beta     59.999999770383816
_cell_angle_gamma    60.000000317791375

_space_group_name_H-M_alt    "P 1"
_space_group_IT_number       1

loop_
  _space_group_symop_operation_xyz
  'x, y, z'

loop_
  _atom_site_type_symbol
  _atom_site_label
  _atom_site_symmetry_multiplicity
  _atom_site_fract_x
  _atom_site_fract_y
  _atom_site_fract_z
  _atom_site_occupancy
  Ag  Ag1       1.0  0.24999999770208722  0.24999997008333508  0.250000056390687  1.0000
  Ag  Ag2       1.0  0.7499999832721513  0.7499999876267676  0.7499999616616145  1.0000
  B   B1        1.0  0.9999999870130369  0.999999963729643  5.226897482683716e-08  1.0000
  O   O1        1.0  0.22631771679688417  0.22631755144037266  0.7736823756091392  1.0000
  O   O2        1.0  0.7736823958962644  0.7736823530732067  0.22631765056536537  1.0000
  O   O3        1.0  0.7736824039422853  0.2263176061008885  0.22631760662607403  1.0000
  O   O4        1.0  0.22631755252768496  0.7736825208708787  0.7736823686621513  1.0000
  O   O5        1.0  0.22631760620918276  0.7736824544982231  0.226317530396591  1.0000
  O   O6        1.0  0.7736823766970334  0.22631764103923563  0.7736823664440302  1.0000
