data_image0
_chemical_formula_structural       Ag2BTe6
_chemical_formula_sum              "Ag2 B1 Te6"
_cell_length_a       7.024774909804357
_cell_length_b       7.024775279435729
_cell_length_c       7.024774778378245
_cell_angle_alpha    59.999998607395106
_cell_angle_beta     60.00000160941545
_cell_angle_gamma    59.999997141636584

_space_group_name_H-M_alt    "P 1"
_space_group_IT_number       1

loop_
  _space_group_symop_operation_xyz
  'x, y, z'

loop_
  _atom_site_type_symbol
  _atom_site_label
  _atom_site_symmetry_multiplicity
  _atom_site_fract_x
  _atom_site_fract_y
  _atom_site_fract_z
  _atom_site_occupancy
  Ag  Ag1       1.0  0.2500001734254408  0.24999962485274843  0.25000009718225924  1.0000
  Ag  Ag2       1.0  0.7500000129993654  0.7500001054444592  0.7500001831310172  1.0000
  B   B1        1.0  7.540620149792934e-07  0.9999993897872634  0.9999999195341847  1.0000
  Te  Te1       1.0  0.23057677094554058  0.23057646741356708  0.7694232908270763  1.0000
  Te  Te2       1.0  0.7694228871644194  0.7694235854246914  0.23057649164208138  1.0000
  Te  Te3       1.0  0.7694233563277183  0.2305764562332164  0.23057660135757088  1.0000
  Te  Te4       1.0  0.23057628904229513  0.7694238912505728  0.7694237903607737  1.0000
  Te  Te5       1.0  0.2305764472651065  0.7694239231609814  0.23057609669914078  1.0000
  Te  Te6       1.0  0.7694231993810802  0.23057655856963216  0.769423610867833  1.0000
