data_image0
_chemical_formula_structural       Ag2BS6
_chemical_formula_sum              "Ag2 B1 S6"
_cell_length_a       6.415122426381088
_cell_length_b       6.415122658694129
_cell_length_c       6.415122179691297
_cell_angle_alpha    60.00000339565549
_cell_angle_beta     60.000004219157645
_cell_angle_gamma    60.00000165517737

_space_group_name_H-M_alt    "P 1"
_space_group_IT_number       1

loop_
  _space_group_symop_operation_xyz
  'x, y, z'

loop_
  _atom_site_type_symbol
  _atom_site_label
  _atom_site_symmetry_multiplicity
  _atom_site_fract_x
  _atom_site_fract_y
  _atom_site_fract_z
  _atom_site_occupancy
  Ag  Ag1       1.0  0.24999990501375613  0.25000016349378285  0.24999994502868336  1.0000
  Ag  Ag2       1.0  0.7500001151331928  0.7499999921925052  0.7499999933016883  1.0000
  B   B1        1.0  0.9999999019845218  0.9999999484528804  1.710507602953567e-08  1.0000
  S   S1        1.0  0.21806028091963708  0.21806028448212153  0.781939692553178  1.0000
  S   S2        1.0  0.7819396717957414  0.7819396631065306  0.21806022921893417  1.0000
  S   S3        1.0  0.7819397767770961  0.21806020351916036  0.21806023263205182  1.0000
  S   S4        1.0  0.2180603064998091  0.7819397249779636  0.7819396739342996  1.0000
  S   S5        1.0  0.21806035641319893  0.7819397787966702  0.21806037570695105  1.0000
  S   S6        1.0  0.7819396539540975  0.2180602604313074  0.7819396974479723  1.0000
