data_image0
_chemical_formula_structural       Ag2GaO6
_chemical_formula_sum              "Ag2 Ga1 O6"
_cell_length_a       5.237745768119133
_cell_length_b       5.237810454666051
_cell_length_c       5.23772698681885
_cell_angle_alpha    60.00022320679679
_cell_angle_beta     59.99970387396324
_cell_angle_gamma    59.999779854743196

_space_group_name_H-M_alt    "P 1"
_space_group_IT_number       1

loop_
  _space_group_symop_operation_xyz
  'x, y, z'

loop_
  _atom_site_type_symbol
  _atom_site_label
  _atom_site_symmetry_multiplicity
  _atom_site_fract_x
  _atom_site_fract_y
  _atom_site_fract_z
  _atom_site_occupancy
  Ag  Ag1       1.0  0.2499844841229184  0.25002281569196716  0.24998773270518135  1.0000
  Ag  Ag2       1.0  0.7500077595854528  0.7499875168451835  0.7500067383997544  1.0000
  Ga  Ga1       1.0  2.1593304216682127e-05  0.9999971051289948  0.9999763888106222  1.0000
  O   O1        1.0  0.2636392663052333  0.26364277767851224  0.7363586845697483  1.0000
  O   O2        1.0  0.73634661778164  0.7363551854261111  0.2636545082229209  1.0000
  O   O3        1.0  0.7363689939559821  0.26366065261166527  0.26363374007386464  1.0000
  O   O4        1.0  0.2636278598659253  0.736348269870647  0.7363870266789212  1.0000
  O   O5        1.0  0.2636502706747768  0.7363356682079415  0.26365006171656286  1.0000
  O   O6        1.0  0.7363531023681742  0.263651620622654  0.7363456126218291  1.0000
