data_image0
_chemical_formula_structural       Ag2GaO6
_chemical_formula_sum              "Ag2 Ga1 O6"
_cell_length_a       5.239214488748204
_cell_length_b       5.23921439252335
_cell_length_c       5.239214022737311
_cell_angle_alpha    60.000002907427266
_cell_angle_beta     60.00000290169984
_cell_angle_gamma    59.999997959539556

_space_group_name_H-M_alt    "P 1"
_space_group_IT_number       1

loop_
  _space_group_symop_operation_xyz
  'x, y, z'

loop_
  _atom_site_type_symbol
  _atom_site_label
  _atom_site_symmetry_multiplicity
  _atom_site_fract_x
  _atom_site_fract_y
  _atom_site_fract_z
  _atom_site_occupancy
  Ag  Ag1       1.0  0.2500000174249145  0.24999993129031423  0.2500000454731539  1.0000
  Ag  Ag2       1.0  0.7499999476381997  0.7500000416618271  0.7500000228512611  1.0000
  Ga  Ga1       1.0  0.9999999858404065  4.909064688591739e-08  1.1164722128318356e-08  1.0000
  O   O1        1.0  0.26364943845488026  0.26364932403974073  0.7363506307423716  1.0000
  O   O2        1.0  0.7363505655231894  0.7363506115100015  0.26364936811316836  1.0000
  O   O3        1.0  0.7363507103830507  0.2636493238202049  0.2636492836198085  1.0000
  O   O4        1.0  0.26364933851825567  0.7363507215990768  0.7363506492914436  1.0000
  O   O5        1.0  0.26364926482431794  0.7363507184578888  0.26364930554518523  1.0000
  O   O6        1.0  0.7363507138406788  0.2636492731954501  0.7363506836411429  1.0000
