data_image0
_chemical_formula_structural       Ag2GaTe6
_chemical_formula_sum              "Ag2 Ga1 Te6"
_cell_length_a       7.2126319484294115
_cell_length_b       7.21263183618968
_cell_length_c       7.2126320845042144
_cell_angle_alpha    60.00000006135815
_cell_angle_beta     60.00000020903297
_cell_angle_gamma    59.99999997038904

_space_group_name_H-M_alt    "P 1"
_space_group_IT_number       1

loop_
  _space_group_symop_operation_xyz
  'x, y, z'

loop_
  _atom_site_type_symbol
  _atom_site_label
  _atom_site_symmetry_multiplicity
  _atom_site_fract_x
  _atom_site_fract_y
  _atom_site_fract_z
  _atom_site_occupancy
  Ag  Ag1       1.0  0.249999961301385  0.2500000180658604  0.2500000180052411  1.0000
  Ag  Ag2       1.0  0.7500000524248421  0.7499999760870312  0.7499999769221576  1.0000
  Ga  Ga1       1.0  0.9999999945507037  0.999999977925278  0.999999886208019  1.0000
  Te  Te1       1.0  0.2726704911598044  0.2726705696333787  0.7273295050575329  1.0000
  Te  Te2       1.0  0.7273295173251566  0.7273295314970062  0.2726704986193787  1.0000
  Te  Te3       1.0  0.7273294822295314  0.2726705256409143  0.2726705490023548  1.0000
  Te  Te4       1.0  0.2726704405981318  0.7273295058691972  0.7273295184487772  1.0000
  Te  Te5       1.0  0.27267050234003665  0.72732944847474  0.27267056631345743  1.0000
  Te  Te6       1.0  0.727329563426566  0.2726704471909364  0.7273294823394013  1.0000
