data_image0
_chemical_formula_structural       Ag2GaS6
_chemical_formula_sum              "Ag2 Ga1 S6"
_cell_length_a       6.393525361315727
_cell_length_b       6.3935254357833955
_cell_length_c       6.3935251376487665
_cell_angle_alpha    60.000000251811365
_cell_angle_beta     60.00000237364399
_cell_angle_gamma    59.999999872297316

_space_group_name_H-M_alt    "P 1"
_space_group_IT_number       1

loop_
  _space_group_symop_operation_xyz
  'x, y, z'

loop_
  _atom_site_type_symbol
  _atom_site_label
  _atom_site_symmetry_multiplicity
  _atom_site_fract_x
  _atom_site_fract_y
  _atom_site_fract_z
  _atom_site_occupancy
  Ag  Ag1       1.0  0.24999994116221042  0.25000004313671104  0.24999997348418754  1.0000
  Ag  Ag2       1.0  0.7499999704149474  0.7500001274945274  0.7499999824572934  1.0000
  Ga  Ga1       1.0  3.558696017870996e-07  0.9999996800945056  0.9999996175867587  1.0000
  S   S1        1.0  0.2628086362381359  0.2628084710317078  0.7371912714079972  1.0000
  S   S2        1.0  0.7371913935209602  0.7371914371620908  0.2628084547933392  1.0000
  S   S3        1.0  0.7371910559922982  0.26280893080964635  0.2628089190438171  1.0000
  S   S4        1.0  0.2628085563976353  0.7371914601157875  0.7371917348228543  1.0000
  S   S5        1.0  0.2628086366804838  0.737191277677235  0.2628086709990309  1.0000
  S   S6        1.0  0.7371914671641259  0.2628085653860959  0.7371913713616711  1.0000
