data_image0
_chemical_formula_structural       Ag2GaTe6
_chemical_formula_sum              "Ag2 Ga1 Te6"
_cell_length_a       7.2137105341357755
_cell_length_b       7.213710679778819
_cell_length_c       7.213710763744779
_cell_angle_alpha    59.99999919533812
_cell_angle_beta     59.99999482986951
_cell_angle_gamma    59.99999293736785

_space_group_name_H-M_alt    "P 1"
_space_group_IT_number       1

loop_
  _space_group_symop_operation_xyz
  'x, y, z'

loop_
  _atom_site_type_symbol
  _atom_site_label
  _atom_site_symmetry_multiplicity
  _atom_site_fract_x
  _atom_site_fract_y
  _atom_site_fract_z
  _atom_site_occupancy
  Ag  Ag1       1.0  0.24999994403485276  0.24999986200775295  0.25000010894108876  1.0000
  Ag  Ag2       1.0  0.7500000116826268  0.7500000461274597  0.7499999958921322  1.0000
  Ga  Ga1       1.0  0.9999999099222686  1.0696150204301242e-07  0.999999959674388  1.0000
  Te  Te1       1.0  0.27261360363493015  0.2726133903030865  0.7273864834609863  1.0000
  Te  Te2       1.0  0.7273863540687828  0.7273866655408588  0.2726135395935054  1.0000
  Te  Te3       1.0  0.7273866735483678  0.27261320512688547  0.27261336233575556  1.0000
  Te  Te4       1.0  0.27261335998763664  0.7273867912939995  0.7273865041854656  1.0000
  Te  Te5       1.0  0.27261344560537953  0.7273867014919129  0.27261338223059095  1.0000
  Te  Te6       1.0  0.7273867062384035  0.27261321852789716  0.727386660184646  1.0000
