data_image0
_chemical_formula_structural       Ag2IrSe6
_chemical_formula_sum              "Ag2 Ir1 Se6"
_cell_length_a       6.487384176554703
_cell_length_b       6.487384042538971
_cell_length_c       6.487384205940839
_cell_angle_alpha    59.999998813097775
_cell_angle_beta     59.999998602198744
_cell_angle_gamma    59.99999916198915

_space_group_name_H-M_alt    "P 1"
_space_group_IT_number       1

loop_
  _space_group_symop_operation_xyz
  'x, y, z'

loop_
  _atom_site_type_symbol
  _atom_site_label
  _atom_site_symmetry_multiplicity
  _atom_site_fract_x
  _atom_site_fract_y
  _atom_site_fract_z
  _atom_site_occupancy
  Ag  Ag1       1.0  0.2500000079779261  0.25000000030290487  0.2499999846683039  1.0000
  Ag  Ag2       1.0  0.7500000115823289  0.7499999952450532  0.7499999815099074  1.0000
  Ir  Ir1       1.0  5.3166224579080844e-08  0.999999856520578  4.823950528463344e-08  1.0000
  Se  Se1       1.0  0.2772480839811681  0.2772480721171246  0.7227519161376844  1.0000
  Se  Se2       1.0  0.7227520043295049  0.7227519895068836  0.2772480088319986  1.0000
  Se  Se3       1.0  0.7227518862723261  0.2772480887299903  0.2772481237410791  1.0000
  Se  Se4       1.0  0.2772479768155951  0.7227519917728884  0.7227519845561199  1.0000
  Se  Se5       1.0  0.2772480074416134  0.7227519914583306  0.27724801460866727  1.0000
  Se  Se6       1.0  0.7227519769336571  0.2772480135290631  0.7227519336132522  1.0000
