data_image0
_chemical_formula_structural       Ag2IrO6
_chemical_formula_sum              "Ag2 Ir1 O6"
_cell_length_a       5.6738679182910285
_cell_length_b       5.673867870493421
_cell_length_c       5.6738679094772095
_cell_angle_alpha    60.00000044687916
_cell_angle_beta     59.99999984486429
_cell_angle_gamma    59.999999681265734

_space_group_name_H-M_alt    "P 1"
_space_group_IT_number       1

loop_
  _space_group_symop_operation_xyz
  'x, y, z'

loop_
  _atom_site_type_symbol
  _atom_site_label
  _atom_site_symmetry_multiplicity
  _atom_site_fract_x
  _atom_site_fract_y
  _atom_site_fract_z
  _atom_site_occupancy
  Ag  Ag1       1.0  0.2500000905494298  0.24999991627187013  0.249999950813614  1.0000
  Ag  Ag2       1.0  0.7499999445863119  0.7499999668313199  0.7500000091870128  1.0000
  Ir  Ir1       1.0  2.486561951677536e-09  4.74885696194813e-08  0.9999999432880442  1.0000
  O   O1        1.0  0.23177982442666728  0.2317797629329563  0.7682202336684733  1.0000
  O   O2        1.0  0.7682201469395386  0.7682202626359448  0.23177983326875562  1.0000
  O   O3        1.0  0.7682201832711064  0.23177984040696697  0.23177988613179432  1.0000
  O   O4        1.0  0.23177986031192588  0.7682201333562217  0.7682202128990642  1.0000
  O   O5        1.0  0.23177982782237283  0.7682201914364274  0.2317797562019615  1.0000
  O   O6        1.0  0.7682201357737035  0.23177981470533046  0.7682201727618166  1.0000
