data_image0
_chemical_formula_structural       Ag2MoS6
_chemical_formula_sum              "Ag2 Mo1 S6"
_cell_length_a       6.448418869267532
_cell_length_b       6.448419073569637
_cell_length_c       6.44841909397562
_cell_angle_alpha    59.999999472839114
_cell_angle_beta     60.000000189786974
_cell_angle_gamma    59.99999979295647

_space_group_name_H-M_alt    "P 1"
_space_group_IT_number       1

loop_
  _space_group_symop_operation_xyz
  'x, y, z'

loop_
  _atom_site_type_symbol
  _atom_site_label
  _atom_site_symmetry_multiplicity
  _atom_site_fract_x
  _atom_site_fract_y
  _atom_site_fract_z
  _atom_site_occupancy
  Ag  Ag1       1.0  0.2500000171051599  0.24999999820513502  0.24999998214412508  1.0000
  Ag  Ag2       1.0  0.7500000247812619  0.749999977521752  0.7499999713478458  1.0000
  Mo  Mo1       1.0  0.9999999632275858  1.8992948986969864e-08  0.9999999220467414  1.0000
  S   S1        1.0  0.2513999430972931  0.25139995586020863  0.7486001136834579  1.0000
  S   S2        1.0  0.7486000542209309  0.7486000407589198  0.25140001602786605  1.0000
  S   S3        1.0  0.7486000177422631  0.25139992700934927  0.25140000383364686  1.0000
  S   S4        1.0  0.2513999374315295  0.7486000886027282  0.748600041305821  1.0000
  S   S5        1.0  0.25139995509921514  0.7486000745133548  0.2513998865372591  1.0000
  S   S6        1.0  0.7486000942571269  0.2513999164078905  0.7486000649271789  1.0000
