data_image0
_chemical_formula_structural       Ag2NO6
_chemical_formula_sum              "Ag2 N1 O6"
_cell_length_a       5.099425113011372
_cell_length_b       5.099425155435016
_cell_length_c       5.099424515123068
_cell_angle_alpha    59.999998177678954
_cell_angle_beta     60.00000087741199
_cell_angle_gamma    59.99999624586265

_space_group_name_H-M_alt    "P 1"
_space_group_IT_number       1

loop_
  _space_group_symop_operation_xyz
  'x, y, z'

loop_
  _atom_site_type_symbol
  _atom_site_label
  _atom_site_symmetry_multiplicity
  _atom_site_fract_x
  _atom_site_fract_y
  _atom_site_fract_z
  _atom_site_occupancy
  Ag  Ag1       1.0  0.24999990037450998  0.25000013894506257  0.25000005406363324  1.0000
  Ag  Ag2       1.0  0.7499998092957298  0.7499999292837504  0.7499999145762903  1.0000
  N   N1        1.0  0.9999996680749582  0.9999999903930615  6.139532623673904e-07  1.0000
  O   O1        1.0  0.22123151117936105  0.2212312277229764  0.7787686066909391  1.0000
  O   O2        1.0  0.778768669296168  0.7787689293698827  0.22123100955709527  1.0000
  O   O3        1.0  0.7787687726558647  0.22123139180549448  0.22123128183224244  1.0000
  O   O4        1.0  0.22123148661759473  0.7787686307904002  0.7787684995357047  1.0000
  O   O5        1.0  0.22123144848478926  0.7787687006660383  0.22123127695236575  1.0000
  O   O6        1.0  0.778768835492772  0.2212312138519363  0.778768718670987  1.0000
