data_image0
_chemical_formula_structural       Ag2NO6
_chemical_formula_sum              "Ag2 N1 O6"
_cell_length_a       5.105073120126697
_cell_length_b       5.105072176212971
_cell_length_c       5.10507273846243
_cell_angle_alpha    60.000000535065496
_cell_angle_beta     59.99999789775476
_cell_angle_gamma    59.99999609737214

_space_group_name_H-M_alt    "P 1"
_space_group_IT_number       1

loop_
  _space_group_symop_operation_xyz
  'x, y, z'

loop_
  _atom_site_type_symbol
  _atom_site_label
  _atom_site_symmetry_multiplicity
  _atom_site_fract_x
  _atom_site_fract_y
  _atom_site_fract_z
  _atom_site_occupancy
  Ag  Ag1       1.0  0.24999941616606156  0.25000038131868463  0.25000109378794616  1.0000
  Ag  Ag2       1.0  0.7499998890790133  0.7500001171519742  0.7500007766614404  1.0000
  N   N1        1.0  3.6252266374749576e-06  0.9999947292324638  0.9999909854960239  1.0000
  O   O1        1.0  0.22088497684455935  0.22088741826505395  0.7791155748302189  1.0000
  O   O2        1.0  0.7791132758309268  0.7791144668708341  0.22088780729383542  1.0000
  O   O3        1.0  0.7791138853691344  0.22088641177853421  0.22088703886012284  1.0000
  O   O4        1.0  0.22088670606013816  0.7791138923670481  0.7791139173984941  1.0000
  O   O5        1.0  0.22088557193593886  0.7791147391340938  0.22088769761530738  1.0000
  O   O6        1.0  0.7791125881710514  0.22088800726952149  0.7791145185836184  1.0000
