data_image0
_chemical_formula_structural       Ag2PSe6
_chemical_formula_sum              "Ag2 P1 Se6"
_cell_length_a       6.6149025217060915
_cell_length_b       6.614902600621483
_cell_length_c       6.61490243953691
_cell_angle_alpha    60.00000068607689
_cell_angle_beta     60.000000134214936
_cell_angle_gamma    60.00000007173054

_space_group_name_H-M_alt    "P 1"
_space_group_IT_number       1

loop_
  _space_group_symop_operation_xyz
  'x, y, z'

loop_
  _atom_site_type_symbol
  _atom_site_label
  _atom_site_symmetry_multiplicity
  _atom_site_fract_x
  _atom_site_fract_y
  _atom_site_fract_z
  _atom_site_occupancy
  Ag  Ag1       1.0  0.24999999184362484  0.24999999124692995  0.2500000032060011  1.0000
  Ag  Ag2       1.0  0.7500000049943782  0.7499999848497503  0.7500000120078426  1.0000
  P   P1        1.0  0.999999938586167  1.6663441102122355e-08  2.5398672232823496e-08  1.0000
  Se  Se1       1.0  0.2451057025527901  0.24510567935911393  0.7548942841923885  1.0000
  Se  Se2       1.0  0.7548943105432672  0.7548942374897767  0.24510570262896572  1.0000
  Se  Se3       1.0  0.7548943281844152  0.2451057395510937  0.24510568358541962  1.0000
  Se  Se4       1.0  0.24510572488199234  0.7548943087538295  0.7548942976448619  1.0000
  Se  Se5       1.0  0.2451057226719624  0.7548942829903524  0.24510572429818256  1.0000
  Se  Se6       1.0  0.7548942728953765  0.24510575976009055  0.7548942582241114  1.0000
