data_image0
_chemical_formula_structural       Ag2PO6
_chemical_formula_sum              "Ag2 P1 O6"
_cell_length_a       5.227061182390475
_cell_length_b       5.22706135890341
_cell_length_c       5.227060815708124
_cell_angle_alpha    60.00000010014424
_cell_angle_beta     60.000001542762305
_cell_angle_gamma    59.999999703692055

_space_group_name_H-M_alt    "P 1"
_space_group_IT_number       1

loop_
  _space_group_symop_operation_xyz
  'x, y, z'

loop_
  _atom_site_type_symbol
  _atom_site_label
  _atom_site_symmetry_multiplicity
  _atom_site_fract_x
  _atom_site_fract_y
  _atom_site_fract_z
  _atom_site_occupancy
  Ag  Ag1       1.0  0.24999999474321988  0.24999998607317944  0.25000000987948295  1.0000
  Ag  Ag2       1.0  0.7500000094215987  0.7499999886796416  0.7500000209436372  1.0000
  P   P1        1.0  0.9999996311713747  7.263563765242277e-08  1.538358572947042e-07  1.0000
  O   O1        1.0  0.2306080199291253  0.23060792549101075  0.7693920324175203  1.0000
  O   O2        1.0  0.7693921620762935  0.7693921453282915  0.23060782510275588  1.0000
  O   O3        1.0  0.7693921051424009  0.23060783875685822  0.23060788026420942  1.0000
  O   O4        1.0  0.23060801962987124  0.7693921055358598  0.7693920270472729  1.0000
  O   O5        1.0  0.23060798119129744  0.7693921407386223  0.2306078056967534  1.0000
  O   O6        1.0  0.7693921349666718  0.23060786916047046  0.7693921764272275  1.0000
