data_image0
_chemical_formula_structural       Ag2RhO6
_chemical_formula_sum              "Ag2 Rh1 O6"
_cell_length_a       5.651097519462222
_cell_length_b       5.651097285143916
_cell_length_c       5.651097378248702
_cell_angle_alpha    59.999999533534705
_cell_angle_beta     60.00000011149458
_cell_angle_gamma    59.99999928460741

_space_group_name_H-M_alt    "P 1"
_space_group_IT_number       1

loop_
  _space_group_symop_operation_xyz
  'x, y, z'

loop_
  _atom_site_type_symbol
  _atom_site_label
  _atom_site_symmetry_multiplicity
  _atom_site_fract_x
  _atom_site_fract_y
  _atom_site_fract_z
  _atom_site_occupancy
  Ag  Ag1       1.0  0.2500000308369276  0.24999994780995674  0.25000003263314746  1.0000
  Ag  Ag2       1.0  0.7500000251413439  0.7499999474587891  0.7499999857826093  1.0000
  Rh  Rh1       1.0  0.9999999666269772  0.9999999284801177  1.7055096544240252e-08  1.0000
  O   O1        1.0  0.2396860376059101  0.23968599369993762  0.7603139569603397  1.0000
  O   O2        1.0  0.7603139692688614  0.7603140120995348  0.2396859723460664  1.0000
  O   O3        1.0  0.7603137494366234  0.23968619758030227  0.23968619676917305  1.0000
  O   O4        1.0  0.23968606350676297  0.7603139057462822  0.7603139187656596  1.0000
  O   O5        1.0  0.23968619690156423  0.7603138171850925  0.23968612742660264  1.0000
  O   O6        1.0  0.7603140237782059  0.2396862276252254  0.7603137444850249  1.0000
