data_image0
_chemical_formula_structural       Ag2RuS6
_chemical_formula_sum              "Ag2 Ru1 S6"
_cell_length_a       6.179573520378677
_cell_length_b       6.179573418210023
_cell_length_c       6.179573754010472
_cell_angle_alpha    59.99999817782979
_cell_angle_beta     59.999998887673996
_cell_angle_gamma    59.99999963962759

_space_group_name_H-M_alt    "P 1"
_space_group_IT_number       1

loop_
  _space_group_symop_operation_xyz
  'x, y, z'

loop_
  _atom_site_type_symbol
  _atom_site_label
  _atom_site_symmetry_multiplicity
  _atom_site_fract_x
  _atom_site_fract_y
  _atom_site_fract_z
  _atom_site_occupancy
  Ag  Ag1       1.0  0.250000091426812  0.2499999945710198  0.2500000013928987  1.0000
  Ag  Ag2       1.0  0.7500001065425018  0.7499999936226808  0.7500000167452341  1.0000
  Ru  Ru1       1.0  1.2178034387876208e-06  0.999999928650726  0.9999998200039243  1.0000
  S   S1        1.0  0.26459699475022136  0.2645971568163915  0.7354029173221692  1.0000
  S   S2        1.0  0.7354024247644851  0.735402498413958  0.2645974963197176  1.0000
  S   S3        1.0  0.7354025405784189  0.2645973843688397  0.2645973370375618  1.0000
  S   S4        1.0  0.26459714126541145  0.7354027227403344  0.7354027534832773  1.0000
  S   S5        1.0  0.2645970466756229  0.7354028083404989  0.2645972031270209  1.0000
  S   S6        1.0  0.7354024111429471  0.2645975167803854  0.7354024599501922  1.0000
