data_image0
_chemical_formula_structural       Ag2SbS6
_chemical_formula_sum              "Ag2 Sb1 S6"
_cell_length_a       6.7051756514572425
_cell_length_b       6.705175622833887
_cell_length_c       6.705175438710437
_cell_angle_alpha    59.999999161976596
_cell_angle_beta     59.99999925239536
_cell_angle_gamma    59.99999934337798

_space_group_name_H-M_alt    "P 1"
_space_group_IT_number       1

loop_
  _space_group_symop_operation_xyz
  'x, y, z'

loop_
  _atom_site_type_symbol
  _atom_site_label
  _atom_site_symmetry_multiplicity
  _atom_site_fract_x
  _atom_site_fract_y
  _atom_site_fract_z
  _atom_site_occupancy
  Ag  Ag1       1.0  0.25000008125656575  0.2499999513696927  0.24999998901898046  1.0000
  Ag  Ag2       1.0  0.7499999759362809  0.750000022153192  0.7499999796669619  1.0000
  Sb  Sb1       1.0  1.5842014414366154e-08  2.83117799410744e-07  0.9999998639425567  1.0000
  S   S1        1.0  0.2583433733181376  0.25834338805858814  0.741656599162919  1.0000
  S   S2        1.0  0.7416563847868869  0.7416564959625408  0.2583435727661294  1.0000
  S   S3        1.0  0.7416565443885355  0.25834341106157505  0.25834346549614534  1.0000
  S   S4        1.0  0.2583435430202371  0.7416565131440166  0.7416564322056753  1.0000
  S   S5        1.0  0.2583435276035032  0.7416565029910828  0.2583435041700882  1.0000
  S   S6        1.0  0.7416565524990008  0.25834344313330376  0.741656587562483  1.0000
