data_image0
_chemical_formula_structural       Ag2SbTe6
_chemical_formula_sum              "Ag2 Sb1 Te6"
_cell_length_a       7.41525668645806
_cell_length_b       7.415256780766424
_cell_length_c       7.415256677564389
_cell_angle_alpha    60.0000002498424
_cell_angle_beta     60.00000136318744
_cell_angle_gamma    59.99999994613674

_space_group_name_H-M_alt    "P 1"
_space_group_IT_number       1

loop_
  _space_group_symop_operation_xyz
  'x, y, z'

loop_
  _atom_site_type_symbol
  _atom_site_label
  _atom_site_symmetry_multiplicity
  _atom_site_fract_x
  _atom_site_fract_y
  _atom_site_fract_z
  _atom_site_occupancy
  Ag  Ag1       1.0  0.2499999893286691  0.250000042024791  0.24999997445317132  1.0000
  Ag  Ag2       1.0  0.7500000034264502  0.7499999823803547  0.7500000314291417  1.0000
  Sb  Sb1       1.0  2.5843521119445866e-08  0.9999999785284799  1.1299709649804305e-08  1.0000
  Te  Te1       1.0  0.2775334575867876  0.2775335081437376  0.722466511706172  1.0000
  Te  Te2       1.0  0.7224665298679395  0.7224664947898886  0.27753346305925425  1.0000
  Te  Te3       1.0  0.7224665111283808  0.2775334951170051  0.27753346348751945  1.0000
  Te  Te4       1.0  0.27753350289313206  0.7224665028616546  0.7224665233977043  1.0000
  Te  Te5       1.0  0.27753344106208433  0.722466549091869  0.27753347716341026  1.0000
  Te  Te6       1.0  0.7224665408088723  0.2775334472351354  0.7224665414571995  1.0000
