data_image0
_chemical_formula_structural       Ag2SbS6
_chemical_formula_sum              "Ag2 Sb1 S6"
_cell_length_a       6.706265606560077
_cell_length_b       6.70626564061891
_cell_length_c       6.706265532214762
_cell_angle_alpha    59.99999922580931
_cell_angle_beta     59.999999194846836
_cell_angle_gamma    59.9999989694971

_space_group_name_H-M_alt    "P 1"
_space_group_IT_number       1

loop_
  _space_group_symop_operation_xyz
  'x, y, z'

loop_
  _atom_site_type_symbol
  _atom_site_label
  _atom_site_symmetry_multiplicity
  _atom_site_fract_x
  _atom_site_fract_y
  _atom_site_fract_z
  _atom_site_occupancy
  Ag  Ag1       1.0  0.24999997146591174  0.2500000061233981  0.25000003543037275  1.0000
  Ag  Ag2       1.0  0.7500000077939873  0.7499999964549592  0.7500000362543232  1.0000
  Sb  Sb1       1.0  1.669600378967803e-08  2.7394043070777247e-08  4.795547723182217e-09  1.0000
  S   S1        1.0  0.2583036092351487  0.25830356095687523  0.7416963500852086  1.0000
  S   S2        1.0  0.7416963819044644  0.741696390485936  0.2583035518522595  1.0000
  S   S3        1.0  0.7416964563055974  0.25830356204844646  0.25830364348686546  1.0000
  S   S4        1.0  0.25830361475109703  0.7416963820892848  0.7416963384537449  1.0000
  S   S5        1.0  0.2583035971979363  0.7416964053840639  0.25830365236339725  1.0000
  S   S6        1.0  0.741696349920233  0.258303657461189  0.7416964142055725  1.0000
