data_image0
_chemical_formula_structural       Ag2SbTe6
_chemical_formula_sum              "Ag2 Sb1 Te6"
_cell_length_a       7.41794504937442
_cell_length_b       7.417945126157242
_cell_length_c       7.417944767563416
_cell_angle_alpha    60.00000401151115
_cell_angle_beta     60.00000214006466
_cell_angle_gamma    60.00000207069415

_space_group_name_H-M_alt    "P 1"
_space_group_IT_number       1

loop_
  _space_group_symop_operation_xyz
  'x, y, z'

loop_
  _atom_site_type_symbol
  _atom_site_label
  _atom_site_symmetry_multiplicity
  _atom_site_fract_x
  _atom_site_fract_y
  _atom_site_fract_z
  _atom_site_occupancy
  Ag  Ag1       1.0  0.24999999458174404  0.2499999459150012  0.25000003142446375  1.0000
  Ag  Ag2       1.0  0.7499999969805301  0.7500000688929437  0.7499999073738266  1.0000
  Sb  Sb1       1.0  3.210650277304726e-08  5.778698369690706e-08  0.9999998903453079  1.0000
  Te  Te1       1.0  0.2774452659987668  0.2774453664176009  0.7225547503463949  1.0000
  Te  Te2       1.0  0.7225544794620976  0.7225544387061461  0.27744562934169636  1.0000
  Te  Te3       1.0  0.7225548108213005  0.2774452563727148  0.2774453052415611  1.0000
  Te  Te4       1.0  0.27744534160814505  0.7225547848521366  0.7225545318261983  1.0000
  Te  Te5       1.0  0.2774453187545887  0.7225548088374848  0.2774453260208914  1.0000
  Te  Te6       1.0  0.7225547566445214  0.27744527201273067  0.722554626811279  1.0000
