data_image0
_chemical_formula_structural       Ag2SbSe6
_chemical_formula_sum              "Ag2 Sb1 Se6"
_cell_length_a       6.696454421576554
_cell_length_b       6.696455071513059
_cell_length_c       6.696454639232879
_cell_angle_alpha    60.00000061665581
_cell_angle_beta     60.0000009568328
_cell_angle_gamma    60.00000053535026

_space_group_name_H-M_alt    "P 1"
_space_group_IT_number       1

loop_
  _space_group_symop_operation_xyz
  'x, y, z'

loop_
  _atom_site_type_symbol
  _atom_site_label
  _atom_site_symmetry_multiplicity
  _atom_site_fract_x
  _atom_site_fract_y
  _atom_site_fract_z
  _atom_site_occupancy
  Ag  Ag1       1.0  0.25000002557641715  0.25000000439062364  0.250000005456776  1.0000
  Ag  Ag2       1.0  0.7499999946928283  0.749999974764027  0.7500000198460147  1.0000
  Sb  Sb1       1.0  0.9999998862290462  0.9999999378158694  8.349755863182352e-08  1.0000
  Se  Se1       1.0  0.2951246341352395  0.295124581978949  0.7048754275487962  1.0000
  Se  Se2       1.0  0.7048754283192147  0.7048754154651511  0.29512459140990627  1.0000
  Se  Se3       1.0  0.7048753548688974  0.2951245890812322  0.29512461060763207  1.0000
  Se  Se4       1.0  0.2951246440805983  0.7048754229944321  0.7048753402014601  1.0000
  Se  Se5       1.0  0.2951246354250744  0.7048754496559128  0.29512454696643436  1.0000
  Se  Se6       1.0  0.704875405587085  0.29512461728810274  0.7048753732970805  1.0000
