data_image0
_chemical_formula_structural       Ag2SbO6
_chemical_formula_sum              "Ag2 Sb1 O6"
_cell_length_a       5.399389491326872
_cell_length_b       5.399389689061403
_cell_length_c       5.399389812003074
_cell_angle_alpha    59.99999741484851
_cell_angle_beta     59.999997561318345
_cell_angle_gamma    60.00000115438214

_space_group_name_H-M_alt    "P 1"
_space_group_IT_number       1

loop_
  _space_group_symop_operation_xyz
  'x, y, z'

loop_
  _atom_site_type_symbol
  _atom_site_label
  _atom_site_symmetry_multiplicity
  _atom_site_fract_x
  _atom_site_fract_y
  _atom_site_fract_z
  _atom_site_occupancy
  Ag  Ag1       1.0  0.2500000474205592  0.24999998314835034  0.24999994220594676  1.0000
  Ag  Ag2       1.0  0.7499999592077  0.7499999789329752  0.7500000608260632  1.0000
  Sb  Sb1       1.0  0.9999999528215987  6.804905347840454e-09  6.27841540460682e-08  1.0000
  O   O1        1.0  0.2655403137336065  0.2655402411851127  0.7344597823641175  1.0000
  O   O2        1.0  0.7344597173677755  0.7344598207015196  0.26554025853997754  1.0000
  O   O3        1.0  0.7344597085107558  0.2655403823390991  0.26554026743671544  1.0000
  O   O4        1.0  0.265540322635138  0.7344596024252524  0.7344596749537413  1.0000
  O   O5        1.0  0.2655402984920795  0.7344596430797318  0.2655403224470325  1.0000
  O   O6        1.0  0.7344596788002322  0.2655403620993408  0.7344596181422434  1.0000
