data_image0
_chemical_formula_structural       Ag2TaSe6
_chemical_formula_sum              "Ag2 Ta1 Se6"
_cell_length_a       6.607072001988695
_cell_length_b       6.607072262415514
_cell_length_c       6.607071689332246
_cell_angle_alpha    60.000001895108475
_cell_angle_beta     60.00000145306335
_cell_angle_gamma    60.00000203450341

_space_group_name_H-M_alt    "P 1"
_space_group_IT_number       1

loop_
  _space_group_symop_operation_xyz
  'x, y, z'

loop_
  _atom_site_type_symbol
  _atom_site_label
  _atom_site_symmetry_multiplicity
  _atom_site_fract_x
  _atom_site_fract_y
  _atom_site_fract_z
  _atom_site_occupancy
  Ag  Ag1       1.0  0.25000001486443885  0.24999996702685398  0.25000001386301024  1.0000
  Ag  Ag2       1.0  0.7500000180056047  0.7500000123018223  0.7500000159210836  1.0000
  Ta  Ta1       1.0  2.241366904556058e-09  3.522006542821452e-08  1.4566939530229545e-08  1.0000
  Se  Se1       1.0  0.27052532986646877  0.2705253003753637  0.7294746857859147  1.0000
  Se  Se2       1.0  0.7294746804262093  0.7294746103668694  0.27052530482241416  1.0000
  Se  Se3       1.0  0.729474670483575  0.27052537981656716  0.27052530621110205  1.0000
  Se  Se4       1.0  0.2705253312100093  0.7294746458543013  0.7294746584759919  1.0000
  Se  Se5       1.0  0.2705253435744473  0.7294746470204385  0.270525390588571  1.0000
  Se  Se6       1.0  0.7294746151330189  0.27052540274836956  0.7294745971643807  1.0000
