data_image0
_chemical_formula_structural       Ag2TaTe6
_chemical_formula_sum              "Ag2 Ta1 Te6"
_cell_length_a       7.251962000236422
_cell_length_b       7.251961928883993
_cell_length_c       7.2519619062214
_cell_angle_alpha    60.000000097005575
_cell_angle_beta     60.000000327090795
_cell_angle_gamma    60.00000084721748

_space_group_name_H-M_alt    "P 1"
_space_group_IT_number       1

loop_
  _space_group_symop_operation_xyz
  'x, y, z'

loop_
  _atom_site_type_symbol
  _atom_site_label
  _atom_site_symmetry_multiplicity
  _atom_site_fract_x
  _atom_site_fract_y
  _atom_site_fract_z
  _atom_site_occupancy
  Ag  Ag1       1.0  0.2500000453388493  0.24999999187420455  0.24999998076023472  1.0000
  Ag  Ag2       1.0  0.7500000057244586  0.7499999891333823  0.7499999634400603  1.0000
  Ta  Ta1       1.0  0.9999999365662375  4.22211555011877e-08  3.4048235817411716e-08  1.0000
  Te  Te1       1.0  0.2660422034357188  0.26604218393299683  0.733957806619286  1.0000
  Te  Te2       1.0  0.733957782987914  0.7339578190295906  0.2660421947757135  1.0000
  Te  Te3       1.0  0.7339577850374626  0.26604220218145835  0.26604220816327606  1.0000
  Te  Te4       1.0  0.2660422155399036  0.7339577822038205  0.73395781061182  1.0000
  Te  Te5       1.0  0.26604221579521653  0.7339577685469162  0.26604220580217613  1.0000
  Te  Te6       1.0  0.7339578075401445  0.2660422192160553  0.7339577916314531  1.0000
