data_image0
_chemical_formula_structural       Ag2TaO6
_chemical_formula_sum              "Ag2 Ta1 O6"
_cell_length_a       5.6601469329387655
_cell_length_b       5.660147771836891
_cell_length_c       5.66014584907571
_cell_angle_alpha    59.99999352220464
_cell_angle_beta     59.99999201180093
_cell_angle_gamma    59.99998951544137

_space_group_name_H-M_alt    "P 1"
_space_group_IT_number       1

loop_
  _space_group_symop_operation_xyz
  'x, y, z'

loop_
  _atom_site_type_symbol
  _atom_site_label
  _atom_site_symmetry_multiplicity
  _atom_site_fract_x
  _atom_site_fract_y
  _atom_site_fract_z
  _atom_site_occupancy
  Ag  Ag1       1.0  0.24999983618552268  0.2500000549535531  0.24999944187503176  1.0000
  Ag  Ag2       1.0  0.7499995624889183  0.7499998684192241  0.7500004909966093  1.0000
  Ta  Ta1       1.0  0.9999999702229647  2.8129442500269043e-08  7.326009182871073e-08  1.0000
  O   O1        1.0  0.24697833915646672  0.24697825791556585  0.7530222654865845  1.0000
  O   O2        1.0  0.7530220880976906  0.753021609198062  0.246978211233463  1.0000
  O   O3        1.0  0.7530215233281776  0.24697901952108256  0.24697806874951783  1.0000
  O   O4        1.0  0.24697852850267304  0.7530215638117971  0.7530213153347826  1.0000
  O   O5        1.0  0.2469782757934206  0.7530214822545596  0.24697864958456814  1.0000
  O   O6        1.0  0.7530219154156621  0.24697817497018884  0.7530215501153942  1.0000
