data_image0
_chemical_formula_structural       Ag2YS6
_chemical_formula_sum              "Ag2 Y1 S6"
_cell_length_a       6.790243006762758
_cell_length_b       6.790243074849448
_cell_length_c       6.79024285032134
_cell_angle_alpha    59.99999992345216
_cell_angle_beta     60.00000149588542
_cell_angle_gamma    60.00000228278461

_space_group_name_H-M_alt    "P 1"
_space_group_IT_number       1

loop_
  _space_group_symop_operation_xyz
  'x, y, z'

loop_
  _atom_site_type_symbol
  _atom_site_label
  _atom_site_symmetry_multiplicity
  _atom_site_fract_x
  _atom_site_fract_y
  _atom_site_fract_z
  _atom_site_occupancy
  Ag  Ag1       1.0  0.24999999133343964  0.2500000548329558  0.2499999178965073  1.0000
  Ag  Ag2       1.0  0.750000006519715  0.749999975112108  0.750000095736752  1.0000
  Y   Y1        1.0  1.4721232047710306e-08  0.9999999711410649  8.070392074042344e-08  1.0000
  S   S1        1.0  0.2807856813148214  0.2807857737037326  0.7192143127525251  1.0000
  S   S2        1.0  0.7192142768926966  0.7192143139591993  0.2807856594451875  1.0000
  S   S3        1.0  0.7192143718540019  0.2807856658457792  0.2807856683610783  1.0000
  S   S4        1.0  0.2807857174358322  0.719214176516214  0.71921439481808  1.0000
  S   S5        1.0  0.2807856964744422  0.7192143061992152  0.2807856560017363  1.0000
  S   S6        1.0  0.7192142417393435  0.2807857598195175  0.7192142221442348  1.0000
