data_image0
_chemical_formula_structural       Ag2YO6
_chemical_formula_sum              "Ag2 Y1 O6"
_cell_length_a       5.534180890270882
_cell_length_b       5.534180779365294
_cell_length_c       5.534181070005025
_cell_angle_alpha    59.9999995745541
_cell_angle_beta     59.999999724098366
_cell_angle_gamma    59.99999908825256

_space_group_name_H-M_alt    "P 1"
_space_group_IT_number       1

loop_
  _space_group_symop_operation_xyz
  'x, y, z'

loop_
  _atom_site_type_symbol
  _atom_site_label
  _atom_site_symmetry_multiplicity
  _atom_site_fract_x
  _atom_site_fract_y
  _atom_site_fract_z
  _atom_site_occupancy
  Ag  Ag1       1.0  0.2499999737883137  0.25000002008900063  0.24999999349578395  1.0000
  Ag  Ag2       1.0  0.7499999336524553  0.7500000359233929  0.7500000497587221  1.0000
  Y   Y1        1.0  4.3205142759973353e-08  0.9999999955738893  1.1328669535397372e-08  1.0000
  O   O1        1.0  0.28388953142687184  0.2838894997040482  0.7161104799263822  1.0000
  O   O2        1.0  0.7161104841967522  0.716110463360016  0.2838894780119213  1.0000
  O   O3        1.0  0.7161105088690776  0.2838895022057912  0.28388954281912887  1.0000
  O   O4        1.0  0.2838895524258783  0.7161104365146644  0.7161105038376772  1.0000
  O   O5        1.0  0.28388952447930355  0.7161104911436464  0.2838894663300514  1.0000
  O   O6        1.0  0.7161104568528188  0.28388955601652427  0.7161104703198543  1.0000
