data_image0
_chemical_formula_structural       As2BS6
_chemical_formula_sum              "As2 B1 S6"
_cell_length_a       6.098734722962977
_cell_length_b       6.09873040709904
_cell_length_c       6.098732883883215
_cell_angle_alpha    59.99998999091272
_cell_angle_beta     60.00001053448726
_cell_angle_gamma    60.000017534112146

_space_group_name_H-M_alt    "P 1"
_space_group_IT_number       1

loop_
  _space_group_symop_operation_xyz
  'x, y, z'

loop_
  _atom_site_type_symbol
  _atom_site_label
  _atom_site_symmetry_multiplicity
  _atom_site_fract_x
  _atom_site_fract_y
  _atom_site_fract_z
  _atom_site_occupancy
  As  As1       1.0  0.2499992973281235  0.25000125785549826  0.24999850641285695  1.0000
  As  As2       1.0  0.750000107710237  0.7500005684855932  0.7499988112183931  1.0000
  B   B1        1.0  5.678061519922028e-08  3.413936445083961e-08  0.9999999774955994  1.0000
  S   S1        1.0  0.2338052916610774  0.23380476681118686  0.7661954625141094  1.0000
  S   S2        1.0  0.766195031978423  0.7661945593255503  0.23380566293883662  1.0000
  S   S3        1.0  0.766195078089086  0.23380450528278876  0.23380584005217667  1.0000
  S   S4        1.0  0.23380513979901443  0.7661943429030995  0.7661952460355386  1.0000
  S   S5        1.0  0.2338049802630818  0.7661950965124634  0.23380560816045112  1.0000
  S   S6        1.0  0.7661949355688252  0.23380493048472825  0.7661948608240882  1.0000
