data_image0
_chemical_formula_structural       As2BO6
_chemical_formula_sum              "As2 B1 O6"
_cell_length_a       4.7311738578442
_cell_length_b       4.731173692689757
_cell_length_c       4.731173695603906
_cell_angle_alpha    59.999998606819545
_cell_angle_beta     59.99999916505662
_cell_angle_gamma    59.99999990798403

_space_group_name_H-M_alt    "P 1"
_space_group_IT_number       1

loop_
  _space_group_symop_operation_xyz
  'x, y, z'

loop_
  _atom_site_type_symbol
  _atom_site_label
  _atom_site_symmetry_multiplicity
  _atom_site_fract_x
  _atom_site_fract_y
  _atom_site_fract_z
  _atom_site_occupancy
  As  As1       1.0  0.2500000685191957  0.24999903609395566  0.24999985425148366  1.0000
  As  As2       1.0  0.7499999169494997  0.7499999144004836  0.749998164498893  1.0000
  B   B1        1.0  4.4414526774954563e-10  0.999999976701967  3.0449707948026824e-08  1.0000
  O   O1        1.0  0.234522136050045  0.23452201916421925  0.7654781731489786  1.0000
  O   O2        1.0  0.7654779367939896  0.7654780237490646  0.234522842552102  1.0000
  O   O3        1.0  0.7654781109112281  0.2345217704048849  0.2345224861589589  1.0000
  O   O4        1.0  0.23452228468707004  0.7654782414443645  0.7654778320368506  1.0000
  O   O5        1.0  0.23452175788129562  0.7654784476725024  0.23452245747939934  1.0000
  O   O6        1.0  0.7654777893995626  0.23452253492809869  0.7654781989774979  1.0000
