data_image0
_chemical_formula_structural       As2BeS6
_chemical_formula_sum              "As2 Be1 S6"
_cell_length_a       5.803416416471972
_cell_length_b       5.803416564445266
_cell_length_c       5.803416768127705
_cell_angle_alpha    59.99999925205803
_cell_angle_beta     59.99999647160889
_cell_angle_gamma    59.99999802794544

_space_group_name_H-M_alt    "P 1"
_space_group_IT_number       1

loop_
  _space_group_symop_operation_xyz
  'x, y, z'

loop_
  _atom_site_type_symbol
  _atom_site_label
  _atom_site_symmetry_multiplicity
  _atom_site_fract_x
  _atom_site_fract_y
  _atom_site_fract_z
  _atom_site_occupancy
  As  As1       1.0  0.2500000589234179  0.2500000606273624  0.24999989607053974  1.0000
  As  As2       1.0  0.7500003819983391  0.7499996796102303  0.7500001348337528  1.0000
  Be  Be1       1.0  2.482114294460117e-08  0.999999985227299  9.836314926270526e-08  1.0000
  S   S1        1.0  0.2552198404794482  0.255219573597923  0.744780270463766  1.0000
  S   S2        1.0  0.7447802281458448  0.7447803523536385  0.2552197641293909  1.0000
  S   S3        1.0  0.7447800728000799  0.2552199049788099  0.2552197187341749  1.0000
  S   S4        1.0  0.2552196543775381  0.7447802932125444  0.7447803056617339  1.0000
  S   S5        1.0  0.25521961532240034  0.7447803851787498  0.25521964733784713  1.0000
  S   S6        1.0  0.744780124879623  0.25521975603218133  0.7447801784763466  1.0000
