data_image0
_chemical_formula_structural       As2BeO6
_chemical_formula_sum              "As2 Be1 O6"
_cell_length_a       4.776703627181263
_cell_length_b       4.776703677668471
_cell_length_c       4.776703603983669
_cell_angle_alpha    60.00000030163519
_cell_angle_beta     60.00000144184774
_cell_angle_gamma    60.000001126384966

_space_group_name_H-M_alt    "P 1"
_space_group_IT_number       1

loop_
  _space_group_symop_operation_xyz
  'x, y, z'

loop_
  _atom_site_type_symbol
  _atom_site_label
  _atom_site_symmetry_multiplicity
  _atom_site_fract_x
  _atom_site_fract_y
  _atom_site_fract_z
  _atom_site_occupancy
  As  As1       1.0  0.2500000967031826  0.24999969539589073  0.2500002269825733  1.0000
  As  As2       1.0  0.7499994537365446  0.7500000143541897  0.7499997327550691  1.0000
  Be  Be1       1.0  0.9999999809544065  0.9999999846160246  8.840808646420084e-09  1.0000
  O   O1        1.0  0.24717312212061074  0.24717304269698212  0.7528268894518458  1.0000
  O   O2        1.0  0.7528268509838005  0.7528270670364571  0.2471732849164638  1.0000
  O   O3        1.0  0.752826913434838  0.24717304260359052  0.2471731226900073  1.0000
  O   O4        1.0  0.24717347970340456  0.7528270978978026  0.7528267488181385  1.0000
  O   O5        1.0  0.24717312779504272  0.7528269374461177  0.2471730644887156  1.0000
  O   O6        1.0  0.7528269422969812  0.24717315690334785  0.7528268953177792  1.0000
