data_image0
_chemical_formula_structural       As2BeSe6
_chemical_formula_sum              "As2 Be1 Se6"
_cell_length_a       6.22399743045497
_cell_length_b       6.223996146802771
_cell_length_c       6.223987852078907
_cell_angle_alpha    60.00002750907335
_cell_angle_beta     60.000031188712285
_cell_angle_gamma    60.00008645265577

_space_group_name_H-M_alt    "P 1"
_space_group_IT_number       1

loop_
  _space_group_symop_operation_xyz
  'x, y, z'

loop_
  _atom_site_type_symbol
  _atom_site_label
  _atom_site_symmetry_multiplicity
  _atom_site_fract_x
  _atom_site_fract_y
  _atom_site_fract_z
  _atom_site_occupancy
  As  As1       1.0  0.2500110846204831  0.24999809043662147  0.2499938005045568  1.0000
  As  As2       1.0  0.7499989625714985  0.7499828030717309  0.7500099785961507  1.0000
  Be  Be1       1.0  1.009458127967375e-06  0.9999975560205868  7.574279718597639e-07  1.0000
  Se  Se1       1.0  0.22585804468639972  0.22587239935460107  0.7741363850379661  1.0000
  Se  Se2       1.0  0.774127165455539  0.7741395259919293  0.2258661186514784  1.0000
  Se  Se3       1.0  0.7741291387663171  0.2258742033649505  0.22585589697823474  1.0000
  Se  Se4       1.0  0.2258714972701696  0.7741297308484142  0.7741366361036481  1.0000
  Se  Se5       1.0  0.22587402543337398  0.7741317234146893  0.22585949938866764  1.0000
  Se  Se6       1.0  0.7741291263339741  0.22587386373304114  0.7741409911533981  1.0000
