data_image0
_chemical_formula_structural       As2CN6
_chemical_formula_sum              "As2 C1 N6"
_cell_length_a       4.805996897292686
_cell_length_b       4.805996803404728
_cell_length_c       4.805996829286206
_cell_angle_alpha    59.99999919078621
_cell_angle_beta     59.999999538510814
_cell_angle_gamma    59.9999993308472

_space_group_name_H-M_alt    "P 1"
_space_group_IT_number       1

loop_
  _space_group_symop_operation_xyz
  'x, y, z'

loop_
  _atom_site_type_symbol
  _atom_site_label
  _atom_site_symmetry_multiplicity
  _atom_site_fract_x
  _atom_site_fract_y
  _atom_site_fract_z
  _atom_site_occupancy
  As  As1       1.0  0.2499999878401694  0.25000003445453367  0.2500000078259623  1.0000
  As  As2       1.0  0.7500000587053037  0.749999983590302  0.7499998942822407  1.0000
  C   C1        1.0  0.9999999739833559  2.0386944298570512e-08  8.396346780525615e-08  1.0000
  N   N1        1.0  0.23632150500536556  0.23632152678722565  0.7636784835456404  1.0000
  N   N2        1.0  0.7636785643046698  0.763678473419033  0.236321515974792  1.0000
  N   N3        1.0  0.763678453240078  0.23632153620243482  0.23632148540013428  1.0000
  N   N4        1.0  0.23632158061356667  0.7636784334234074  0.7636784472634801  1.0000
  N   N5        1.0  0.236321520746104  0.7636784404404272  0.23632159851231446  1.0000
  N   N6        1.0  0.7636783857434407  0.23632157250767177  0.7636784677245091  1.0000
