data_image0
_chemical_formula_structural       As2CO6
_chemical_formula_sum              "As2 C1 O6"
_cell_length_a       4.627076196381496
_cell_length_b       4.627076157409519
_cell_length_c       4.627076261094872
_cell_angle_alpha    59.999999537063694
_cell_angle_beta     59.99999981642259
_cell_angle_gamma    59.99999923885296

_space_group_name_H-M_alt    "P 1"
_space_group_IT_number       1

loop_
  _space_group_symop_operation_xyz
  'x, y, z'

loop_
  _atom_site_type_symbol
  _atom_site_label
  _atom_site_symmetry_multiplicity
  _atom_site_fract_x
  _atom_site_fract_y
  _atom_site_fract_z
  _atom_site_occupancy
  As  As1       1.0  0.24999983898569314  0.250000026886893  0.2500001155447494  1.0000
  As  As2       1.0  0.7499998806773628  0.7499998953770582  0.750000175290623  1.0000
  C   C1        1.0  0.999999977994372  0.9999999761778205  6.181535884309855e-08  1.0000
  O   O1        1.0  0.2318629662724722  0.2318628951088349  0.7681370246644209  1.0000
  O   O2        1.0  0.7681371065447464  0.7681370906809267  0.23186290222514497  1.0000
  O   O3        1.0  0.7681371675080596  0.2318629373558337  0.23186281272677367  1.0000
  O   O4        1.0  0.23186294783259473  0.7681371304881021  0.7681370367456438  1.0000
  O   O5        1.0  0.23186296769797324  0.7681371187739392  0.23186285649882918  1.0000
  O   O6        1.0  0.7681371456012897  0.23186292524781685  0.7681370340008693  1.0000
