data_image0
_chemical_formula_structural       As2CrN6
_chemical_formula_sum              "As2 Cr1 N6"
_cell_length_a       4.907582669526232
_cell_length_b       4.90758272949248
_cell_length_c       4.907582744655962
_cell_angle_alpha    59.99999980501964
_cell_angle_beta     59.99999970712289
_cell_angle_gamma    60.00000036529511

_space_group_name_H-M_alt    "P 1"
_space_group_IT_number       1

loop_
  _space_group_symop_operation_xyz
  'x, y, z'

loop_
  _atom_site_type_symbol
  _atom_site_label
  _atom_site_symmetry_multiplicity
  _atom_site_fract_x
  _atom_site_fract_y
  _atom_site_fract_z
  _atom_site_occupancy
  As  As1       1.0  0.24999998375882093  0.2500000871273474  0.24999997449904088  1.0000
  As  As2       1.0  0.7500000379584119  0.7499999519254885  0.7500000104324687  1.0000
  Cr  Cr1       1.0  0.999999960665517  4.7416729861633244e-08  1.0222517801186758e-08  1.0000
  N   N1        1.0  0.284874564355898  0.2848744972977191  0.7151254399571845  1.0000
  N   N2        1.0  0.7151254654190934  0.7151254893471521  0.28487451417018894  1.0000
  N   N3        1.0  0.7151254651520592  0.2848744542859768  0.28487454064023404  1.0000
  N   N4        1.0  0.28487450696696687  0.7151254300385819  0.7151255342285392  1.0000
  N   N5        1.0  0.2848745359095364  0.7151254957242857  0.28487444483074575  1.0000
  N   N6        1.0  0.7151254675309899  0.28487455580663706  0.7151255022468127  1.0000
