data_image0
_chemical_formula_structural       As2CoN6
_chemical_formula_sum              "As2 Co1 N6"
_cell_length_a       5.059547652729379
_cell_length_b       5.059549027335976
_cell_length_c       5.059548988098731
_cell_angle_alpha    60.000017392509264
_cell_angle_beta     60.00001708416264
_cell_angle_gamma    60.00001703019481

_space_group_name_H-M_alt    "P 1"
_space_group_IT_number       1

loop_
  _space_group_symop_operation_xyz
  'x, y, z'

loop_
  _atom_site_type_symbol
  _atom_site_label
  _atom_site_symmetry_multiplicity
  _atom_site_fract_x
  _atom_site_fract_y
  _atom_site_fract_z
  _atom_site_occupancy
  As  As1       1.0  0.2500014019906377  0.25000163408264475  0.2499996276261625  1.0000
  As  As2       1.0  0.7499982408729475  0.7500019563048079  0.7500004053302316  1.0000
  Co  Co1       1.0  2.805705943942091e-07  2.46907269088057e-07  0.9999995623326088  1.0000
  N   N1        1.0  0.25708360922421136  0.2570802674062869  0.74291903096419  1.0000
  N   N2        1.0  0.7429192975019056  0.7429172422842383  0.25708280767786246  1.0000
  N   N3        1.0  0.7429150127614763  0.25708033652590956  0.2570828834829628  1.0000
  N   N4        1.0  0.25708114790869174  0.7429196373955953  0.7429164158115156  1.0000
  N   N5        1.0  0.2570843193723178  0.7429180557123969  0.25707908968501036  1.0000
  N   N6        1.0  0.7429168180540926  0.25708092089751655  0.7429194828464051  1.0000
