data_image0
_chemical_formula_structural       As2CS6
_chemical_formula_sum              "As2 C1 S6"
_cell_length_a       6.034596434891609
_cell_length_b       6.034598849498518
_cell_length_c       6.034596990805508
_cell_angle_alpha    59.99999425719139
_cell_angle_beta     59.999993841229504
_cell_angle_gamma    59.999993947676835

_space_group_name_H-M_alt    "P 1"
_space_group_IT_number       1

loop_
  _space_group_symop_operation_xyz
  'x, y, z'

loop_
  _atom_site_type_symbol
  _atom_site_label
  _atom_site_symmetry_multiplicity
  _atom_site_fract_x
  _atom_site_fract_y
  _atom_site_fract_z
  _atom_site_occupancy
  As  As1       1.0  0.2500016111679807  0.2499983539257176  0.25000005846290746  1.0000
  As  As2       1.0  0.7499978044450369  0.7500008967002774  0.7500010873072581  1.0000
  C   C1        1.0  1.7773801224358985e-05  0.9999940656287124  0.9999921066655457  1.0000
  S   S1        1.0  0.23327487069658764  0.23327348166410417  0.7667252465814666  1.0000
  S   S2        1.0  0.766718946854514  0.7667205774039079  0.23327944134876144  1.0000
  S   S3        1.0  0.7667193956706733  0.2332803619018865  0.23328112215651975  1.0000
  S   S4        1.0  0.23327459452795235  0.7667267897158507  0.7667260008875664  1.0000
  S   S5        1.0  0.23327483754800477  0.7667262486012186  0.23327352585664565  1.0000
  S   S6        1.0  0.7667201807702587  0.23327929968329275  0.7667214664009111  1.0000
