data_image0
_chemical_formula_structural       As2GeN6
_chemical_formula_sum              "As2 Ge1 N6"
_cell_length_a       5.14508086523365
_cell_length_b       5.145089292361725
_cell_length_c       5.145075377202716
_cell_angle_alpha    60.000085326693956
_cell_angle_beta     60.00003627825735
_cell_angle_gamma    60.00011945169502

_space_group_name_H-M_alt    "P 1"
_space_group_IT_number       1

loop_
  _space_group_symop_operation_xyz
  'x, y, z'

loop_
  _atom_site_type_symbol
  _atom_site_label
  _atom_site_symmetry_multiplicity
  _atom_site_fract_x
  _atom_site_fract_y
  _atom_site_fract_z
  _atom_site_occupancy
  As  As1       1.0  0.2500015280595932  0.24999519232293235  0.2500059139583148  1.0000
  As  As2       1.0  0.7500025535584416  0.7500072553814672  0.7499977082151273  1.0000
  Ge  Ge1       1.0  0.9999997212823848  1.1997276889683679e-06  0.9999971819006979  1.0000
  N   N1        1.0  0.2990021384936377  0.29900035463798774  0.7009909996559193  1.0000
  N   N2        1.0  0.7009822132801017  0.701019262970268  0.2989939144417012  1.0000
  N   N3        1.0  0.700999813582341  0.2989865526425625  0.29901782791711523  1.0000
  N   N4        1.0  0.2989886236301843  0.7010208153663627  0.7009828804316808  1.0000
  N   N5        1.0  0.2990040956282087  0.7010003356352061  0.2990152034219986  1.0000
  N   N6        1.0  0.7010192770197328  0.2989691100449879  0.7009982207566505  1.0000
