data_image0
_chemical_formula_structural       As2MnN6
_chemical_formula_sum              "As2 Mn1 N6"
_cell_length_a       5.067105431431366
_cell_length_b       5.067105305239124
_cell_length_c       5.067105376599785
_cell_angle_alpha    59.99999791549906
_cell_angle_beta     59.99999734621448
_cell_angle_gamma    59.99999640030576

_space_group_name_H-M_alt    "P 1"
_space_group_IT_number       1

loop_
  _space_group_symop_operation_xyz
  'x, y, z'

loop_
  _atom_site_type_symbol
  _atom_site_label
  _atom_site_symmetry_multiplicity
  _atom_site_fract_x
  _atom_site_fract_y
  _atom_site_fract_z
  _atom_site_occupancy
  As  As1       1.0  0.2500000218710296  0.25000015402466774  0.24999993718887342  1.0000
  As  As2       1.0  0.7500000151911589  0.7499997998021855  0.7500001106816169  1.0000
  Mn  Mn1       1.0  0.9999999750949641  0.9999999516589915  8.201382996404078e-08  1.0000
  N   N1        1.0  0.2548166188644243  0.25481676879043214  0.7451832624032935  1.0000
  N   N2        1.0  0.7451834120050507  0.745183230960381  0.2548165583826738  1.0000
  N   N3        1.0  0.7451833164324568  0.25481672719217696  0.2548166227996802  1.0000
  N   N4        1.0  0.25481687706241785  0.7451832290517236  0.7451833456459397  1.0000
  N   N5        1.0  0.25481664874099685  0.7451834185817882  0.2548167207095954  1.0000
  N   N6        1.0  0.7451831520350385  0.25481669718744854  0.745183382094403  1.0000
