data_image0
_chemical_formula_structural       As2NiN6
_chemical_formula_sum              "As2 Ni1 N6"
_cell_length_a       4.93404365190775
_cell_length_b       4.934043844218341
_cell_length_c       4.934042943533241
_cell_angle_alpha    59.99998801712543
_cell_angle_beta     59.999987898197546
_cell_angle_gamma    59.99999172982809

_space_group_name_H-M_alt    "P 1"
_space_group_IT_number       1

loop_
  _space_group_symop_operation_xyz
  'x, y, z'

loop_
  _atom_site_type_symbol
  _atom_site_label
  _atom_site_symmetry_multiplicity
  _atom_site_fract_x
  _atom_site_fract_y
  _atom_site_fract_z
  _atom_site_occupancy
  As  As1       1.0  0.24999996369555605  0.25000003578506885  0.24999988131943898  1.0000
  As  As2       1.0  0.7499999697839504  0.7499999484922028  0.7499999880515147  1.0000
  Ni  Ni1       1.0  4.460714190222505e-08  0.9999999925533011  0.9999999611524188  1.0000
  N   N1        1.0  0.2884974890800053  0.2884974074397443  0.7115021020716907  1.0000
  N   N2        1.0  0.7115025538687402  0.7115027679692278  0.288499732910617  1.0000
  N   N3        1.0  0.7115013870411657  0.28849701085477514  0.2884979085105852  1.0000
  N   N4        1.0  0.28849764634580755  0.711503539371902  0.7115014145210734  1.0000
  N   N5        1.0  0.2884974684885617  0.711501620514315  0.2884975612421742  1.0000
  N   N6        1.0  0.7115034759769435  0.2884976687375961  0.7115014326840587  1.0000
