data_image0
_chemical_formula_structural       As2NO6
_chemical_formula_sum              "As2 N1 O6"
_cell_length_a       4.77232528655277
_cell_length_b       4.772325445066459
_cell_length_c       4.772325213355783
_cell_angle_alpha    59.99999572150101
_cell_angle_beta     59.99999408467578
_cell_angle_gamma    59.99999459826731

_space_group_name_H-M_alt    "P 1"
_space_group_IT_number       1

loop_
  _space_group_symop_operation_xyz
  'x, y, z'

loop_
  _atom_site_type_symbol
  _atom_site_label
  _atom_site_symmetry_multiplicity
  _atom_site_fract_x
  _atom_site_fract_y
  _atom_site_fract_z
  _atom_site_occupancy
  As  As1       1.0  0.2500024584020871  0.2500006852693259  0.2500009829671182  1.0000
  As  As2       1.0  0.7500002425851594  0.7500008136960394  0.7499974596435837  1.0000
  N   N1        1.0  2.2842585377481254e-07  0.9999995252255355  6.30264652229615e-07  1.0000
  O   O1        1.0  0.23905913386187733  0.23905881258123707  0.7609400755711239  1.0000
  O   O2        1.0  0.7609403358425293  0.7609412235657363  0.23905986544749688  1.0000
  O   O3        1.0  0.760939811472809  0.2390584476477963  0.23905963221954535  1.0000
  O   O4        1.0  0.23905900872461738  0.7609407133744273  0.7609410732104254  1.0000
  O   O5        1.0  0.23905831526234111  0.7609404198621604  0.23905923918371363  1.0000
  O   O6        1.0  0.7609403800099592  0.23905941354333043  0.7609409913573596  1.0000
