data_image0
_chemical_formula_structural       As2PSe6
_chemical_formula_sum              "As2 P1 Se6"
_cell_length_a       6.3246051962354475
_cell_length_b       6.324605045390561
_cell_length_c       6.32460505325626
_cell_angle_alpha    60.00000063252538
_cell_angle_beta     60.00000116267353
_cell_angle_gamma    60.00000055040336

_space_group_name_H-M_alt    "P 1"
_space_group_IT_number       1

loop_
  _space_group_symop_operation_xyz
  'x, y, z'

loop_
  _atom_site_type_symbol
  _atom_site_label
  _atom_site_symmetry_multiplicity
  _atom_site_fract_x
  _atom_site_fract_y
  _atom_site_fract_z
  _atom_site_occupancy
  As  As1       1.0  0.24999997964650872  0.24999992400802507  0.24999995747601667  1.0000
  As  As2       1.0  0.7500001216197584  0.749999957925817  0.7500001403392141  1.0000
  P   P1        1.0  2.072849388340462e-08  0.9999999980635235  0.9999999668870954  1.0000
  Se  Se1       1.0  0.2566804834360384  0.2566804687020055  0.743319582448235  1.0000
  Se  Se2       1.0  0.7433194797361758  0.743319570086427  0.25668045539068235  1.0000
  Se  Se3       1.0  0.7433195105374333  0.2566805335278608  0.2566803813611368  1.0000
  Se  Se4       1.0  0.25668040309964046  0.743319549799529  0.7433195577837831  1.0000
  Se  Se5       1.0  0.2566804931337446  0.7433195255447611  0.25668041714218104  1.0000
  Se  Se6       1.0  0.7433195165676473  0.2566804667682366  0.7433195321267867  1.0000
