data_image0
_chemical_formula_structural       As2PS6
_chemical_formula_sum              "As2 P1 S6"
_cell_length_a       6.317384944033906
_cell_length_b       6.317385277624003
_cell_length_c       6.317384949753876
_cell_angle_alpha    60.00000563248354
_cell_angle_beta     59.99999914541835
_cell_angle_gamma    59.999999837555634

_space_group_name_H-M_alt    "P 1"
_space_group_IT_number       1

loop_
  _space_group_symop_operation_xyz
  'x, y, z'

loop_
  _atom_site_type_symbol
  _atom_site_label
  _atom_site_symmetry_multiplicity
  _atom_site_fract_x
  _atom_site_fract_y
  _atom_site_fract_z
  _atom_site_occupancy
  As  As1       1.0  0.25000065998538  0.24999943084563683  0.2499994657773504  1.0000
  As  As2       1.0  0.7500001209315749  0.7500009524189252  0.7499990511370995  1.0000
  P   P1        1.0  0.9999999456819055  3.6835103173563855e-08  4.8314833518506907e-08  1.0000
  S   S1        1.0  0.24314418621951261  0.24314384196710334  0.7568562100704097  1.0000
  S   S2        1.0  0.7568555624291748  0.7568563261030421  0.2431443156421572  1.0000
  S   S3        1.0  0.7568557644527275  0.24314376551066302  0.24314431646928572  1.0000
  S   S4        1.0  0.24314400215453635  0.7568556522866602  0.75685625406489  1.0000
  S   S5        1.0  0.24314381424560508  0.7568561959188314  0.24314427206090408  1.0000
  S   S6        1.0  0.7568559071918678  0.24314380154663334  0.7568560818779845  1.0000
