data_image0
_chemical_formula_structural       As2PO6
_chemical_formula_sum              "As2 P1 O6"
_cell_length_a       4.631949705464699
_cell_length_b       4.6319495818117415
_cell_length_c       4.631949649477896
_cell_angle_alpha    59.999998831253535
_cell_angle_beta     59.99999894622438
_cell_angle_gamma    59.999998796810814

_space_group_name_H-M_alt    "P 1"
_space_group_IT_number       1

loop_
  _space_group_symop_operation_xyz
  'x, y, z'

loop_
  _atom_site_type_symbol
  _atom_site_label
  _atom_site_symmetry_multiplicity
  _atom_site_fract_x
  _atom_site_fract_y
  _atom_site_fract_z
  _atom_site_occupancy
  As  As1       1.0  0.2499999977600305  0.24999998438980886  0.25000002113174136  1.0000
  As  As2       1.0  0.7500000152366214  0.7500000219166496  0.7499999899774115  1.0000
  P   P1        1.0  0.9999999712430233  2.6441239852401553e-08  0.9999999191189802  1.0000
  O   O1        1.0  0.2575337369858104  0.25753373495327  0.7424662275960293  1.0000
  O   O2        1.0  0.7424662550350165  0.7424662819296847  0.25753370883281795  1.0000
  O   O3        1.0  0.742466238542116  0.25753375136134915  0.2575337848973453  1.0000
  O   O4        1.0  0.2575337411394645  0.7424663025393409  0.7424662277079003  1.0000
  O   O5        1.0  0.25753375613505675  0.74246621903212  0.25753381451079704  1.0000
  O   O6        1.0  0.7424662872819924  0.25753367357700785  0.7424663267524656  1.0000
