data_image0
_chemical_formula_structural       As2PN6
_chemical_formula_sum              "As2 P1 N6"
_cell_length_a       5.0765900723033015
_cell_length_b       5.07658990283814
_cell_length_c       5.076589947728132
_cell_angle_alpha    59.99999917424129
_cell_angle_beta     59.99999905972711
_cell_angle_gamma    59.9999956951518

_space_group_name_H-M_alt    "P 1"
_space_group_IT_number       1

loop_
  _space_group_symop_operation_xyz
  'x, y, z'

loop_
  _atom_site_type_symbol
  _atom_site_label
  _atom_site_symmetry_multiplicity
  _atom_site_fract_x
  _atom_site_fract_y
  _atom_site_fract_z
  _atom_site_occupancy
  As  As1       1.0  0.2500000970026977  0.2499997549952999  0.25000009452985594  1.0000
  As  As2       1.0  0.7499998809800047  0.7499998536443676  0.7500001804855976  1.0000
  P   P1        1.0  0.999999981917825  3.3775485684760396e-08  2.7610216783106788e-08  1.0000
  N   N1        1.0  0.24658601847246328  0.24658598993493747  0.7534140057738327  1.0000
  N   N2        1.0  0.7534137666887012  0.7534143472901993  0.24658588317008176  1.0000
  N   N3        1.0  0.7534141898023198  0.2465860462889417  0.24658589802758732  1.0000
  N   N4        1.0  0.24658593257328285  0.7534139821317485  0.7534140712629867  1.0000
  N   N5        1.0  0.24658604199854173  0.7534139263518191  0.2465859420147057  1.0000
  N   N6        1.0  0.75341417526603  0.24658605623070923  0.7534138510738442  1.0000
