data_image0
_chemical_formula_structural       As2SN6
_chemical_formula_sum              "As2 S1 N6"
_cell_length_a       4.849485096526017
_cell_length_b       4.849485138261261
_cell_length_c       4.849484962648148
_cell_angle_alpha    60.000000060970414
_cell_angle_beta     60.000001115471235
_cell_angle_gamma    60.000000099810435

_space_group_name_H-M_alt    "P 1"
_space_group_IT_number       1

loop_
  _space_group_symop_operation_xyz
  'x, y, z'

loop_
  _atom_site_type_symbol
  _atom_site_label
  _atom_site_symmetry_multiplicity
  _atom_site_fract_x
  _atom_site_fract_y
  _atom_site_fract_z
  _atom_site_occupancy
  As  As1       1.0  0.2500000167681055  0.24999998030407847  0.24999998086623168  1.0000
  As  As2       1.0  0.749999992411465  0.7500000217287232  0.7499999868128915  1.0000
  S   S1        1.0  0.9999999831880134  7.576545042075797e-09  6.235581084870182e-08  1.0000
  N   N1        1.0  0.24467773635372636  0.24467775314393814  0.7553222735974714  1.0000
  N   N2        1.0  0.7553222414632941  0.7553222286847413  0.24467773842366008  1.0000
  N   N3        1.0  0.7553222243210673  0.24467776775849634  0.24467776525209287  1.0000
  N   N4        1.0  0.24467777391460366  0.7553222671060035  0.755322201793504  1.0000
  N   N5        1.0  0.24467777237809327  0.7553222614501834  0.2446777309612473  1.0000
  N   N6        1.0  0.7553222338426522  0.24467777088880138  0.7553222086096744  1.0000
