data_image0
_chemical_formula_structural       As2SiN6
_chemical_formula_sum              "As2 Si1 N6"
_cell_length_a       4.93312539750841
_cell_length_b       4.933125152942522
_cell_length_c       4.9331257207250525
_cell_angle_alpha    59.99999701211875
_cell_angle_beta     59.99999847719815
_cell_angle_gamma    60.00000161519225

_space_group_name_H-M_alt    "P 1"
_space_group_IT_number       1

loop_
  _space_group_symop_operation_xyz
  'x, y, z'

loop_
  _atom_site_type_symbol
  _atom_site_label
  _atom_site_symmetry_multiplicity
  _atom_site_fract_x
  _atom_site_fract_y
  _atom_site_fract_z
  _atom_site_occupancy
  As  As1       1.0  0.2500002185233035  0.24999954290736967  0.25000019495332143  1.0000
  As  As2       1.0  0.7500003757025562  0.749999966895118  0.7499997982638773  1.0000
  Si  Si1       1.0  4.6814157741309885e-09  3.1924204632398807e-16  1.1849078323122541e-08  1.0000
  N   N1        1.0  0.2694757486568591  0.2694759132979497  0.7305242853755028  1.0000
  N   N2        1.0  0.730524004556781  0.7305243288997543  0.269475979051218  1.0000
  N   N3        1.0  0.7305240974283094  0.26947584668585933  0.2694757114513594  1.0000
  N   N4        1.0  0.2694756539638505  0.7305244501311479  0.7305240056085801  1.0000
  N   N5        1.0  0.2694756361123459  0.7305243402152327  0.2694758459603504  1.0000
  N   N6        1.0  0.730524305757611  0.26947562392055097  0.7305241611294333  1.0000
