data_image0
_chemical_formula_structural       As2SeN6
_chemical_formula_sum              "As2 Se1 N6"
_cell_length_a       4.52552702259311
_cell_length_b       4.525526356073742
_cell_length_c       4.52552694173026
_cell_angle_alpha    59.99999639422388
_cell_angle_beta     59.99999724629819
_cell_angle_gamma    60.00000627909476

_space_group_name_H-M_alt    "P 1"
_space_group_IT_number       1

loop_
  _space_group_symop_operation_xyz
  'x, y, z'

loop_
  _atom_site_type_symbol
  _atom_site_label
  _atom_site_symmetry_multiplicity
  _atom_site_fract_x
  _atom_site_fract_y
  _atom_site_fract_z
  _atom_site_occupancy
  As  As1       1.0  0.24999999847323287  0.24999995575996165  0.25000004416452687  1.0000
  As  As2       1.0  0.750000004980153  0.7499999457626944  0.7500000818428865  1.0000
  Se  Se1       1.0  1.499961193821835e-08  1.6237824333601203e-08  0.999999986590969  1.0000
  N   N1        1.0  0.26774602796245245  0.26774596760223524  0.732254018530198  1.0000
  N   N2        1.0  0.732253936006377  0.7322539528645402  0.2677460337793125  1.0000
  N   N3        1.0  0.7322539871981014  0.2677459692714764  0.26774599414615124  1.0000
  N   N4        1.0  0.26774599986269715  0.7322539890835537  0.7322539989473105  1.0000
  N   N5        1.0  0.26774602930445196  0.7322540013079435  0.2677459778157613  1.0000
  N   N6        1.0  0.7322540082208907  0.26774589750841177  0.73225407505695  1.0000
