data_image0
_chemical_formula_structural       Au2AsSe6
_chemical_formula_sum              "Au2 As1 Se6"
_cell_length_a       6.4741801203880724
_cell_length_b       6.47417970666526
_cell_length_c       6.47417947224887
_cell_angle_alpha    59.99999979552228
_cell_angle_beta     60.00000103163482
_cell_angle_gamma    59.999999109696724

_space_group_name_H-M_alt    "P 1"
_space_group_IT_number       1

loop_
  _space_group_symop_operation_xyz
  'x, y, z'

loop_
  _atom_site_type_symbol
  _atom_site_label
  _atom_site_symmetry_multiplicity
  _atom_site_fract_x
  _atom_site_fract_y
  _atom_site_fract_z
  _atom_site_occupancy
  Au  Au1       1.0  0.2499999918673488  0.2500000564422296  0.24999999883403082  1.0000
  Au  Au2       1.0  0.7500000744391007  0.7499999744777225  0.7499998823253345  1.0000
  As  As1       1.0  8.326720257349213e-08  6.053560302756077e-08  0.9999997412023243  1.0000
  Se  Se1       1.0  0.2923495858080753  0.29234957548304025  0.7076504263173798  1.0000
  Se  Se2       1.0  0.707650429696719  0.7076503135565948  0.2923496623939782  1.0000
  Se  Se3       1.0  0.7076502857798368  0.2923496550124873  0.2923496861103517  1.0000
  Se  Se4       1.0  0.29234945436924165  0.707650519679517  0.7076504607811697  1.0000
  Se  Se5       1.0  0.2923496275148606  0.7076503392045004  0.29234966972352977  1.0000
  Se  Se6       1.0  0.7076504674397188  0.29234949875822025  0.7076504943880344  1.0000
