data_image0
_chemical_formula_structural       Au2AsO6
_chemical_formula_sum              "Au2 As1 O6"
_cell_length_a       5.341422719335501
_cell_length_b       5.341422828835433
_cell_length_c       5.341422822023881
_cell_angle_alpha    60.00000091161521
_cell_angle_beta     59.99999969029838
_cell_angle_gamma    60.00000092895988

_space_group_name_H-M_alt    "P 1"
_space_group_IT_number       1

loop_
  _space_group_symop_operation_xyz
  'x, y, z'

loop_
  _atom_site_type_symbol
  _atom_site_label
  _atom_site_symmetry_multiplicity
  _atom_site_fract_x
  _atom_site_fract_y
  _atom_site_fract_z
  _atom_site_occupancy
  Au  Au1       1.0  0.24999995174577552  0.2500000359045897  0.2500000494319886  1.0000
  Au  Au2       1.0  0.7499999149168521  0.7500000389262055  0.7499999974606756  1.0000
  As  As1       1.0  1.742541098195464e-08  0.9999999931212439  2.2153139624571397e-09  1.0000
  O   O1        1.0  0.2427977545108269  0.24279774395158948  0.7572022245014964  1.0000
  O   O2        1.0  0.7572022459426767  0.7572023056570993  0.2427977194306146  1.0000
  O   O3        1.0  0.757202415837737  0.24279763734229876  0.24279774484545616  1.0000
  O   O4        1.0  0.24279775179634738  0.7572022609337533  0.75720223422237  1.0000
  O   O5        1.0  0.2427977532660779  0.7572022060537003  0.2427977208729942  1.0000
  O   O6        1.0  0.7572022867777177  0.24279777018158855  0.757202217484746  1.0000
