data_image0
_chemical_formula_structural       Au2AsO6
_chemical_formula_sum              "Au2 As1 O6"
_cell_length_a       5.340970495369016
_cell_length_b       5.340970583868312
_cell_length_c       5.340970670211491
_cell_angle_alpha    59.999999570647375
_cell_angle_beta     60.000000166584954
_cell_angle_gamma    60.00000053416856

_space_group_name_H-M_alt    "P 1"
_space_group_IT_number       1

loop_
  _space_group_symop_operation_xyz
  'x, y, z'

loop_
  _atom_site_type_symbol
  _atom_site_label
  _atom_site_symmetry_multiplicity
  _atom_site_fract_x
  _atom_site_fract_y
  _atom_site_fract_z
  _atom_site_occupancy
  Au  Au1       1.0  0.2499999009514827  0.2499997945668915  0.24999979248724383  1.0000
  Au  Au2       1.0  0.7500000851177173  0.7500000853932322  0.7499995338587488  1.0000
  As  As1       1.0  1.1682854366151062e-08  2.98104680592252e-08  2.231667219950692e-08  1.0000
  O   O1        1.0  0.2428301010655082  0.24283014586552717  0.757170051234726  1.0000
  O   O2        1.0  0.7571698774011404  0.7571699060780626  0.2428303144397931  1.0000
  O   O3        1.0  0.7571700894399863  0.24282996592979547  0.2428302655703718  1.0000
  O   O4        1.0  0.24283010703695565  0.7571700286859727  0.7571697932123342  1.0000
  O   O5        1.0  0.242830095460269  0.757169888326747  0.24283016023535758  1.0000
  O   O6        1.0  0.7571697628092044  0.242830193427311  0.7571700128480217  1.0000
