data_image0
_chemical_formula_structural       Au2BiS6
_chemical_formula_sum              "Au2 Bi1 S6"
_cell_length_a       6.59933078314831
_cell_length_b       6.599330449762013
_cell_length_c       6.599330467489014
_cell_angle_alpha    60.000001118726935
_cell_angle_beta     60.00000263940181
_cell_angle_gamma    59.99999664961369

_space_group_name_H-M_alt    "P 1"
_space_group_IT_number       1

loop_
  _space_group_symop_operation_xyz
  'x, y, z'

loop_
  _atom_site_type_symbol
  _atom_site_label
  _atom_site_symmetry_multiplicity
  _atom_site_fract_x
  _atom_site_fract_y
  _atom_site_fract_z
  _atom_site_occupancy
  Au  Au1       1.0  0.24999971375001082  0.24999978640591802  0.24999976873584706  1.0000
  Au  Au2       1.0  0.7499998245027173  0.7500007214206967  0.7499996866523923  1.0000
  Bi  Bi1       1.0  0.9999998982855369  4.268483736125715e-08  0.999999981025045  1.0000
  S   S1        1.0  0.2643037858869854  0.26430355271749534  0.7356965341069498  1.0000
  S   S2        1.0  0.7356964077301934  0.7356961700793312  0.26430370739924786  1.0000
  S   S3        1.0  0.7356966255695684  0.2643035019599981  0.2643040030728134  1.0000
  S   S4        1.0  0.26430385183947447  0.7356961725843986  0.7356963449288437  1.0000
  S   S5        1.0  0.2643035742835515  0.7356964705198928  0.2643038464668867  1.0000
  S   S6        1.0  0.7356963201428188  0.2643035881880265  0.7356961387762476  1.0000
