data_image0
_chemical_formula_structural       Au2BS6
_chemical_formula_sum              "Au2 B1 S6"
_cell_length_a       6.316888858674445
_cell_length_b       6.316888808115156
_cell_length_c       6.316888798947087
_cell_angle_alpha    60.000000113464836
_cell_angle_beta     60.000000485039074
_cell_angle_gamma    60.000000415236855

_space_group_name_H-M_alt    "P 1"
_space_group_IT_number       1

loop_
  _space_group_symop_operation_xyz
  'x, y, z'

loop_
  _atom_site_type_symbol
  _atom_site_label
  _atom_site_symmetry_multiplicity
  _atom_site_fract_x
  _atom_site_fract_y
  _atom_site_fract_z
  _atom_site_occupancy
  Au  Au1       1.0  0.24999998776338236  0.25000001476782935  0.2500000182635667  1.0000
  Au  Au2       1.0  0.7500000147137544  0.7499999997101245  0.7500000181313646  1.0000
  B   B1        1.0  0.9999999939807306  0.9999999961223162  0.9999999843687254  1.0000
  S   S1        1.0  0.22401935108246127  0.22401937036964825  0.7759806113480499  1.0000
  S   S2        1.0  0.7759806400024173  0.7759806344140959  0.22401933585747508  1.0000
  S   S3        1.0  0.7759806304794263  0.2240193709714054  0.22401940861480996  1.0000
  S   S4        1.0  0.22401938911463465  0.7759806086073943  0.7759806635832188  1.0000
  S   S5        1.0  0.22401934590847355  0.775980620190181  0.2240193403602268  1.0000
  S   S6        1.0  0.7759806519528393  0.22401938071587954  0.7759806085620381  1.0000
