data_image0
_chemical_formula_structural       Au2BO6
_chemical_formula_sum              "Au2 B1 O6"
_cell_length_a       4.981809922767665
_cell_length_b       4.981809984020592
_cell_length_c       4.981809921022861
_cell_angle_alpha    60.00000103457082
_cell_angle_beta     59.99999956894376
_cell_angle_gamma    60.00000018132544

_space_group_name_H-M_alt    "P 1"
_space_group_IT_number       1

loop_
  _space_group_symop_operation_xyz
  'x, y, z'

loop_
  _atom_site_type_symbol
  _atom_site_label
  _atom_site_symmetry_multiplicity
  _atom_site_fract_x
  _atom_site_fract_y
  _atom_site_fract_z
  _atom_site_occupancy
  Au  Au1       1.0  0.25000014368357415  0.24999991771128655  0.2499998631409005  1.0000
  Au  Au2       1.0  0.7499999004715637  0.7500001071482899  0.7500000370122343  1.0000
  B   B1        1.0  3.2449667974047396e-08  0.9999999999999994  0.9999999416218116  1.0000
  O   O1        1.0  0.2300851776124542  0.23008513571804778  0.7699149116796163  1.0000
  O   O2        1.0  0.7699147501127348  0.7699148768493629  0.23008516122891615  1.0000
  O   O3        1.0  0.7699147989520527  0.2300851354369915  0.2300851625409596  1.0000
  O   O4        1.0  0.23008522600566256  0.7699148427123494  0.7699148448362002  1.0000
  O   O5        1.0  0.23008521454209005  0.7699148773730627  0.23008511620020655  1.0000
  O   O6        1.0  0.76991480481988  0.23008511061001272  0.7699149633281547  1.0000
