data_image0
_chemical_formula_structural       Au2GaSe6
_chemical_formula_sum              "Au2 Ga1 Se6"
_cell_length_a       6.514332281253068
_cell_length_b       6.514332367040977
_cell_length_c       6.51433247286739
_cell_angle_alpha    60.000003213196784
_cell_angle_beta     60.00000130524316
_cell_angle_gamma    60.00000156715297

_space_group_name_H-M_alt    "P 1"
_space_group_IT_number       1

loop_
  _space_group_symop_operation_xyz
  'x, y, z'

loop_
  _atom_site_type_symbol
  _atom_site_label
  _atom_site_symmetry_multiplicity
  _atom_site_fract_x
  _atom_site_fract_y
  _atom_site_fract_z
  _atom_site_occupancy
  Au  Au1       1.0  0.24999995655664498  0.25000000014836643  0.2500000151647682  1.0000
  Au  Au2       1.0  0.7499999950911709  0.7500000230060282  0.7500000405816767  1.0000
  Ga  Ga1       1.0  0.9999999784436782  0.9999999529980671  6.647745020785849e-09  1.0000
  Se  Se1       1.0  0.2898321531989119  0.28983219901723883  0.7101678412626006  1.0000
  Se  Se2       1.0  0.710167914236258  0.7101679181410202  0.2898321310793134  1.0000
  Se  Se3       1.0  0.7101679214147967  0.28983207494358965  0.2898320705096897  1.0000
  Se  Se4       1.0  0.28983205793345573  0.710167827885853  0.7101678565502659  1.0000
  Se  Se5       1.0  0.2898321311683271  0.710167930197666  0.28983209948083277  1.0000
  Se  Se6       1.0  0.7101678905583546  0.2898320741559561  0.7101679444422563  1.0000
