data_image0
_chemical_formula_structural       Au2GaSe6
_chemical_formula_sum              "Au2 Ga1 Se6"
_cell_length_a       6.514618247427318
_cell_length_b       6.5146185340160265
_cell_length_c       6.514618347253678
_cell_angle_alpha    60.00000101308106
_cell_angle_beta     59.99999991713419
_cell_angle_gamma    60.00000186426235

_space_group_name_H-M_alt    "P 1"
_space_group_IT_number       1

loop_
  _space_group_symop_operation_xyz
  'x, y, z'

loop_
  _atom_site_type_symbol
  _atom_site_label
  _atom_site_symmetry_multiplicity
  _atom_site_fract_x
  _atom_site_fract_y
  _atom_site_fract_z
  _atom_site_occupancy
  Au  Au1       1.0  0.2500000107335052  0.24999995895416388  0.24999996793763066  1.0000
  Au  Au2       1.0  0.7500000197193976  0.7500000047021328  0.7499999366991813  1.0000
  Ga  Ga1       1.0  0.9999999799651698  2.8199920721047304e-08  0.999999992847436  1.0000
  Se  Se1       1.0  0.2898453843042498  0.2898453340356918  0.7101546008770031  1.0000
  Se  Se2       1.0  0.7101545587228372  0.7101547217403456  0.2898453689532569  1.0000
  Se  Se3       1.0  0.7101547888523454  0.28984521884660214  0.2898454025078804  1.0000
  Se  Se4       1.0  0.289845405761994  0.7101546564499434  0.7101546023789298  1.0000
  Se  Se5       1.0  0.2898452258257487  0.7101547282547128  0.2898454619460662  1.0000
  Se  Se6       1.0  0.7101546147018322  0.28984534256128147  0.7101546744147152  1.0000
