data_image0
_chemical_formula_structural       Au2GaO6
_chemical_formula_sum              "Au2 Ga1 O6"
_cell_length_a       5.284365386641053
_cell_length_b       5.284365364531875
_cell_length_c       5.284365639084214
_cell_angle_alpha    59.99999810322218
_cell_angle_beta     59.99999808721034
_cell_angle_gamma    59.99999605155437

_space_group_name_H-M_alt    "P 1"
_space_group_IT_number       1

loop_
  _space_group_symop_operation_xyz
  'x, y, z'

loop_
  _atom_site_type_symbol
  _atom_site_label
  _atom_site_symmetry_multiplicity
  _atom_site_fract_x
  _atom_site_fract_y
  _atom_site_fract_z
  _atom_site_occupancy
  Au  Au1       1.0  0.24999975100067032  0.2500000405807445  0.25000007116082995  1.0000
  Au  Au2       1.0  0.7499999378516464  0.7500001124715069  0.7500004490825769  1.0000
  Ga  Ga1       1.0  2.582776624036639e-09  0.9999999791409119  2.419002475924493e-07  1.0000
  O   O1        1.0  0.25627676329688154  0.2562766299544482  0.7437233271595426  1.0000
  O   O2        1.0  0.7437233177118683  0.7437233168245893  0.2562764510577216  1.0000
  O   O3        1.0  0.7437234810171509  0.25627679184994845  0.25627654486617446  1.0000
  O   O4        1.0  0.25627667223331657  0.7437231479760577  0.7437232499084894  1.0000
  O   O5        1.0  0.25627672503433385  0.7437233615739666  0.25627656854654923  1.0000
  O   O6        1.0  0.7437233141691729  0.2562766385116303  0.7437230998394466  1.0000
