data_image0
_chemical_formula_structural       Au2IrS6
_chemical_formula_sum              "Au2 Ir1 S6"
_cell_length_a       6.309381324420203
_cell_length_b       6.30938130409345
_cell_length_c       6.3093811187625155
_cell_angle_alpha    60.00000030221068
_cell_angle_beta     60.000000270270746
_cell_angle_gamma    59.99999942605091

_space_group_name_H-M_alt    "P 1"
_space_group_IT_number       1

loop_
  _space_group_symop_operation_xyz
  'x, y, z'

loop_
  _atom_site_type_symbol
  _atom_site_label
  _atom_site_symmetry_multiplicity
  _atom_site_fract_x
  _atom_site_fract_y
  _atom_site_fract_z
  _atom_site_occupancy
  Au  Au1       1.0  0.2500000254569623  0.2500000004354773  0.24999996534109234  1.0000
  Au  Au2       1.0  0.7500001062080917  0.7499999721891977  0.749999952721186  1.0000
  Ir  Ir1       1.0  7.771561059646054e-08  1.9411489087475582e-08  0.9999998404905444  1.0000
  S   S1        1.0  0.25964694175668895  0.2596470151774231  0.7403530473588521  1.0000
  S   S2        1.0  0.7403529739336526  0.7403529904467849  0.25964703509832643  1.0000
  S   S3        1.0  0.740352958140446  0.259646991008847  0.2596470594165208  1.0000
  S   S4        1.0  0.25964695074635025  0.7403530514971907  0.7403530175111641  1.0000
  S   S5        1.0  0.259646972697734  0.7403529973844063  0.2596470399436532  1.0000
  S   S6        1.0  0.7403529966215384  0.2596469791225677  0.7403530223329693  1.0000
