data_image0
_chemical_formula_structural       Au2NO6
_chemical_formula_sum              "Au2 N1 O6"
_cell_length_a       4.856885169003049
_cell_length_b       4.856883983984652
_cell_length_c       4.856884008803269
_cell_angle_alpha    60.00000612707593
_cell_angle_beta     60.000009094393675
_cell_angle_gamma    60.00000517155641

_space_group_name_H-M_alt    "P 1"
_space_group_IT_number       1

loop_
  _space_group_symop_operation_xyz
  'x, y, z'

loop_
  _atom_site_type_symbol
  _atom_site_label
  _atom_site_symmetry_multiplicity
  _atom_site_fract_x
  _atom_site_fract_y
  _atom_site_fract_z
  _atom_site_occupancy
  Au  Au1       1.0  0.2500009516292996  0.24999842604376613  0.25000202302566726  1.0000
  Au  Au2       1.0  0.7500012189656847  0.7499978678839317  0.7500032532137234  1.0000
  N   N1        1.0  7.468299070947685e-06  0.9999587656896244  4.398680112260123e-05  1.0000
  O   O1        1.0  0.24377087947371037  0.2437683584915549  0.756231984556185  1.0000
  O   O2        1.0  0.7562551064543623  0.7562516920700473  0.2437480067976448  1.0000
  O   O3        1.0  0.7562429688646977  0.24375438811573086  0.24376000359575406  1.0000
  O   O4        1.0  0.24375929788124345  0.7562379014031916  0.7562435701068959  1.0000
  O   O5        1.0  0.24373937145576022  0.7562581917747278  0.24374151131645003  1.0000
  O   O6        1.0  0.7562226079355633  0.2437744141651229  0.7562255141429283  1.0000
