data_image0
_chemical_formula_structural       Au2NO6
_chemical_formula_sum              "Au2 N1 O6"
_cell_length_a       4.8566938963112625
_cell_length_b       4.856693748366064
_cell_length_c       4.856693953810788
_cell_angle_alpha    59.99999918693293
_cell_angle_beta     59.99999871974784
_cell_angle_gamma    59.999999315105825

_space_group_name_H-M_alt    "P 1"
_space_group_IT_number       1

loop_
  _space_group_symop_operation_xyz
  'x, y, z'

loop_
  _atom_site_type_symbol
  _atom_site_label
  _atom_site_symmetry_multiplicity
  _atom_site_fract_x
  _atom_site_fract_y
  _atom_site_fract_z
  _atom_site_occupancy
  Au  Au1       1.0  0.2500000690852284  0.24999997084789474  0.24999995950920584  1.0000
  Au  Au2       1.0  0.7499999988228737  0.7499999957619871  0.7500000379085237  1.0000
  N   N1        1.0  0.999999759221139  0.9999999092163929  0.9999998960504239  1.0000
  O   O1        1.0  0.2437720407665338  0.2437720794219272  0.7562279179739392  1.0000
  O   O2        1.0  0.7562281764652097  0.7562282024087991  0.24377178951916068  1.0000
  O   O3        1.0  0.7562279616804649  0.24377197601570155  0.24377200956656261  1.0000
  O   O4        1.0  0.24377183986842624  0.7562281192042839  0.7562281102600823  1.0000
  O   O5        1.0  0.24377203130543687  0.7562279224235399  0.24377205873748017  1.0000
  O   O6        1.0  0.7562281538029529  0.2437717995749695  0.7562282227002692  1.0000
