data_image0
_chemical_formula_structural       Au2PS6
_chemical_formula_sum              "Au2 P1 S6"
_cell_length_a       6.455681859307914
_cell_length_b       6.455682046789052
_cell_length_c       6.455682041972254
_cell_angle_alpha    59.999998527736004
_cell_angle_beta     59.99999903438024
_cell_angle_gamma    59.99999891102639

_space_group_name_H-M_alt    "P 1"
_space_group_IT_number       1

loop_
  _space_group_symop_operation_xyz
  'x, y, z'

loop_
  _atom_site_type_symbol
  _atom_site_label
  _atom_site_symmetry_multiplicity
  _atom_site_fract_x
  _atom_site_fract_y
  _atom_site_fract_z
  _atom_site_occupancy
  Au  Au1       1.0  0.25000007422779513  0.24999992122867418  0.25000000697986574  1.0000
  Au  Au2       1.0  0.7499999771814604  0.750000006522249  0.7500000548019269  1.0000
  P   P1        1.0  9.250174181120876e-09  1.5177263520883836e-08  1.566869507643143e-08  1.0000
  S   S1        1.0  0.2380934605782421  0.2380934649609695  0.7619064846092556  1.0000
  S   S2        1.0  0.7619065520570808  0.761906557647857  0.23809339422825004  1.0000
  S   S3        1.0  0.7619065187239028  0.23809344261841123  0.23809346329500855  1.0000
  S   S4        1.0  0.23809348140943207  0.7619065477387271  0.7619065525470377  1.0000
  S   S5        1.0  0.23809345262325732  0.7619065755406462  0.2380934736442408  1.0000
  S   S6        1.0  0.7619064700366764  0.2380934755255485  0.7619065784623913  1.0000
