data_image0
_chemical_formula_structural       Au2PO6
_chemical_formula_sum              "Au2 P1 O6"
_cell_length_a       4.577518597376175
_cell_length_b       4.577518323420376
_cell_length_c       4.577517988463348
_cell_angle_alpha    59.9999996579427
_cell_angle_beta     60.00000155167203
_cell_angle_gamma    59.99999658619608

_space_group_name_H-M_alt    "P 1"
_space_group_IT_number       1

loop_
  _space_group_symop_operation_xyz
  'x, y, z'

loop_
  _atom_site_type_symbol
  _atom_site_label
  _atom_site_symmetry_multiplicity
  _atom_site_fract_x
  _atom_site_fract_y
  _atom_site_fract_z
  _atom_site_occupancy
  Au  Au1       1.0  0.24999982268473675  0.2500001234085269  0.24999986032114288  1.0000
  Au  Au2       1.0  0.749999832402861  0.7500000036731225  0.7499999556302215  1.0000
  P   P1        1.0  3.576032442437975e-06  0.9999982849625064  2.0602061876709965e-06  1.0000
  O   O1        1.0  0.2660460651517934  0.2660456220065626  0.7339544797164321  1.0000
  O   O2        1.0  0.733953186866971  0.7339528007400118  0.2660472178965387  1.0000
  O   O3        1.0  0.7339540568982394  0.2660461833887172  0.26604635112776975  1.0000
  O   O4        1.0  0.2660468322353864  0.7339532988816599  0.7339536530005923  1.0000
  O   O5        1.0  0.26604476710762687  0.7339554328977486  0.266044595501116  1.0000
  O   O6        1.0  0.7339518362996087  0.2660482794414969  0.7339518493592392  1.0000
