data_image0
_chemical_formula_structural       Au2RhO6
_chemical_formula_sum              "Au2 Rh1 O6"
_cell_length_a       5.471407574558654
_cell_length_b       5.471408240034344
_cell_length_c       5.47140797306959
_cell_angle_alpha    59.99999842043643
_cell_angle_beta     59.99999917090658
_cell_angle_gamma    60.00000099042841

_space_group_name_H-M_alt    "P 1"
_space_group_IT_number       1

loop_
  _space_group_symop_operation_xyz
  'x, y, z'

loop_
  _atom_site_type_symbol
  _atom_site_label
  _atom_site_symmetry_multiplicity
  _atom_site_fract_x
  _atom_site_fract_y
  _atom_site_fract_z
  _atom_site_occupancy
  Au  Au1       1.0  0.2499999074530481  0.24999990523467266  0.24999975494757679  1.0000
  Au  Au2       1.0  0.7499999367228254  0.7499999843174248  0.7500000669612447  1.0000
  Rh  Rh1       1.0  0.9999999676815369  7.163025992767931e-08  0.9999998304740836  1.0000
  O   O1        1.0  0.24760314731568117  0.2476030552810814  0.7523972222769012  1.0000
  O   O2        1.0  0.7523970786134013  0.7523968096480851  0.24760315396771823  1.0000
  O   O3        1.0  0.7523970954085515  0.247603065391951  0.2476029235433011  1.0000
  O   O4        1.0  0.24760322981663652  0.7523968308754685  0.7523969798108033  1.0000
  O   O5        1.0  0.2476028875141761  0.7523973714845097  0.24760300061888257  1.0000
  O   O6        1.0  0.752396704533171  0.2476029388953133  0.7523970787170697  1.0000
