data_image0
_chemical_formula_structural       Au2RuSe6
_chemical_formula_sum              "Au2 Ru1 Se6"
_cell_length_a       6.4112237796100064
_cell_length_b       6.411223996965055
_cell_length_c       6.411223975017499
_cell_angle_alpha    60.000000349410875
_cell_angle_beta     59.999999437102666
_cell_angle_gamma    60.000000529262664

_space_group_name_H-M_alt    "P 1"
_space_group_IT_number       1

loop_
  _space_group_symop_operation_xyz
  'x, y, z'

loop_
  _atom_site_type_symbol
  _atom_site_label
  _atom_site_symmetry_multiplicity
  _atom_site_fract_x
  _atom_site_fract_y
  _atom_site_fract_z
  _atom_site_occupancy
  Au  Au1       1.0  0.2500000114257823  0.24999996782325654  0.2500000307688553  1.0000
  Au  Au2       1.0  0.7499999955810438  0.7499999493172967  0.7500000169817835  1.0000
  Ru  Ru1       1.0  0.999999983262932  0.9999999961793729  5.7071784562063344e-08  1.0000
  Se  Se1       1.0  0.27639963563815584  0.2763996545251405  0.7236003118859269  1.0000
  Se  Se2       1.0  0.7236003295415304  0.7236004097095626  0.27639957872698107  1.0000
  Se  Se3       1.0  0.7236003616442239  0.2763996441815677  0.2763996499728947  1.0000
  Se  Se4       1.0  0.2763996981739109  0.7236003684746672  0.7236003158154264  1.0000
  Se  Se5       1.0  0.276399643338529  0.7236003756712052  0.2763996364349301  1.0000
  Se  Se6       1.0  0.7236003438003926  0.27639963889534336  0.7236003943733674  1.0000
