data_image0
_chemical_formula_structural       Au2RhS6
_chemical_formula_sum              "Au2 Rh1 S6"
_cell_length_a       6.294087121476091
_cell_length_b       6.294087163384715
_cell_length_c       6.294087227894316
_cell_angle_alpha    60.00000022675512
_cell_angle_beta     60.00000007125944
_cell_angle_gamma    59.99999969147965

_space_group_name_H-M_alt    "P 1"
_space_group_IT_number       1

loop_
  _space_group_symop_operation_xyz
  'x, y, z'

loop_
  _atom_site_type_symbol
  _atom_site_label
  _atom_site_symmetry_multiplicity
  _atom_site_fract_x
  _atom_site_fract_y
  _atom_site_fract_z
  _atom_site_occupancy
  Au  Au1       1.0  0.250000013246855  0.24999996664391186  0.2500000148654462  1.0000
  Au  Au2       1.0  0.7500000122949654  0.7499999602535741  0.7499999932047791  1.0000
  Rh  Rh1       1.0  0.9999999881022335  4.670077842935045e-08  1.4374348687680212e-08  1.0000
  S   S1        1.0  0.26018691822489354  0.2601869397246021  0.7398130562355523  1.0000
  S   S2        1.0  0.739813075553546  0.7398130494405882  0.26018693658251135  1.0000
  S   S3        1.0  0.7398130571505547  0.2601869358005544  0.2601869227631484  1.0000
  S   S4        1.0  0.26018693746089117  0.7398131059030114  0.7398130386028463  1.0000
  S   S5        1.0  0.2601869400433751  0.7398130669980502  0.26018693295996004  1.0000
  S   S6        1.0  0.7398130546984506  0.2601869357882007  0.7398130922856985  1.0000
