data_image0
_chemical_formula_structural       Au2SbS6
_chemical_formula_sum              "Au2 Sb1 S6"
_cell_length_a       6.588199913465493
_cell_length_b       6.588199721313967
_cell_length_c       6.58819973481207
_cell_angle_alpha    60.00000254442705
_cell_angle_beta     60.00000067603646
_cell_angle_gamma    60.00000391069899

_space_group_name_H-M_alt    "P 1"
_space_group_IT_number       1

loop_
  _space_group_symop_operation_xyz
  'x, y, z'

loop_
  _atom_site_type_symbol
  _atom_site_label
  _atom_site_symmetry_multiplicity
  _atom_site_fract_x
  _atom_site_fract_y
  _atom_site_fract_z
  _atom_site_occupancy
  Au  Au1       1.0  0.2500001812452291  0.24999989645267434  0.24999993722322325  1.0000
  Au  Au2       1.0  0.7499999621102101  0.7499997674359131  0.7500002486230367  1.0000
  Sb  Sb1       1.0  9.826576400947464e-09  0.999999944230068  2.0369666625450975e-10  1.0000
  S   S1        1.0  0.26248090542319347  0.2624809829994609  0.737519058283841  1.0000
  S   S2        1.0  0.7375190733502491  0.7375191010226024  0.2624808707681347  1.0000
  S   S3        1.0  0.7375189668609704  0.2624810830581364  0.26248084207916544  1.0000
  S   S4        1.0  0.2624809070857522  0.7375191366707537  0.7375189652821862  1.0000
  S   S5        1.0  0.2624810394950017  0.7375190738730347  0.26248092374099147  1.0000
  S   S6        1.0  0.7375189589649475  0.2624810194440226  0.7375191456424982  1.0000
