data_image0
_chemical_formula_structural       Au2SbO6
_chemical_formula_sum              "Au2 Sb1 O6"
_cell_length_a       5.432199604690667
_cell_length_b       5.432199845104018
_cell_length_c       5.432199031537747
_cell_angle_alpha    60.000001539721374
_cell_angle_beta     60.0000025669536
_cell_angle_gamma    60.00000136504437

_space_group_name_H-M_alt    "P 1"
_space_group_IT_number       1

loop_
  _space_group_symop_operation_xyz
  'x, y, z'

loop_
  _atom_site_type_symbol
  _atom_site_label
  _atom_site_symmetry_multiplicity
  _atom_site_fract_x
  _atom_site_fract_y
  _atom_site_fract_z
  _atom_site_occupancy
  Au  Au1       1.0  0.24999974466866737  0.25000020407499784  0.2500000973688834  1.0000
  Au  Au2       1.0  0.7499999217879175  0.7499998434057171  0.7500002921260935  1.0000
  Sb  Sb1       1.0  7.590114020010665e-08  0.9999999954907969  0.9999999256456537  1.0000
  O   O1        1.0  0.25945354686412675  0.25945348898809373  0.7405464475128342  1.0000
  O   O2        1.0  0.7405465401746435  0.7405464254711138  0.25945346500340877  1.0000
  O   O3        1.0  0.7405465714993988  0.25945355976393303  0.2594533604316923  1.0000
  O   O4        1.0  0.259453432656991  0.7405465395726343  0.7405465802446868  1.0000
  O   O5        1.0  0.2594535994563885  0.7405464798598778  0.2594532779401552  1.0000
  O   O6        1.0  0.7405465960756983  0.25945350449199217  0.7405464883159674  1.0000
