data_image0
_chemical_formula_structural       Au2TaO6
_chemical_formula_sum              "Au2 Ta1 O6"
_cell_length_a       5.404279753574278
_cell_length_b       5.4042796558422435
_cell_length_c       5.404279890689268
_cell_angle_alpha    59.99999940840287
_cell_angle_beta     59.999998007666065
_cell_angle_gamma    59.99999834342552

_space_group_name_H-M_alt    "P 1"
_space_group_IT_number       1

loop_
  _space_group_symop_operation_xyz
  'x, y, z'

loop_
  _atom_site_type_symbol
  _atom_site_label
  _atom_site_symmetry_multiplicity
  _atom_site_fract_x
  _atom_site_fract_y
  _atom_site_fract_z
  _atom_site_occupancy
  Au  Au1       1.0  0.25000030813962587  0.24999954368323524  0.25000023720358505  1.0000
  Au  Au2       1.0  0.7499998003004391  0.7500003624647181  0.750000060090055  1.0000
  Ta  Ta1       1.0  0.999999938274391  2.4928751116301317e-08  5.355575006464312e-08  1.0000
  O   O1        1.0  0.25981283099373137  0.2598127553245191  0.7401871820552405  1.0000
  O   O2        1.0  0.7401870605197775  0.7401873593184308  0.25981267536171365  1.0000
  O   O3        1.0  0.7401872003667109  0.25981255763655076  0.259812867039246  1.0000
  O   O4        1.0  0.25981279716053496  0.7401874504926478  0.7401869776750168  1.0000
  O   O5        1.0  0.2598128405019574  0.7401872987531041  0.2598126688673344  1.0000
  O   O6        1.0  0.7401872273196972  0.2598126459210946  0.740187257544946  1.0000
