data_image0
_chemical_formula_structural       Au2TaSe6
_chemical_formula_sum              "Au2 Ta1 Se6"
_cell_length_a       6.522174512201257
_cell_length_b       6.5221744556053025
_cell_length_c       6.52217467382759
_cell_angle_alpha    59.99999918441262
_cell_angle_beta     59.99999839636579
_cell_angle_gamma    59.99999885429041

_space_group_name_H-M_alt    "P 1"
_space_group_IT_number       1

loop_
  _space_group_symop_operation_xyz
  'x, y, z'

loop_
  _atom_site_type_symbol
  _atom_site_label
  _atom_site_symmetry_multiplicity
  _atom_site_fract_x
  _atom_site_fract_y
  _atom_site_fract_z
  _atom_site_occupancy
  Au  Au1       1.0  0.24999999810256207  0.2500000260351604  0.24999998747348293  1.0000
  Au  Au2       1.0  0.7499999831144897  0.7499999842146408  0.7499999888975414  1.0000
  Ta  Ta1       1.0  0.9999999907367363  0.9999999906109158  0.9999999817280171  1.0000
  Se  Se1       1.0  0.27421381100464376  0.27421374824975703  0.7257862218314041  1.0000
  Se  Se2       1.0  0.7257862644928116  0.7257862075433565  0.2742137514933017  1.0000
  Se  Se3       1.0  0.7257861612464814  0.2742138014955157  0.27421377223418286  1.0000
  Se  Se4       1.0  0.2742137649616472  0.725786246310622  0.7257862281954442  1.0000
  Se  Se5       1.0  0.27421381739860257  0.7257862059259329  0.27421380694119074  1.0000
  Se  Se6       1.0  0.7257862071493193  0.2742137911791513  0.7257862570632293  1.0000
