data_image0
_chemical_formula_structural       Au2YO6
_chemical_formula_sum              "Au2 Y1 O6"
_cell_length_a       5.669822318538907
_cell_length_b       5.6698221296902975
_cell_length_c       5.669821948682883
_cell_angle_alpha    60.0000001035773
_cell_angle_beta     60.000000949780706
_cell_angle_gamma    59.99999947826239

_space_group_name_H-M_alt    "P 1"
_space_group_IT_number       1

loop_
  _space_group_symop_operation_xyz
  'x, y, z'

loop_
  _atom_site_type_symbol
  _atom_site_label
  _atom_site_symmetry_multiplicity
  _atom_site_fract_x
  _atom_site_fract_y
  _atom_site_fract_z
  _atom_site_occupancy
  Au  Au1       1.0  0.25000001919601306  0.2500000287284601  0.24999998706343687  1.0000
  Au  Au2       1.0  0.7499995959461246  0.7499999803399094  0.7500004724543806  1.0000
  Y   Y1        1.0  0.9999999703761325  5.832301480912215e-08  0.9999999062828545  1.0000
  O   O1        1.0  0.2808225188269511  0.2808224122735194  0.7191775406789953  1.0000
  O   O2        1.0  0.7191775951731566  0.7191775665532882  0.2808223423681936  1.0000
  O   O3        1.0  0.7191775872797614  0.2808225164258699  0.2808222793207333  1.0000
  O   O4        1.0  0.28082249063733866  0.7191775034430586  0.7191776594497846  1.0000
  O   O5        1.0  0.2808225900194597  0.7191775817790265  0.28082223201130335  1.0000
  O   O6        1.0  0.7191776428430979  0.2808223581657718  0.7191775651888453  1.0000
