data_image0
_chemical_formula_structural       Au2YS6
_chemical_formula_sum              "Au2 Y1 S6"
_cell_length_a       6.728524384911126
_cell_length_b       6.728524159643226
_cell_length_c       6.7285243141622875
_cell_angle_alpha    60.00000053746241
_cell_angle_beta     59.99999878986956
_cell_angle_gamma    60.00000030512245

_space_group_name_H-M_alt    "P 1"
_space_group_IT_number       1

loop_
  _space_group_symop_operation_xyz
  'x, y, z'

loop_
  _atom_site_type_symbol
  _atom_site_label
  _atom_site_symmetry_multiplicity
  _atom_site_fract_x
  _atom_site_fract_y
  _atom_site_fract_z
  _atom_site_occupancy
  Au  Au1       1.0  0.24999999424278688  0.2500001342070915  0.24999996246784975  1.0000
  Au  Au2       1.0  0.7500000465465713  0.7499998456314806  0.7500000789995656  1.0000
  Y   Y1        1.0  1.7872117386730406e-08  0.9999999927190882  1.6997546612255494e-08  1.0000
  S   S1        1.0  0.28287833943654184  0.2828784914542986  0.7171217602373613  1.0000
  S   S2        1.0  0.717121538252324  0.7171214319572052  0.28287858122871334  1.0000
  S   S3        1.0  0.7171213731565543  0.28287864742091706  0.2828783113008353  1.0000
  S   S4        1.0  0.28287842521844797  0.717121745609421  0.7171213207841058  1.0000
  S   S5        1.0  0.2828786436612051  0.7171214144872425  0.28287839105773877  1.0000
  S   S6        1.0  0.7171216259323961  0.2828782959575734  0.7171215874766688  1.0000
