data_image0
_chemical_formula_structural       Au2YSe6
_chemical_formula_sum              "Au2 Y1 Se6"
_cell_length_a       6.930071943318486
_cell_length_b       6.930071268330685
_cell_length_c       6.930072668116278
_cell_angle_alpha    59.99999955812015
_cell_angle_beta     60.00000030825481
_cell_angle_gamma    59.99999757524412

_space_group_name_H-M_alt    "P 1"
_space_group_IT_number       1

loop_
  _space_group_symop_operation_xyz
  'x, y, z'

loop_
  _atom_site_type_symbol
  _atom_site_label
  _atom_site_symmetry_multiplicity
  _atom_site_fract_x
  _atom_site_fract_y
  _atom_site_fract_z
  _atom_site_occupancy
  Au  Au1       1.0  0.2500000593619036  0.24999999536424608  0.24999988995074088  1.0000
  Au  Au2       1.0  0.7500000001210353  0.7499999401432069  0.7500001324549925  1.0000
  Y   Y1        1.0  0.9999997931839306  1.8556549852007075e-07  0.9999999557918084  1.0000
  Se  Se1       1.0  0.2937158938415273  0.2937161323169536  0.7062842720309361  1.0000
  Se  Se2       1.0  0.7062843809817637  0.7062841319065308  0.29371555771087426  1.0000
  Se  Se3       1.0  0.7062839262638995  0.29371628730927124  0.2937154816047147  1.0000
  Se  Se4       1.0  0.29371566923077264  0.7062839804487787  0.706284323844539  1.0000
  Se  Se5       1.0  0.293716209928584  0.7062837609703662  0.2937157174299079  1.0000
  Se  Se6       1.0  0.7062840661051628  0.29371559486581894  0.706284669795296  1.0000
