data_image0
_chemical_formula_structural       B2CO6
_chemical_formula_sum              "B2 C1 O6"
_cell_length_a       4.884246313819325
_cell_length_b       4.884247100597358
_cell_length_c       4.884238334069805
_cell_angle_alpha    60.00011052431395
_cell_angle_beta     60.0000429302999
_cell_angle_gamma    60.000208662176206

_space_group_name_H-M_alt    "P 1"
_space_group_IT_number       1

loop_
  _space_group_symop_operation_xyz
  'x, y, z'

loop_
  _atom_site_type_symbol
  _atom_site_label
  _atom_site_symmetry_multiplicity
  _atom_site_fract_x
  _atom_site_fract_y
  _atom_site_fract_z
  _atom_site_occupancy
  B   B1        1.0  0.2500293597424131  0.24980042825463647  0.2501163886763335  1.0000
  B   B2        1.0  0.7501157122918759  0.7500078327716285  0.750024705077286  1.0000
  C   C1        1.0  0.999990470604829  1.233956609451575e-05  0.9999909314939122  1.0000
  O   O1        1.0  0.21504416364166376  0.2150523442999218  0.7849347185533916  1.0000
  O   O2        1.0  0.784895691162649  0.7850151980559417  0.2150147669419535  1.0000
  O   O3        1.0  0.7849490848403543  0.2150804970709134  0.2150160685541532  1.0000
  O   O4        1.0  0.215001261882796  0.7849884144142356  0.7849232441995516  1.0000
  O   O5        1.0  0.21500359706925828  0.7850007356501199  0.21506613192616436  1.0000
  O   O6        1.0  0.7849713009596522  0.21504164365758482  0.7849138867577062  1.0000
