data_image0
_chemical_formula_structural       B2CS6
_chemical_formula_sum              "B2 C1 S6"
_cell_length_a       3.9399380533675306
_cell_length_b       3.413329207202119
_cell_length_c       4.044543345574316
_cell_angle_alpha    55.666949215929165
_cell_angle_beta     66.73628055086984
_cell_angle_gamma    66.33705454674491

_space_group_name_H-M_alt    "P 1"
_space_group_IT_number       1

loop_
  _space_group_symop_operation_xyz
  'x, y, z'

loop_
  _atom_site_type_symbol
  _atom_site_label
  _atom_site_symmetry_multiplicity
  _atom_site_fract_x
  _atom_site_fract_y
  _atom_site_fract_z
  _atom_site_occupancy
  B   B1        1.0  0.014375173610984554  0.39386459747360947  0.18088586457269476  1.0000
  B   B2        1.0  0.9011550252563642  0.8989601757230111  0.012075695480983084  1.0000
  C   C1        1.0  0.5413680441866285  0.6914837202966322  0.9669303275222902  1.0000
  S   S1        1.0  0.14761309546419923  0.1403429717199915  0.4406722259485402  1.0000
  S   S2        1.0  0.5828800564132579  0.8903675107494936  0.7487383319657639  1.0000
  S   S3        1.0  0.47917223302332385  0.27133151869823413  0.03642211167613918  1.0000
  S   S4        1.0  0.27446524051647836  0.5814503022413663  0.6365614876863128  1.0000
  S   S5        1.0  0.13308618434489922  0.8250588236091996  0.21112487889905313  1.0000
  S   S6        1.0  0.9241549381753503  0.3005505239668903  0.7652181489897931  1.0000
