data_image0
_chemical_formula_structural       B2NO6
_chemical_formula_sum              "B2 N1 O6"
_cell_length_a       9.967668020865608
_cell_length_b       12.649002564308816
_cell_length_c       13.354567473579326
_cell_angle_alpha    20.62423799002277
_cell_angle_beta     39.991083754014255
_cell_angle_gamma    40.658297726815306

_space_group_name_H-M_alt    "P 1"
_space_group_IT_number       1

loop_
  _space_group_symop_operation_xyz
  'x, y, z'

loop_
  _atom_site_type_symbol
  _atom_site_label
  _atom_site_symmetry_multiplicity
  _atom_site_fract_x
  _atom_site_fract_y
  _atom_site_fract_z
  _atom_site_occupancy
  B   B1        1.0  0.04615750557843683  0.2742120126684017  0.5177354468279385  1.0000
  B   B2        1.0  0.0021797951756865608  0.8460609873280834  0.01007940829327758  1.0000
  N   N1        1.0  0.08017991786129403  0.0009898222979638806  0.9846959178866805  1.0000
  O   O1        1.0  0.14174205187971553  0.06304449144011691  0.7188362127436305  1.0000
  O   O2        1.0  0.8968794135162976  0.9304205142604415  0.09352435204421965  1.0000
  O   O3        1.0  0.04402610442194499  0.24352983562972244  0.8271904288902074  1.0000
  O   O4        1.0  0.824693976209361  0.9124884943550177  0.972394364679195  1.0000
  O   O5        1.0  0.11091359540910613  0.5302121421223135  0.22323815965282862  1.0000
  O   O6        1.0  0.8532230669618894  0.19904037847077458  0.6523141390967454  1.0000
