data_image0
_chemical_formula_structural       Ba2AsSe6
_chemical_formula_sum              "Ba2 As1 Se6"
_cell_length_a       7.012131854002072
_cell_length_b       7.012131860071653
_cell_length_c       7.0121320039193895
_cell_angle_alpha    59.99999993527626
_cell_angle_beta     60.000000237026356
_cell_angle_gamma    60.00000107648884

_space_group_name_H-M_alt    "P 1"
_space_group_IT_number       1

loop_
  _space_group_symop_operation_xyz
  'x, y, z'

loop_
  _atom_site_type_symbol
  _atom_site_label
  _atom_site_symmetry_multiplicity
  _atom_site_fract_x
  _atom_site_fract_y
  _atom_site_fract_z
  _atom_site_occupancy
  Ba  Ba1       1.0  0.24999999687683752  0.2499999913109449  0.25000003281424277  1.0000
  Ba  Ba2       1.0  0.7500000018407308  0.750000019344654  0.7499999788613232  1.0000
  As  As1       1.0  5.237817803501573e-08  4.5411821416585556e-08  3.6324784106541813e-07  1.0000
  Se  Se1       1.0  0.2598729256436162  0.2598728754753493  0.7401271304637385  1.0000
  Se  Se2       1.0  0.7401270310755379  0.7401270635693032  0.25987297509510165  1.0000
  Se  Se3       1.0  0.7401271989679715  0.2598727983143733  0.2598728278418666  1.0000
  Se  Se4       1.0  0.2598731059280329  0.7401269014449264  0.740126926642469  1.0000
  Se  Se5       1.0  0.2598728060026833  0.74012718975341  0.2598728017360636  1.0000
  Se  Se6       1.0  0.7401268879006301  0.2598731178256188  0.7401269329432548  1.0000
