data_image0
_chemical_formula_structural       Ba2AsS6
_chemical_formula_sum              "Ba2 As1 S6"
_cell_length_a       6.846981425477965
_cell_length_b       6.846981632462498
_cell_length_c       6.846981691991027
_cell_angle_alpha    60.000000312269755
_cell_angle_beta     59.99999956601845
_cell_angle_gamma    60.00000061233089

_space_group_name_H-M_alt    "P 1"
_space_group_IT_number       1

loop_
  _space_group_symop_operation_xyz
  'x, y, z'

loop_
  _atom_site_type_symbol
  _atom_site_label
  _atom_site_symmetry_multiplicity
  _atom_site_fract_x
  _atom_site_fract_y
  _atom_site_fract_z
  _atom_site_occupancy
  Ba  Ba1       1.0  0.24999998217305797  0.25000000288977425  0.25000002248360287  1.0000
  Ba  Ba2       1.0  0.74999999631145  0.7500000211904805  0.7499999442827464  1.0000
  As  As1       1.0  2.2911578168235776e-08  7.154947532616428e-09  0.9999999776642495  1.0000
  S   S1        1.0  0.24818558555751405  0.24818561730171476  0.7518143893218698  1.0000
  S   S2        1.0  0.7518143568483668  0.7518143531164336  0.2481856529852942  1.0000
  S   S3        1.0  0.7518144008196492  0.24818559867705753  0.2481855791476471  1.0000
  S   S4        1.0  0.2481855914632567  0.7518144093045656  0.751814428202253  1.0000
  S   S5        1.0  0.24818566801687728  0.7518143538421607  0.24818567069598832  1.0000
  S   S6        1.0  0.7518143417266482  0.24818565235072543  0.7518143448834435  1.0000
