data_image0
_chemical_formula_structural       Ba2BiSe6
_chemical_formula_sum              "Ba2 Bi1 Se6"
_cell_length_a       7.241016637449343
_cell_length_b       7.241016545135632
_cell_length_c       7.241016648720051
_cell_angle_alpha    60.00000035019198
_cell_angle_beta     59.99999979053373
_cell_angle_gamma    59.99999939159066

_space_group_name_H-M_alt    "P 1"
_space_group_IT_number       1

loop_
  _space_group_symop_operation_xyz
  'x, y, z'

loop_
  _atom_site_type_symbol
  _atom_site_label
  _atom_site_symmetry_multiplicity
  _atom_site_fract_x
  _atom_site_fract_y
  _atom_site_fract_z
  _atom_site_occupancy
  Ba  Ba1       1.0  0.249999975051769  0.2500000789144414  0.24999997781507338  1.0000
  Ba  Ba2       1.0  0.7499999904925335  0.7499999881076593  0.750000008522179  1.0000
  Bi  Bi1       1.0  3.026546663015785e-08  5.7507567896924987e-08  0.9999998994915997  1.0000
  Se  Se1       1.0  0.27833870884891  0.2783387834729332  0.721661274749901  1.0000
  Se  Se2       1.0  0.7216613761986347  0.7216612886233642  0.2783386562037397  1.0000
  Se  Se3       1.0  0.7216612550153024  0.2783386550969855  0.278338750641944  1.0000
  Se  Se4       1.0  0.2783386774141905  0.7216612529336022  0.7216613248433611  1.0000
  Se  Se5       1.0  0.27833871700548984  0.7216612654448318  0.27833873157117617  1.0000
  Se  Se6       1.0  0.7216612624265917  0.2783386307459627  0.7216613774305283  1.0000
