data_image0
_chemical_formula_structural       Ba2BS6
_chemical_formula_sum              "Ba2 B1 S6"
_cell_length_a       6.638492883993943
_cell_length_b       6.638493905255546
_cell_length_c       6.638493358856363
_cell_angle_alpha    60.00000378704273
_cell_angle_beta     60.00000008777603
_cell_angle_gamma    59.999999392128494

_space_group_name_H-M_alt    "P 1"
_space_group_IT_number       1

loop_
  _space_group_symop_operation_xyz
  'x, y, z'

loop_
  _atom_site_type_symbol
  _atom_site_label
  _atom_site_symmetry_multiplicity
  _atom_site_fract_x
  _atom_site_fract_y
  _atom_site_fract_z
  _atom_site_occupancy
  Ba  Ba1       1.0  0.2499999446445056  0.2500000456842284  0.25000001006288336  1.0000
  Ba  Ba2       1.0  0.7499998385548529  0.7500001075340661  0.7500000335990962  1.0000
  B   B1        1.0  0.9999999926384461  0.999999990775432  0.9999999841912064  1.0000
  S   S1        1.0  0.2175894305463327  0.217589561160055  0.7824104498501306  1.0000
  S   S2        1.0  0.782410669380844  0.7824106750793364  0.21758930958090744  1.0000
  S   S3        1.0  0.7824107022941679  0.21758923647294673  0.21758926215396007  1.0000
  S   S4        1.0  0.2175893544707099  0.7824106178693164  0.7824106751603722  1.0000
  S   S5        1.0  0.2175893280637106  0.7824105664794894  0.21758942294492972  1.0000
  S   S6        1.0  0.7824107175804855  0.2175892325153649  0.7824108308002355  1.0000
