data_image0
_chemical_formula_structural       Ba2BiTe6
_chemical_formula_sum              "Ba2 Bi1 Te6"
_cell_length_a       7.761673181956282
_cell_length_b       7.761673082927447
_cell_length_c       7.76167296506863
_cell_angle_alpha    60.00000138265305
_cell_angle_beta     60.00000026948693
_cell_angle_gamma    59.999999652114425

_space_group_name_H-M_alt    "P 1"
_space_group_IT_number       1

loop_
  _space_group_symop_operation_xyz
  'x, y, z'

loop_
  _atom_site_type_symbol
  _atom_site_label
  _atom_site_symmetry_multiplicity
  _atom_site_fract_x
  _atom_site_fract_y
  _atom_site_fract_z
  _atom_site_occupancy
  Ba  Ba1       1.0  0.2500000083009736  0.24999999583726176  0.24999998256978412  1.0000
  Ba  Ba2       1.0  0.7499999795810748  0.7499999717323939  0.7500000181998143  1.0000
  Bi  Bi1       1.0  2.344214950095129e-08  1.8935271976971508e-08  7.801670586937691e-08  1.0000
  Te  Te1       1.0  0.2766445986733793  0.27664457742039444  0.7233554156366315  1.0000
  Te  Te2       1.0  0.7233554207802803  0.7233554248639247  0.2766445854877625  1.0000
  Te  Te3       1.0  0.7233554559862335  0.27664453865845046  0.2766445912384163  1.0000
  Te  Te4       1.0  0.27664465629245466  0.7233553547480595  0.7233554076053106  1.0000
  Te  Te5       1.0  0.2766445465550645  0.7233554785755504  0.27664453221986335  1.0000
  Te  Te6       1.0  0.7233553099713967  0.2766446420542127  0.7233553791061725  1.0000
