data_image0
_chemical_formula_structural       Ba2BO6
_chemical_formula_sum              "Ba2 B1 O6"
_cell_length_a       5.762002293093929
_cell_length_b       5.762003296201941
_cell_length_c       5.7620051705107596
_cell_angle_alpha    59.99998725715653
_cell_angle_beta     59.999992379148495
_cell_angle_gamma    59.99999598069098

_space_group_name_H-M_alt    "P 1"
_space_group_IT_number       1

loop_
  _space_group_symop_operation_xyz
  'x, y, z'

loop_
  _atom_site_type_symbol
  _atom_site_label
  _atom_site_symmetry_multiplicity
  _atom_site_fract_x
  _atom_site_fract_y
  _atom_site_fract_z
  _atom_site_occupancy
  Ba  Ba1       1.0  0.24999980566911206  0.24999982145347063  0.25000015867692205  1.0000
  Ba  Ba2       1.0  0.7500000386405591  0.750000004251162  0.750000096587619  1.0000
  B   B1        1.0  0.9999994168764034  1.3816105702929046e-07  0.9999994796842553  1.0000
  O   O1        1.0  0.20599671610926076  0.2059967260203445  0.7940033763889063  1.0000
  O   O2        1.0  0.7940034704385047  0.7940030529220949  0.20599681270653447  1.0000
  O   O3        1.0  0.7940030759263074  0.20599708967911273  0.20599686782619675  1.0000
  O   O4        1.0  0.20599676843524545  0.7940032589118334  0.7940032925779058  1.0000
  O   O5        1.0  0.20599712713755067  0.7940029985713931  0.20599685330560139  1.0000
  O   O6        1.0  0.7940033536949153  0.20599669109777152  0.7940032801428353  1.0000
