data_image0
_chemical_formula_structural       Ba2BSe6
_chemical_formula_sum              "Ba2 B1 Se6"
_cell_length_a       6.796502109445072
_cell_length_b       6.796501565701386
_cell_length_c       6.796501923293032
_cell_angle_alpha    60.00000021116926
_cell_angle_beta     59.999997389586866
_cell_angle_gamma    59.99999746297496

_space_group_name_H-M_alt    "P 1"
_space_group_IT_number       1

loop_
  _space_group_symop_operation_xyz
  'x, y, z'

loop_
  _atom_site_type_symbol
  _atom_site_label
  _atom_site_symmetry_multiplicity
  _atom_site_fract_x
  _atom_site_fract_y
  _atom_site_fract_z
  _atom_site_occupancy
  Ba  Ba1       1.0  0.249999982780163  0.25000000221817836  0.2499999984166637  1.0000
  Ba  Ba2       1.0  0.7500000255652484  0.7500000553091445  0.750000005877562  1.0000
  B   B1        1.0  0.9999999476236432  1.4416179767972769e-08  0.9999999954385681  1.0000
  Se  Se1       1.0  0.2273311468516782  0.227331063527049  0.77266889310902  1.0000
  Se  Se2       1.0  0.7726689521924982  0.772668900295101  0.22733107590477727  1.0000
  Se  Se3       1.0  0.7726688200056345  0.2273311132773512  0.2273310999895606  1.0000
  Se  Se4       1.0  0.22733109731719453  0.7726689064074971  0.7726688907559035  1.0000
  Se  Se5       1.0  0.22733113816242148  0.7726688979081766  0.22733108878796046  1.0000
  Se  Se6       1.0  0.7726689384006791  0.22733105690386235  0.7726689283410236  1.0000
