data_image0
_chemical_formula_structural       Ba2BiS6
_chemical_formula_sum              "Ba2 Bi1 S6"
_cell_length_a       6.951298103700549
_cell_length_b       6.951297733091125
_cell_length_c       6.951297834744765
_cell_angle_alpha    60.000001173222806
_cell_angle_beta     60.00000029326842
_cell_angle_gamma    59.999998747821074

_space_group_name_H-M_alt    "P 1"
_space_group_IT_number       1

loop_
  _space_group_symop_operation_xyz
  'x, y, z'

loop_
  _atom_site_type_symbol
  _atom_site_label
  _atom_site_symmetry_multiplicity
  _atom_site_fract_x
  _atom_site_fract_y
  _atom_site_fract_z
  _atom_site_occupancy
  Ba  Ba1       1.0  0.25000002672824384  0.25000003104257684  0.2500000116007792  1.0000
  Ba  Ba2       1.0  0.7500000022642861  0.7499999979854611  0.7500000004929509  1.0000
  Bi  Bi1       1.0  2.869204503277437e-07  1.1099931346653453e-07  3.879937128154119e-09  1.0000
  S   S1        1.0  0.2560615471350926  0.25606150147803985  0.7439384691151855  1.0000
  S   S2        1.0  0.7439383212030773  0.7439382121709995  0.2560616716631197  1.0000
  S   S3        1.0  0.7439384254315222  0.25606160318468035  0.2560615872334812  1.0000
  S   S4        1.0  0.25606161351346596  0.7439382813680621  0.743938482051604  1.0000
  S   S5        1.0  0.2560615191154549  0.7439384694789493  0.2560615134139107  1.0000
  S   S6        1.0  0.7439382568613324  0.25606179035718024  0.7439382925580271  1.0000
