data_image0
_chemical_formula_structural       Ba2BTe6
_chemical_formula_sum              "Ba2 B1 Te6"
_cell_length_a       7.434539889781624
_cell_length_b       7.434539478500588
_cell_length_c       7.43454030112383
_cell_angle_alpha    60.000000262452005
_cell_angle_beta     59.99999682977788
_cell_angle_gamma    60.000002996501145

_space_group_name_H-M_alt    "P 1"
_space_group_IT_number       1

loop_
  _space_group_symop_operation_xyz
  'x, y, z'

loop_
  _atom_site_type_symbol
  _atom_site_label
  _atom_site_symmetry_multiplicity
  _atom_site_fract_x
  _atom_site_fract_y
  _atom_site_fract_z
  _atom_site_occupancy
  Ba  Ba1       1.0  0.24999999739939416  0.2500000318649856  0.2500000897073562  1.0000
  Ba  Ba2       1.0  0.7499998458084409  0.7500001433687046  0.7499999418096068  1.0000
  B   B1        1.0  1.4030088920855717e-07  5.436328634588004e-08  3.008095432488904e-07  1.0000
  Te  Te1       1.0  0.2249186980164793  0.22491839752352627  0.7750814336027435  1.0000
  Te  Te2       1.0  0.7750813465581399  0.7750814531779844  0.22491861241934802  1.0000
  Te  Te3       1.0  0.7750815459311631  0.22491849313880016  0.2249183900677375  1.0000
  Te  Te4       1.0  0.2249186340830668  0.7750812867257332  0.7750814407230953  1.0000
  Te  Te5       1.0  0.2249184983964095  0.7750815576493284  0.22491845053876916  1.0000
  Te  Te6       1.0  0.7750813041952056  0.22491854839474357  0.7750813749369343  1.0000
