data_image0
_chemical_formula_structural       Ba2BiO6
_chemical_formula_sum              "Ba2 Bi1 O6"
_cell_length_a       6.097563230051998
_cell_length_b       6.097563043818333
_cell_length_c       6.097562861123008
_cell_angle_alpha    60.00000107087931
_cell_angle_beta     60.00000035734285
_cell_angle_gamma    59.9999989772261

_space_group_name_H-M_alt    "P 1"
_space_group_IT_number       1

loop_
  _space_group_symop_operation_xyz
  'x, y, z'

loop_
  _atom_site_type_symbol
  _atom_site_label
  _atom_site_symmetry_multiplicity
  _atom_site_fract_x
  _atom_site_fract_y
  _atom_site_fract_z
  _atom_site_occupancy
  Ba  Ba1       1.0  0.24999999634492004  0.25000003879273813  0.24999995642339015  1.0000
  Ba  Ba2       1.0  0.7500000153957654  0.7499999918461993  0.7500000675956288  1.0000
  Bi  Bi1       1.0  0.9999999870098226  1.1850627305593607e-07  0.9999999144419626  1.0000
  O   O1        1.0  0.24714726380496568  0.24714728104574973  0.7528527392284907  1.0000
  O   O2        1.0  0.7528526876062236  0.7528526692499521  0.2471473190469062  1.0000
  O   O3        1.0  0.752852693851956  0.2471473291081883  0.24714726155832759  1.0000
  O   O4        1.0  0.24714728345736584  0.752852719607977  0.7528526607577938  1.0000
  O   O5        1.0  0.24714731568423157  0.7528526537430019  0.24714732935316633  1.0000
  O   O6        1.0  0.7528527406850174  0.2471472543724997  0.7528526958932998  1.0000
