data_image0
_chemical_formula_structural       Ba2GaS6
_chemical_formula_sum              "Ba2 Ga1 S6"
_cell_length_a       6.691663002878852
_cell_length_b       6.691663021605284
_cell_length_c       6.691662470302373
_cell_angle_alpha    60.000002760303914
_cell_angle_beta     60.00000162747718
_cell_angle_gamma    60.0000015449116

_space_group_name_H-M_alt    "P 1"
_space_group_IT_number       1

loop_
  _space_group_symop_operation_xyz
  'x, y, z'

loop_
  _atom_site_type_symbol
  _atom_site_label
  _atom_site_symmetry_multiplicity
  _atom_site_fract_x
  _atom_site_fract_y
  _atom_site_fract_z
  _atom_site_occupancy
  Ba  Ba1       1.0  0.24999999265844322  0.2500000265384467  0.2500000057312759  1.0000
  Ba  Ba2       1.0  0.7500000181183031  0.7499999954236191  0.7499999719703383  1.0000
  Ga  Ga1       1.0  1.7437345565087563e-07  0.9999998444283421  5.635256567085617e-08  1.0000
  S   S1        1.0  0.2503468747694921  0.2503467319717717  0.7496531633660509  1.0000
  S   S2        1.0  0.7496531196067981  0.749653214949847  0.2503467957969459  1.0000
  S   S3        1.0  0.749653191767568  0.2503468600077807  0.25034687738408845  1.0000
  S   S4        1.0  0.25034679371759155  0.749653191238362  0.7496531416587926  1.0000
  S   S5        1.0  0.2503467396884599  0.7496531873134109  0.25034686748198987  1.0000
  S   S6        1.0  0.7496531026242905  0.2503469517849622  0.7496531119731187  1.0000
