data_image0
_chemical_formula_structural       Ba2GaTe6
_chemical_formula_sum              "Ba2 Ga1 Te6"
_cell_length_a       7.508692365056808
_cell_length_b       7.5086925490948495
_cell_length_c       7.508692414157182
_cell_angle_alpha    59.999998708578985
_cell_angle_beta     59.999999033621584
_cell_angle_gamma    59.99999556168953

_space_group_name_H-M_alt    "P 1"
_space_group_IT_number       1

loop_
  _space_group_symop_operation_xyz
  'x, y, z'

loop_
  _atom_site_type_symbol
  _atom_site_label
  _atom_site_symmetry_multiplicity
  _atom_site_fract_x
  _atom_site_fract_y
  _atom_site_fract_z
  _atom_site_occupancy
  Ba  Ba1       1.0  0.24999999298064718  0.250000072400636  0.24999999734465297  1.0000
  Ba  Ba2       1.0  0.7499999909541339  0.7499999366522376  0.7499999971190908  1.0000
  Ga  Ga1       1.0  3.40185750388872e-08  0.9999999902133827  0.9999999492621168  1.0000
  Te  Te1       1.0  0.2658176072921335  0.26581752142527365  0.7341824284604427  1.0000
  Te  Te2       1.0  0.7341823396737323  0.7341824370634172  0.26581757780689574  1.0000
  Te  Te3       1.0  0.7341824358485177  0.26581755000490415  0.2658176425727942  1.0000
  Te  Te4       1.0  0.2658175490803806  0.734182460679071  0.7341824171678304  1.0000
  Te  Te5       1.0  0.2658175747033708  0.7341824497914914  0.26581761257267766  1.0000
  Te  Te6       1.0  0.7341824733533626  0.26581758372791964  0.7341823802140943  1.0000
