data_image0
_chemical_formula_structural       Ba2GaSe6
_chemical_formula_sum              "Ba2 Ga1 Se6"
_cell_length_a       6.944115655228157
_cell_length_b       6.944115776095839
_cell_length_c       6.9441153351150575
_cell_angle_alpha    59.999998643726634
_cell_angle_beta     60.00000050215055
_cell_angle_gamma    59.99999893077307

_space_group_name_H-M_alt    "P 1"
_space_group_IT_number       1

loop_
  _space_group_symop_operation_xyz
  'x, y, z'

loop_
  _atom_site_type_symbol
  _atom_site_label
  _atom_site_symmetry_multiplicity
  _atom_site_fract_x
  _atom_site_fract_y
  _atom_site_fract_z
  _atom_site_occupancy
  Ba  Ba1       1.0  0.2499999894682328  0.25000003952613054  0.2499999370687131  1.0000
  Ba  Ba2       1.0  0.7499999793242148  0.750000010991703  0.7500000150670989  1.0000
  Ga  Ga1       1.0  2.8403889350026875e-08  0.9999999347425035  1.6986736840858805e-08  1.0000
  Se  Se1       1.0  0.26200540786270504  0.2620053393064469  0.7379945952074216  1.0000
  Se  Se2       1.0  0.7379946207086904  0.7379946865193604  0.26200533794486136  1.0000
  Se  Se3       1.0  0.7379945719670121  0.2620053823998796  0.26200541119141957  1.0000
  Se  Se4       1.0  0.26200536628896853  0.737994699864842  0.7379945993819794  1.0000
  Se  Se5       1.0  0.2620054027288294  0.7379946002735799  0.262005376677067  1.0000
  Se  Se6       1.0  0.7379946442866774  0.2620053303115536  0.7379946855977992  1.0000
