data_image0
_chemical_formula_structural       Ba2GaO6
_chemical_formula_sum              "Ba2 Ga1 O6"
_cell_length_a       5.984987116535326
_cell_length_b       5.984987217935538
_cell_length_c       5.984987135578482
_cell_angle_alpha    60.00000084266278
_cell_angle_beta     60.000000538390005
_cell_angle_gamma    60.000001083193744

_space_group_name_H-M_alt    "P 1"
_space_group_IT_number       1

loop_
  _space_group_symop_operation_xyz
  'x, y, z'

loop_
  _atom_site_type_symbol
  _atom_site_label
  _atom_site_symmetry_multiplicity
  _atom_site_fract_x
  _atom_site_fract_y
  _atom_site_fract_z
  _atom_site_occupancy
  Ba  Ba1       1.0  0.2499999731343311  0.25000001104431685  0.24999999686143187  1.0000
  Ba  Ba2       1.0  0.7500000515335877  0.7499999840202705  0.7499999657838128  1.0000
  Ga  Ga1       1.0  2.611449041774187e-09  0.9999999979536384  2.3109319449226003e-08  1.0000
  O   O1        1.0  0.22865817984697465  0.22865816003999023  0.7713418275645859  1.0000
  O   O2        1.0  0.771341866043556  0.7713418350245973  0.22865815287375793  1.0000
  O   O3        1.0  0.7713418261332299  0.2286581510720858  0.22865816181155052  1.0000
  O   O4        1.0  0.22865815326402908  0.7713418235288846  0.771341852080153  1.0000
  O   O5        1.0  0.22865815259331415  0.7713418265578167  0.22865816312966444  1.0000
  O   O6        1.0  0.7713418204307934  0.22865817873857902  0.7713418352592075  1.0000
