data_image0
_chemical_formula_structural       Ba2IrSe6
_chemical_formula_sum              "Ba2 Ir1 Se6"
_cell_length_a       6.893258133145811
_cell_length_b       6.893257760009256
_cell_length_c       6.893257460649476
_cell_angle_alpha    60.00000058462312
_cell_angle_beta     60.00000134130434
_cell_angle_gamma    59.99999532994712

_space_group_name_H-M_alt    "P 1"
_space_group_IT_number       1

loop_
  _space_group_symop_operation_xyz
  'x, y, z'

loop_
  _atom_site_type_symbol
  _atom_site_label
  _atom_site_symmetry_multiplicity
  _atom_site_fract_x
  _atom_site_fract_y
  _atom_site_fract_z
  _atom_site_occupancy
  Ba  Ba1       1.0  0.24999999481527854  0.2499999665436007  0.249999995241585  1.0000
  Ba  Ba2       1.0  0.7499999890965964  0.750000036438912  0.7500000281493688  1.0000
  Ir  Ir1       1.0  6.241760535054119e-08  9.416661841561834e-08  0.9999998926940277  1.0000
  Se  Se1       1.0  0.25650096589475924  0.2565009495551049  0.743499039774863  1.0000
  Se  Se2       1.0  0.743499012248608  0.7434989752513451  0.25650100527867553  1.0000
  Se  Se3       1.0  0.7434991169742844  0.25650089094973294  0.25650084564895254  1.0000
  Se  Se4       1.0  0.25650083923865574  0.7434991298000683  0.7434991841585178  1.0000
  Se  Se5       1.0  0.256500865933893  0.7434991026053231  0.25650086769608726  1.0000
  Se  Se6       1.0  0.7434991688411345  0.2565008683960705  0.7434991419017706  1.0000
