data_image0
_chemical_formula_structural       Ba2MoSe6
_chemical_formula_sum              "Ba2 Mo1 Se6"
_cell_length_a       6.985972831459941
_cell_length_b       6.985972792926752
_cell_length_c       6.985972664649664
_cell_angle_alpha    60.00000044757563
_cell_angle_beta     59.999999380685544
_cell_angle_gamma    59.999999314022354

_space_group_name_H-M_alt    "P 1"
_space_group_IT_number       1

loop_
  _space_group_symop_operation_xyz
  'x, y, z'

loop_
  _atom_site_type_symbol
  _atom_site_label
  _atom_site_symmetry_multiplicity
  _atom_site_fract_x
  _atom_site_fract_y
  _atom_site_fract_z
  _atom_site_occupancy
  Ba  Ba1       1.0  0.24999999456086672  0.25000003681190436  0.24999998531067183  1.0000
  Ba  Ba2       1.0  0.750000012151239  0.7499999754432677  0.7500000063310386  1.0000
  Mo  Mo1       1.0  0.999999981551885  0.9999999561712841  0.9999999939209784  1.0000
  Se  Se1       1.0  0.2533957620852377  0.2533958225852756  0.7466042097201882  1.0000
  Se  Se2       1.0  0.7466041542023447  0.7466041931761945  0.2533958325378353  1.0000
  Se  Se3       1.0  0.7466042012973697  0.2533958001880421  0.25339580181274124  1.0000
  Se  Se4       1.0  0.25339581601668976  0.7466042050545352  0.7466041866028498  1.0000
  Se  Se5       1.0  0.2533958599612143  0.7466042033218905  0.2533957898851521  1.0000
  Se  Se6       1.0  0.746604228226345  0.25339581243957837  0.7466041921887999  1.0000
