data_image0
_chemical_formula_structural       Ba2MoO6
_chemical_formula_sum              "Ba2 Mo1 O6"
_cell_length_a       5.941154251681405
_cell_length_b       5.941154202396058
_cell_length_c       5.941154069750225
_cell_angle_alpha    59.9999970881338
_cell_angle_beta     59.99999850578953
_cell_angle_gamma    59.99999610306065

_space_group_name_H-M_alt    "P 1"
_space_group_IT_number       1

loop_
  _space_group_symop_operation_xyz
  'x, y, z'

loop_
  _atom_site_type_symbol
  _atom_site_label
  _atom_site_symmetry_multiplicity
  _atom_site_fract_x
  _atom_site_fract_y
  _atom_site_fract_z
  _atom_site_occupancy
  Ba  Ba1       1.0  0.25000007075331815  0.2500000040254918  0.24999995688869733  1.0000
  Ba  Ba2       1.0  0.7499999272433935  0.7500000100150206  0.7500000747993933  1.0000
  Mo  Mo1       1.0  1.5646169793979857e-08  2.886043445783854e-08  0.9999999524990768  1.0000
  O   O1        1.0  0.22819486316332827  0.22819504012921976  0.7718050175783651  1.0000
  O   O2        1.0  0.7718050659464295  0.7718048832070732  0.22819509053896694  1.0000
  O   O3        1.0  0.77180522935393  0.2281948712227541  0.22819487361387536  1.0000
  O   O4        1.0  0.2281948642310447  0.7718051242646219  0.771805057279188  1.0000
  O   O5        1.0  0.22819481617335868  0.7718051230570498  0.22819493612480896  1.0000
  O   O6        1.0  0.7718051772086173  0.22819496313454996  0.7718049877354185  1.0000
