data_image0
_chemical_formula_structural       Ba2NO6
_chemical_formula_sum              "Ba2 N1 O6"
_cell_length_a       5.814716437904003
_cell_length_b       5.814715727775044
_cell_length_c       5.814715238811938
_cell_angle_alpha    60.00000210674075
_cell_angle_beta     60.00000253795327
_cell_angle_gamma    59.99999840311177

_space_group_name_H-M_alt    "P 1"
_space_group_IT_number       1

loop_
  _space_group_symop_operation_xyz
  'x, y, z'

loop_
  _atom_site_type_symbol
  _atom_site_label
  _atom_site_symmetry_multiplicity
  _atom_site_fract_x
  _atom_site_fract_y
  _atom_site_fract_z
  _atom_site_occupancy
  Ba  Ba1       1.0  0.2499999693488926  0.2500000709147151  0.24999998607968285  1.0000
  Ba  Ba2       1.0  0.750000008284465  0.7499999894779313  0.7500000696267252  1.0000
  N   N1        1.0  2.5551057890024284e-07  0.9999999304925907  0.9999998863611111  1.0000
  O   O1        1.0  0.1947933291317905  0.194793287826925  0.8052066706669666  1.0000
  O   O2        1.0  0.8052067427576614  0.8052067936285696  0.19479319667709222  1.0000
  O   O3        1.0  0.805206716997394  0.19479325897668953  0.19479317500075247  1.0000
  O   O4        1.0  0.1947931155296649  0.8052068435416583  0.8052068169710557  1.0000
  O   O5        1.0  0.1947931881667879  0.8052067582927304  0.19479320468585715  1.0000
  O   O6        1.0  0.8052068673784512  0.1947931041091218  0.8052068560272164  1.0000
