data_image0
_chemical_formula_structural       Ba2PSe6
_chemical_formula_sum              "Ba2 P1 Se6"
_cell_length_a       6.892293871943166
_cell_length_b       6.892294087948984
_cell_length_c       6.892293670301368
_cell_angle_alpha    60.00000168034272
_cell_angle_beta     60.00000402656419
_cell_angle_gamma    60.00000215440112

_space_group_name_H-M_alt    "P 1"
_space_group_IT_number       1

loop_
  _space_group_symop_operation_xyz
  'x, y, z'

loop_
  _atom_site_type_symbol
  _atom_site_label
  _atom_site_symmetry_multiplicity
  _atom_site_fract_x
  _atom_site_fract_y
  _atom_site_fract_z
  _atom_site_occupancy
  Ba  Ba1       1.0  0.24999997830472173  0.25000003090142014  0.24999999981632337  1.0000
  Ba  Ba2       1.0  0.7500000040448982  0.7500000109633157  0.7500000130085569  1.0000
  P   P1        1.0  2.6230709717493798e-08  0.9999999715683678  0.9999999517700044  1.0000
  Se  Se1       1.0  0.24131944514568246  0.2413194050367681  0.758680607419376  1.0000
  Se  Se2       1.0  0.7586805746046469  0.7586805497560916  0.24131944329915092  1.0000
  Se  Se3       1.0  0.7586806124336736  0.24131944347164885  0.2413193515189156  1.0000
  Se  Se4       1.0  0.24131935561593587  0.758680616162859  0.758680565262856  1.0000
  Se  Se5       1.0  0.24131942160574324  0.7586806116050809  0.24131939896944854  1.0000
  Se  Se6       1.0  0.758680590833424  0.2413193751733656  0.7586806452154488  1.0000
