data_image0
_chemical_formula_structural       Ba2PO6
_chemical_formula_sum              "Ba2 P1 O6"
_cell_length_a       5.8378490774779115
_cell_length_b       5.8378488109326385
_cell_length_c       5.837848869144883
_cell_angle_alpha    59.999997409738185
_cell_angle_beta     59.9999977036986
_cell_angle_gamma    59.99999860227646

_space_group_name_H-M_alt    "P 1"
_space_group_IT_number       1

loop_
  _space_group_symop_operation_xyz
  'x, y, z'

loop_
  _atom_site_type_symbol
  _atom_site_label
  _atom_site_symmetry_multiplicity
  _atom_site_fract_x
  _atom_site_fract_y
  _atom_site_fract_z
  _atom_site_occupancy
  Ba  Ba1       1.0  0.2500000023756498  0.25000003763397427  0.2499999529555693  1.0000
  Ba  Ba2       1.0  0.7499999885883939  0.7499999786338428  0.7500000671679273  1.0000
  P   P1        1.0  2.423598433550927e-08  0.9999999391597774  2.515395847517756e-08  1.0000
  O   O1        1.0  0.20976235933126242  0.2097624159401158  0.7902375879990733  1.0000
  O   O2        1.0  0.7902375054447544  0.7902375101163358  0.2097624632409366  1.0000
  O   O3        1.0  0.7902375904128756  0.20976249351094622  0.2097623432485224  1.0000
  O   O4        1.0  0.2097624178316649  0.7902376192620529  0.7902375531767033  1.0000
  O   O5        1.0  0.2097624876796903  0.790237565669966  0.20976239299218896  1.0000
  O   O6        1.0  0.7902376245601378  0.2097623834638125  0.7902376685788216  1.0000
