data_image0
_chemical_formula_structural       Ba2PS6
_chemical_formula_sum              "Ba2 P1 S6"
_cell_length_a       6.757120635541239
_cell_length_b       6.757120387335411
_cell_length_c       6.7571205585865695
_cell_angle_alpha    59.999998624155374
_cell_angle_beta     59.9999983534262
_cell_angle_gamma    59.99999715584882

_space_group_name_H-M_alt    "P 1"
_space_group_IT_number       1

loop_
  _space_group_symop_operation_xyz
  'x, y, z'

loop_
  _atom_site_type_symbol
  _atom_site_label
  _atom_site_symmetry_multiplicity
  _atom_site_fract_x
  _atom_site_fract_y
  _atom_site_fract_z
  _atom_site_occupancy
  Ba  Ba1       1.0  0.2500000463285123  0.2499999968627429  0.24999997959035622  1.0000
  Ba  Ba2       1.0  0.7499999946293977  0.7500000032759054  0.7500000060852221  1.0000
  P   P1        1.0  0.9999998988659942  1.631272575027805e-08  1.2972594021981183e-07  1.0000
  S   S1        1.0  0.23284788679704238  0.2328479659500311  0.7671520382509751  1.0000
  S   S2        1.0  0.7671521794472881  0.7671521121271876  0.23284785141449788  1.0000
  S   S3        1.0  0.7671521087770944  0.2328478871286477  0.23284785364435498  1.0000
  S   S4        1.0  0.2328479228605692  0.7671520640718281  0.7671521167628237  1.0000
  S   S5        1.0  0.23284790508354541  0.7671520578046971  0.23284789539185366  1.0000
  S   S6        1.0  0.7671520720599784  0.23284791333355356  0.7671521233718352  1.0000
