data_image0
_chemical_formula_structural       Ba2RhSe6
_chemical_formula_sum              "Ba2 Rh1 Se6"
_cell_length_a       6.8567046013814235
_cell_length_b       6.856704391227349
_cell_length_c       6.856704485232715
_cell_angle_alpha    59.9999993680527
_cell_angle_beta     59.99999922429771
_cell_angle_gamma    60.000000879977954

_space_group_name_H-M_alt    "P 1"
_space_group_IT_number       1

loop_
  _space_group_symop_operation_xyz
  'x, y, z'

loop_
  _atom_site_type_symbol
  _atom_site_label
  _atom_site_symmetry_multiplicity
  _atom_site_fract_x
  _atom_site_fract_y
  _atom_site_fract_z
  _atom_site_occupancy
  Ba  Ba1       1.0  0.2500000358777828  0.2500000283835288  0.24999996025107069  1.0000
  Ba  Ba2       1.0  0.7499999642355618  0.7500000101301629  0.750000003088158  1.0000
  Rh  Rh1       1.0  3.4684936944608094e-08  0.9999999767793942  0.9999999519734636  1.0000
  Se  Se1       1.0  0.25482180669777527  0.2548217978437019  0.745178207175342  1.0000
  Se  Se2       1.0  0.7451781675099058  0.745178156718566  0.2548218227598432  1.0000
  Se  Se3       1.0  0.7451781040230676  0.2548218930241109  0.25482192900722256  1.0000
  Se  Se4       1.0  0.2548218804406169  0.7451781419171797  0.7451781241564979  1.0000
  Se  Se5       1.0  0.25482184870165697  0.7451781457919857  0.2548218733200949  1.0000
  Se  Se6       1.0  0.7451781588629521  0.25482185521149564  0.7451781254665785  1.0000
