data_image0
_chemical_formula_structural       Ba2RuSe6
_chemical_formula_sum              "Ba2 Ru1 Se6"
_cell_length_a       6.873792779026079
_cell_length_b       6.873792885226983
_cell_length_c       6.873792757304196
_cell_angle_alpha    59.999998991270225
_cell_angle_beta     59.99999933680955
_cell_angle_gamma    59.9999975890546

_space_group_name_H-M_alt    "P 1"
_space_group_IT_number       1

loop_
  _space_group_symop_operation_xyz
  'x, y, z'

loop_
  _atom_site_type_symbol
  _atom_site_label
  _atom_site_symmetry_multiplicity
  _atom_site_fract_x
  _atom_site_fract_y
  _atom_site_fract_z
  _atom_site_occupancy
  Ba  Ba1       1.0  0.25000001469134125  0.24999999816066157  0.249999995069767  1.0000
  Ba  Ba2       1.0  0.7499999956638026  0.7499999784461463  0.7500000087035258  1.0000
  Ru  Ru1       1.0  1.9750710390174143e-08  2.1381119001075096e-08  0.9999999808888859  1.0000
  Se  Se1       1.0  0.2561466503335749  0.2561466594348163  0.7438533466965458  1.0000
  Se  Se2       1.0  0.7438533452754689  0.7438533563707109  0.2561466492148395  1.0000
  Se  Se3       1.0  0.7438533217744977  0.2561466073309513  0.25614667562579424  1.0000
  Se  Se4       1.0  0.2561466613971934  0.7438533853116966  0.7438533395405084  1.0000
  Se  Se5       1.0  0.25614663210504346  0.7438534089133326  0.256146601963937  1.0000
  Se  Se6       1.0  0.7438533509647468  0.25614658907459553  0.7438533960326665  1.0000
