data_image0
_chemical_formula_structural       Ba2RuS6
_chemical_formula_sum              "Ba2 Ru1 S6"
_cell_length_a       6.631363236894712
_cell_length_b       6.63136316236757
_cell_length_c       6.631363400287369
_cell_angle_alpha    60.000000904720885
_cell_angle_beta     60.00000031120694
_cell_angle_gamma    60.00000240349699

_space_group_name_H-M_alt    "P 1"
_space_group_IT_number       1

loop_
  _space_group_symop_operation_xyz
  'x, y, z'

loop_
  _atom_site_type_symbol
  _atom_site_label
  _atom_site_symmetry_multiplicity
  _atom_site_fract_x
  _atom_site_fract_y
  _atom_site_fract_z
  _atom_site_occupancy
  Ba  Ba1       1.0  0.24999998728677986  0.2499999972864564  0.24999998813563806  1.0000
  Ba  Ba2       1.0  0.7500000089803018  0.7499999863186787  0.7499999948887865  1.0000
  Ru  Ru1       1.0  0.999999896030599  1.8653665515725012e-07  1.1253089822321264e-07  1.0000
  S   S1        1.0  0.251520162497157  0.2515200462288084  0.7484798821065148  1.0000
  S   S2        1.0  0.7484798970019573  0.748479878275606  0.251520112424123  1.0000
  S   S3        1.0  0.748479980401079  0.251519984806595  0.2515200258451804  1.0000
  S   S4        1.0  0.251520073047336  0.7484799526261011  0.7484799049272456  1.0000
  S   S5        1.0  0.25152005056163257  0.748479930029726  0.2515200881300888  1.0000
  S   S6        1.0  0.7484799423466534  0.25152001663745766  0.7484799150427086  1.0000
