data_image0
_chemical_formula_structural       Ba2RhS6
_chemical_formula_sum              "Ba2 Rh1 S6"
_cell_length_a       6.6178283097846045
_cell_length_b       6.617828405181549
_cell_length_c       6.617828725080641
_cell_angle_alpha    59.99999705605802
_cell_angle_beta     59.99999812574393
_cell_angle_gamma    60.00000098067337

_space_group_name_H-M_alt    "P 1"
_space_group_IT_number       1

loop_
  _space_group_symop_operation_xyz
  'x, y, z'

loop_
  _atom_site_type_symbol
  _atom_site_label
  _atom_site_symmetry_multiplicity
  _atom_site_fract_x
  _atom_site_fract_y
  _atom_site_fract_z
  _atom_site_occupancy
  Ba  Ba1       1.0  0.24999998380259478  0.2500000121228703  0.25000000855976423  1.0000
  Ba  Ba2       1.0  0.7499999657566079  0.7499998938666447  0.7500000187355931  1.0000
  Rh  Rh1       1.0  4.493606694176628e-09  3.886417419700144e-08  0.9999999118340455  1.0000
  S   S1        1.0  0.248892669813277  0.24889271753137168  0.7511073336308544  1.0000
  S   S2        1.0  0.7511072918871229  0.7511073143040355  0.24889271986834333  1.0000
  S   S3        1.0  0.7511073334990008  0.24889269522074964  0.24889270963134913  1.0000
  S   S4        1.0  0.24889267182222496  0.7511073366146598  0.751107279747485  1.0000
  S   S5        1.0  0.24889268497159944  0.751107315043339  0.24889273171352994  1.0000
  S   S6        1.0  0.7511073852441327  0.24889266867452417  0.7511072779871479  1.0000
