data_image0
_chemical_formula_structural       Ba2RhO6
_chemical_formula_sum              "Ba2 Rh1 O6"
_cell_length_a       5.973344195722804
_cell_length_b       5.97334424002832
_cell_length_c       5.9733441836571215
_cell_angle_alpha    59.999999530213785
_cell_angle_beta     59.999999170255386
_cell_angle_gamma    59.99999908219624

_space_group_name_H-M_alt    "P 1"
_space_group_IT_number       1

loop_
  _space_group_symop_operation_xyz
  'x, y, z'

loop_
  _atom_site_type_symbol
  _atom_site_label
  _atom_site_symmetry_multiplicity
  _atom_site_fract_x
  _atom_site_fract_y
  _atom_site_fract_z
  _atom_site_occupancy
  Ba  Ba1       1.0  0.2500000329897352  0.24999999536874387  0.24999997732096327  1.0000
  Ba  Ba2       1.0  0.7499999708191482  0.749999982005532  0.7499999897177487  1.0000
  Rh  Rh1       1.0  7.3805716608131084e-09  1.845315400796056e-08  0.9999999117484524  1.0000
  O   O1        1.0  0.22983920518895012  0.2298391842928344  0.7701607916866274  1.0000
  O   O2        1.0  0.7701607724545423  0.7701608135849456  0.22983919492406882  1.0000
  O   O3        1.0  0.770160819560923  0.2298391673326027  0.22983919824801835  1.0000
  O   O4        1.0  0.22983913453371713  0.7701608489983305  0.7701608896826695  1.0000
  O   O5        1.0  0.2298391993897864  0.7701608314539803  0.22983919348190407  1.0000
  O   O6        1.0  0.7701608696951925  0.2298391356685424  0.7701608699283399  1.0000
