data_image0
_chemical_formula_structural       Ba2RuO6
_chemical_formula_sum              "Ba2 Ru1 O6"
_cell_length_a       5.916688736951815
_cell_length_b       5.916688656870306
_cell_length_c       5.916688830453327
_cell_angle_alpha    59.999998511513624
_cell_angle_beta     59.99999740017801
_cell_angle_gamma    59.99999661547582

_space_group_name_H-M_alt    "P 1"
_space_group_IT_number       1

loop_
  _space_group_symop_operation_xyz
  'x, y, z'

loop_
  _atom_site_type_symbol
  _atom_site_label
  _atom_site_symmetry_multiplicity
  _atom_site_fract_x
  _atom_site_fract_y
  _atom_site_fract_z
  _atom_site_occupancy
  Ba  Ba1       1.0  0.24999999751412863  0.2500000063039115  0.24999994160052766  1.0000
  Ba  Ba2       1.0  0.7499999586751976  0.7500000209817194  0.7500000722486133  1.0000
  Ru  Ru1       1.0  3.9031999363881445e-09  0.9999999999999998  0.9999999388936921  1.0000
  O   O1        1.0  0.22553081231099764  0.22553081970315453  0.7744691811832932  1.0000
  O   O2        1.0  0.7744692112981664  0.7744691516929153  0.22553082014017056  1.0000
  O   O3        1.0  0.7744692815944765  0.22553078198012974  0.22553078043848962  1.0000
  O   O4        1.0  0.22553076565033517  0.7744692121857601  0.7744692466961408  1.0000
  O   O5        1.0  0.225530754180088  0.7744692400805263  0.22553080466207917  1.0000
  O   O6        1.0  0.7744692286416331  0.2255307892750877  0.7744692506103114  1.0000
