data_image0
_chemical_formula_structural       Ba2SbS6
_chemical_formula_sum              "Ba2 Sb1 S6"
_cell_length_a       6.907712341041406
_cell_length_b       6.90771217300587
_cell_length_c       6.907712011875964
_cell_angle_alpha    60.00000045310572
_cell_angle_beta     60.0000000041345
_cell_angle_gamma    59.999998898193034

_space_group_name_H-M_alt    "P 1"
_space_group_IT_number       1

loop_
  _space_group_symop_operation_xyz
  'x, y, z'

loop_
  _atom_site_type_symbol
  _atom_site_label
  _atom_site_symmetry_multiplicity
  _atom_site_fract_x
  _atom_site_fract_y
  _atom_site_fract_z
  _atom_site_occupancy
  Ba  Ba1       1.0  0.2500000100740152  0.24999998420689762  0.24999997671284205  1.0000
  Ba  Ba2       1.0  0.7500000385626985  0.7499999827618778  0.7500000368437956  1.0000
  Sb  Sb1       1.0  0.9999999786224678  6.914742405600032e-08  2.6783061061622694e-08  1.0000
  S   S1        1.0  0.25352841584486574  0.2535283354644826  0.74647165229957  1.0000
  S   S2        1.0  0.7464715821713231  0.746471597817087  0.2535284439453392  1.0000
  S   S3        1.0  0.7464716862931596  0.253528340349709  0.25352830626808814  1.0000
  S   S4        1.0  0.2535283348879846  0.7464716638522946  0.7464715489480424  1.0000
  S   S5        1.0  0.25352835506828125  0.7464716768877768  0.2535283386827124  1.0000
  S   S6        1.0  0.7464715990456348  0.253528337952293  0.7464716634559019  1.0000
