data_image0
_chemical_formula_structural       Ba2SbO6
_chemical_formula_sum              "Ba2 Sb1 O6"
_cell_length_a       6.06401071808223
_cell_length_b       6.064011095250446
_cell_length_c       6.064010553090835
_cell_angle_alpha    60.000000375085406
_cell_angle_beta     60.00000041368441
_cell_angle_gamma    60.00000104804347

_space_group_name_H-M_alt    "P 1"
_space_group_IT_number       1

loop_
  _space_group_symop_operation_xyz
  'x, y, z'

loop_
  _atom_site_type_symbol
  _atom_site_label
  _atom_site_symmetry_multiplicity
  _atom_site_fract_x
  _atom_site_fract_y
  _atom_site_fract_z
  _atom_site_occupancy
  Ba  Ba1       1.0  0.2500000189766563  0.2500000210289901  0.24999996322522736  1.0000
  Ba  Ba2       1.0  0.7499999727630149  0.7499999499840874  0.7500000971494637  1.0000
  Sb  Sb1       1.0  0.9999999719751135  3.8374190545954025e-08  3.275404120635156e-08  1.0000
  O   O1        1.0  0.23118686862279275  0.23118688627877165  0.7688131183267934  1.0000
  O   O2        1.0  0.7688131478514811  0.7688131190691101  0.2311868564446894  1.0000
  O   O3        1.0  0.7688130929472987  0.2311868901890147  0.23118687670712415  1.0000
  O   O4        1.0  0.2311869197186027  0.7688131151588681  0.7688130603907769  1.0000
  O   O5        1.0  0.2311868722936743  0.7688131339493196  0.2311868698297457  1.0000
  O   O6        1.0  0.7688131160402047  0.2311869158318377  0.7688130572175286  1.0000
