data_image0
_chemical_formula_structural       Ba2SbSe6
_chemical_formula_sum              "Ba2 Sb1 Se6"
_cell_length_a       7.11417021130795
_cell_length_b       7.114170161685679
_cell_length_c       7.114170255185209
_cell_angle_alpha    60.00000270246608
_cell_angle_beta     59.999999808534355
_cell_angle_gamma    60.000000236976945

_space_group_name_H-M_alt    "P 1"
_space_group_IT_number       1

loop_
  _space_group_symop_operation_xyz
  'x, y, z'

loop_
  _atom_site_type_symbol
  _atom_site_label
  _atom_site_symmetry_multiplicity
  _atom_site_fract_x
  _atom_site_fract_y
  _atom_site_fract_z
  _atom_site_occupancy
  Ba  Ba1       1.0  0.24999996178550601  0.25000002507960556  0.25000000301743713  1.0000
  Ba  Ba2       1.0  0.750000005795032  0.7500000012118714  0.7500000013086237  1.0000
  Sb  Sb1       1.0  0.999999953453293  8.607783823902456e-08  0.9999998424811968  1.0000
  Se  Se1       1.0  0.26550301457130143  0.26550307357629793  0.7344969207537876  1.0000
  Se  Se2       1.0  0.7344969467306471  0.734496913119369  0.26550303482156135  1.0000
  Se  Se3       1.0  0.7344969362300633  0.2655031151964562  0.26550301257992853  1.0000
  Se  Se4       1.0  0.265502922321435  0.7344970677566975  0.7344970283725651  1.0000
  Se  Se5       1.0  0.2655031573805071  0.7344968152462019  0.26550310241303204  1.0000
  Se  Se6       1.0  0.7344971043468638  0.2655029080512709  0.7344970525237187  1.0000
