data_image0
_chemical_formula_structural       Ba2SbTe6
_chemical_formula_sum              "Ba2 Sb1 Te6"
_cell_length_a       7.68116284111142
_cell_length_b       7.681162794240375
_cell_length_c       7.681162948795788
_cell_angle_alpha    59.99999820223297
_cell_angle_beta     59.99999970880186
_cell_angle_gamma    59.999998665530825

_space_group_name_H-M_alt    "P 1"
_space_group_IT_number       1

loop_
  _space_group_symop_operation_xyz
  'x, y, z'

loop_
  _atom_site_type_symbol
  _atom_site_label
  _atom_site_symmetry_multiplicity
  _atom_site_fract_x
  _atom_site_fract_y
  _atom_site_fract_z
  _atom_site_occupancy
  Ba  Ba1       1.0  0.24999998532903103  0.25000007129416163  0.24999996539714164  1.0000
  Ba  Ba2       1.0  0.7500000256595937  0.7499999236873958  0.7500000585281695  1.0000
  Sb  Sb1       1.0  3.4377615270493015e-08  3.6673004699006735e-08  2.6965227077659478e-08  1.0000
  Te  Te1       1.0  0.27123493442610846  0.27123496090927623  0.7287651038993693  1.0000
  Te  Te2       1.0  0.7287650023855222  0.7287650085606252  0.27123498549290154  1.0000
  Te  Te3       1.0  0.728765122857777  0.27123490510924375  0.27123491215519074  1.0000
  Te  Te4       1.0  0.2712350240365544  0.728764952747163  0.7287650173421519  1.0000
  Te  Te5       1.0  0.2712349317892387  0.728765100826215  0.2712349183384188  1.0000
  Te  Te6       1.0  0.7287649446145871  0.2712350408473668  0.7287650123069034  1.0000
