data_image0
_chemical_formula_structural       Ba2TaS6
_chemical_formula_sum              "Ba2 Ta1 S6"
_cell_length_a       6.769533584380536
_cell_length_b       6.769533035753592
_cell_length_c       6.7695335602342395
_cell_angle_alpha    60.00000019893039
_cell_angle_beta     59.99999726402842
_cell_angle_gamma    60.0000005892148

_space_group_name_H-M_alt    "P 1"
_space_group_IT_number       1

loop_
  _space_group_symop_operation_xyz
  'x, y, z'

loop_
  _atom_site_type_symbol
  _atom_site_label
  _atom_site_symmetry_multiplicity
  _atom_site_fract_x
  _atom_site_fract_y
  _atom_site_fract_z
  _atom_site_occupancy
  Ba  Ba1       1.0  0.24999998233162435  0.250000009368754  0.24999999804962092  1.0000
  Ba  Ba2       1.0  0.7499999975814978  0.7499999991590417  0.7500000040100521  1.0000
  Ta  Ta1       1.0  8.797678279119048e-08  0.999999858882295  7.827268901789626e-08  1.0000
  S   S1        1.0  0.25283256193647446  0.2528324782112849  0.7471674575573822  1.0000
  S   S2        1.0  0.747167574215148  0.7471675067968951  0.2528324412126782  1.0000
  S   S3        1.0  0.7471674867250462  0.25283249147401277  0.2528325393581181  1.0000
  S   S4        1.0  0.25283241770426007  0.7471675695206264  0.747167583523336  1.0000
  S   S5        1.0  0.25283248455074875  0.7471674781535866  0.2528325119518927  1.0000
  S   S6        1.0  0.7471674306125502  0.25283258645944806  0.7471674294429821  1.0000
