data_image0
_chemical_formula_structural       Ba2TlTe6
_chemical_formula_sum              "Ba2 Tl1 Te6"
_cell_length_a       7.689275042455723
_cell_length_b       7.6892757800166445
_cell_length_c       7.689275306994466
_cell_angle_alpha    59.999998927978076
_cell_angle_beta     59.99999716473237
_cell_angle_gamma    59.99999437473926

_space_group_name_H-M_alt    "P 1"
_space_group_IT_number       1

loop_
  _space_group_symop_operation_xyz
  'x, y, z'

loop_
  _atom_site_type_symbol
  _atom_site_label
  _atom_site_symmetry_multiplicity
  _atom_site_fract_x
  _atom_site_fract_y
  _atom_site_fract_z
  _atom_site_occupancy
  Ba  Ba1       1.0  0.25000005376355094  0.2500000660350496  0.24999988375049378  1.0000
  Ba  Ba2       1.0  0.7499999162581271  0.7500000276759706  0.7500000670643685  1.0000
  Tl  Tl1       1.0  0.9999999429924386  2.0706349629208862e-07  2.344940451357645e-07  1.0000
  Te  Te1       1.0  0.28008379899303154  0.280083743347675  0.7199162424605482  1.0000
  Te  Te2       1.0  0.7199160478032935  0.7199160397681019  0.28008393306769713  1.0000
  Te  Te3       1.0  0.7199164640277583  0.2800835180612076  0.2800835459528744  1.0000
  Te  Te4       1.0  0.2800838749185139  0.7199162077138809  0.7199161351615369  1.0000
  Te  Te5       1.0  0.2800836697794706  0.719916467268133  0.28008361334632825  1.0000
  Te  Te6       1.0  0.7199162740443439  0.2800837140466772  0.7199163340763355  1.0000
