data_image0
_chemical_formula_structural       Ba2TlO6
_chemical_formula_sum              "Ba2 Tl1 O6"
_cell_length_a       5.989047552500947
_cell_length_b       5.989047600958066
_cell_length_c       5.989047481308227
_cell_angle_alpha    59.99999950206307
_cell_angle_beta     59.99999893538168
_cell_angle_gamma    59.99999935308886

_space_group_name_H-M_alt    "P 1"
_space_group_IT_number       1

loop_
  _space_group_symop_operation_xyz
  'x, y, z'

loop_
  _atom_site_type_symbol
  _atom_site_label
  _atom_site_symmetry_multiplicity
  _atom_site_fract_x
  _atom_site_fract_y
  _atom_site_fract_z
  _atom_site_occupancy
  Ba  Ba1       1.0  0.25000000442155823  0.2499999795098659  0.25000002802695825  1.0000
  Ba  Ba2       1.0  0.750000011179569  0.7500000141936495  0.7499999671451004  1.0000
  Tl  Tl1       1.0  1.4294754797545227e-08  0.9999999918201027  0.9999999785757107  1.0000
  O   O1        1.0  0.2589929709624393  0.2589929835246836  0.7410070174163326  1.0000
  O   O2        1.0  0.7410070196713114  0.7410070388084731  0.2589929742548792  1.0000
  O   O3        1.0  0.7410070274937124  0.25899296502210695  0.25899298746900695  1.0000
  O   O4        1.0  0.2589929708721858  0.7410070225464855  0.7410070227275573  1.0000
  O   O5        1.0  0.2589929749164406  0.7410070200882239  0.25899300568077455  1.0000
  O   O6        1.0  0.7410070109657689  0.2589929817951888  0.7410070286459429  1.0000
