data_image0
_chemical_formula_structural       Ba2TlS6
_chemical_formula_sum              "Ba2 Tl1 S6"
_cell_length_a       6.842667120287488
_cell_length_b       6.842666854266549
_cell_length_c       6.842667084098165
_cell_angle_alpha    59.99999948471725
_cell_angle_beta     59.999999746856865
_cell_angle_gamma    60.00000107268932

_space_group_name_H-M_alt    "P 1"
_space_group_IT_number       1

loop_
  _space_group_symop_operation_xyz
  'x, y, z'

loop_
  _atom_site_type_symbol
  _atom_site_label
  _atom_site_symmetry_multiplicity
  _atom_site_fract_x
  _atom_site_fract_y
  _atom_site_fract_z
  _atom_site_occupancy
  Ba  Ba1       1.0  0.2500000083276991  0.2499999904116674  0.24999999918630061  1.0000
  Ba  Ba2       1.0  0.7499999774259865  0.7499999873437846  0.7500000059759739  1.0000
  Tl  Tl1       1.0  1.4379733619803795e-07  0.9999998926081142  6.655954460803827e-08  1.0000
  S   S1        1.0  0.2692480111393049  0.2692479150438414  0.7307520688019739  1.0000
  S   S2        1.0  0.7307519144464268  0.730751914152829  0.2692481371772863  1.0000
  S   S3        1.0  0.7307520873049291  0.26924803999798724  0.26924798209238215  1.0000
  S   S4        1.0  0.269248037692399  0.7307519807142242  0.7307519772736635  1.0000
  S   S5        1.0  0.26924789954267897  0.7307521075107353  0.26924789964644125  1.0000
  S   S6        1.0  0.7307519193647086  0.2692481834710565  0.7307518350343222  1.0000
