data_image0
_chemical_formula_structural       Ba2TaTe6
_chemical_formula_sum              "Ba2 Ta1 Te6"
_cell_length_a       7.549269026774369
_cell_length_b       7.549268881633067
_cell_length_c       7.5492690984142525
_cell_angle_alpha    60.00000035087862
_cell_angle_beta     60.00000036370655
_cell_angle_gamma    60.000001610618334

_space_group_name_H-M_alt    "P 1"
_space_group_IT_number       1

loop_
  _space_group_symop_operation_xyz
  'x, y, z'

loop_
  _atom_site_type_symbol
  _atom_site_label
  _atom_site_symmetry_multiplicity
  _atom_site_fract_x
  _atom_site_fract_y
  _atom_site_fract_z
  _atom_site_occupancy
  Ba  Ba1       1.0  0.25000001879180556  0.25000000778024534  0.24999996671357677  1.0000
  Ba  Ba2       1.0  0.7500000237617865  0.7499999422239496  0.7500000126404626  1.0000
  Ta  Ta1       1.0  7.106985271863995e-09  1.6223359605427277e-09  3.5831287145233653e-09  1.0000
  Te  Te1       1.0  0.26111941457211113  0.2611195356081475  0.7388805078300186  1.0000
  Te  Te2       1.0  0.7388805802710782  0.7388804565767755  0.2611194756134898  1.0000
  Te  Te3       1.0  0.73888060127191  0.261119402343326  0.2611194593003974  1.0000
  Te  Te4       1.0  0.2611193485647695  0.738880623910647  0.7388805852463659  1.0000
  Te  Te5       1.0  0.2611193892673789  0.7388806067325867  0.261119424294482  1.0000
  Te  Te6       1.0  0.7388806068110961  0.2611194276330657  0.7388805679075451  1.0000
