data_image0
_chemical_formula_structural       Ba2TlSe6
_chemical_formula_sum              "Ba2 Tl1 Se6"
_cell_length_a       7.099796320355364
_cell_length_b       7.099796530042589
_cell_length_c       7.099796081753839
_cell_angle_alpha    59.999998914022676
_cell_angle_beta     59.999999633826555
_cell_angle_gamma    59.9999987517512

_space_group_name_H-M_alt    "P 1"
_space_group_IT_number       1

loop_
  _space_group_symop_operation_xyz
  'x, y, z'

loop_
  _atom_site_type_symbol
  _atom_site_label
  _atom_site_symmetry_multiplicity
  _atom_site_fract_x
  _atom_site_fract_y
  _atom_site_fract_z
  _atom_site_occupancy
  Ba  Ba1       1.0  0.25000002038006985  0.24999999538976864  0.25000000714551746  1.0000
  Ba  Ba2       1.0  0.7499999864082089  0.7500000103199005  0.7499999678517509  1.0000
  Tl  Tl1       1.0  1.2337412783759289e-08  6.900169290972352e-09  0.9999999734793148  1.0000
  Se  Se1       1.0  0.2756166518017296  0.27561662070096965  0.7243832862029272  1.0000
  Se  Se2       1.0  0.7243832736672766  0.7243833850087025  0.27561667029734815  1.0000
  Se  Se3       1.0  0.7243832562365992  0.2756167977149498  0.27561661640370183  1.0000
  Se  Se4       1.0  0.27561660732819765  0.7243833839490286  0.7243833605385354  1.0000
  Se  Se5       1.0  0.275616786874552  0.724383162987709  0.27561673593514113  1.0000
  Se  Se6       1.0  0.7243834077402133  0.2756166305417593  0.7243833780031917  1.0000
