data_image0
_chemical_formula_structural       Be2BS6
_chemical_formula_sum              "Be2 B1 S6"
_cell_length_a       5.588100364463496
_cell_length_b       5.588100325812984
_cell_length_c       5.588100255598683
_cell_angle_alpha    60.00000043096812
_cell_angle_beta     60.000000653437205
_cell_angle_gamma    60.00000125909264

_space_group_name_H-M_alt    "P 1"
_space_group_IT_number       1

loop_
  _space_group_symop_operation_xyz
  'x, y, z'

loop_
  _atom_site_type_symbol
  _atom_site_label
  _atom_site_symmetry_multiplicity
  _atom_site_fract_x
  _atom_site_fract_y
  _atom_site_fract_z
  _atom_site_occupancy
  Be  Be1       1.0  0.24999998149370814  0.2500000292017894  0.25000000761862196  1.0000
  Be  Be2       1.0  0.7500000059095966  0.7500000087041101  0.7499999564325478  1.0000
  B   B1        1.0  5.217810186987223e-09  1.5341911516030515e-08  4.036274570678273e-09  1.0000
  S   S1        1.0  0.24216678544848513  0.2421667735629513  0.7578332231159229  1.0000
  S   S2        1.0  0.7578332314066923  0.7578332007836012  0.24216678483173795  1.0000
  S   S3        1.0  0.7578331999513421  0.24216676870117543  0.24216680774039512  1.0000
  S   S4        1.0  0.2421668021886517  0.7578332187955866  0.7578332135163713  1.0000
  S   S5        1.0  0.24216677288242175  0.7578332011899267  0.24216679073901073  1.0000
  S   S6        1.0  0.757833214918425  0.24216677973173031  0.7578332105530943  1.0000
