data_image0
_chemical_formula_structural       Be2BO6
_chemical_formula_sum              "Be2 B1 O6"
_cell_length_a       4.3814086009158375
_cell_length_b       4.381408556176542
_cell_length_c       4.381408585575568
_cell_angle_alpha    59.99999918086944
_cell_angle_beta     60.00000005162062
_cell_angle_gamma    59.99999893044898

_space_group_name_H-M_alt    "P 1"
_space_group_IT_number       1

loop_
  _space_group_symop_operation_xyz
  'x, y, z'

loop_
  _atom_site_type_symbol
  _atom_site_label
  _atom_site_symmetry_multiplicity
  _atom_site_fract_x
  _atom_site_fract_y
  _atom_site_fract_z
  _atom_site_occupancy
  Be  Be1       1.0  0.24999999395531203  0.2499999910579575  0.2500000124546341  1.0000
  Be  Be2       1.0  0.7499999725481953  0.7500000011270952  0.7500000052224511  1.0000
  B   B1        1.0  0.9999999951812624  2.2362577719906018e-08  5.0569726507678436e-08  1.0000
  O   O1        1.0  0.26615947368301074  0.26615947733697415  0.7338404648278425  1.0000
  O   O2        1.0  0.733840523034581  0.7338405428013015  0.2661594621415714  1.0000
  O   O3        1.0  0.73384053569771  0.26615943148883286  0.26615944153509324  1.0000
  O   O4        1.0  0.2661594937644133  0.7338405299476751  0.733840496130568  1.0000
  O   O5        1.0  0.2661594611042404  0.7338405497721828  0.2661594543243125  1.0000
  O   O6        1.0  0.7338405337498033  0.26615947595673684  0.733840539252684  1.0000
