data_image0
_chemical_formula_structural       Be2NO6
_chemical_formula_sum              "Be2 N1 O6"
_cell_length_a       4.8009821863839255
_cell_length_b       4.8009818629428525
_cell_length_c       4.800981947127801
_cell_angle_alpha    60.00000019812645
_cell_angle_beta     60.000001725309644
_cell_angle_gamma    59.999998922117776

_space_group_name_H-M_alt    "P 1"
_space_group_IT_number       1

loop_
  _space_group_symop_operation_xyz
  'x, y, z'

loop_
  _atom_site_type_symbol
  _atom_site_label
  _atom_site_symmetry_multiplicity
  _atom_site_fract_x
  _atom_site_fract_y
  _atom_site_fract_z
  _atom_site_occupancy
  Be  Be1       1.0  0.24999965776291816  0.2500003809356183  0.25000014815633304  1.0000
  Be  Be2       1.0  0.7499997924353715  0.7500001861705885  0.7499996113149889  1.0000
  N   N1        1.0  0.9999994889901977  2.2704167838327807e-07  7.335297157667581e-07  1.0000
  O   O1        1.0  0.2280729204517869  0.22807252210138743  0.7719272328884657  1.0000
  O   O2        1.0  0.7719273628819289  0.7719273638798044  0.22807271927267983  1.0000
  O   O3        1.0  0.7719277115796505  0.22807245384656102  0.22807252557517205  1.0000
  O   O4        1.0  0.22807281727799417  0.7719270851945451  0.7719271606921512  1.0000
  O   O5        1.0  0.22807280341445316  0.7719270677995242  0.2280726214085441  1.0000
  O   O6        1.0  0.7719274247971449  0.22807272379355573  0.7719272326264156  1.0000
