data_image0
_chemical_formula_structural       Be2PSe6
_chemical_formula_sum              "Be2 P1 Se6"
_cell_length_a       6.146810810864854
_cell_length_b       6.146810599841852
_cell_length_c       6.146810633110797
_cell_angle_alpha    59.99999916251496
_cell_angle_beta     60.00000007416492
_cell_angle_gamma    59.99999938014358

_space_group_name_H-M_alt    "P 1"
_space_group_IT_number       1

loop_
  _space_group_symop_operation_xyz
  'x, y, z'

loop_
  _atom_site_type_symbol
  _atom_site_label
  _atom_site_symmetry_multiplicity
  _atom_site_fract_x
  _atom_site_fract_y
  _atom_site_fract_z
  _atom_site_occupancy
  Be  Be1       1.0  0.25000004690765193  0.24999995035021036  0.24999999739329243  1.0000
  Be  Be2       1.0  0.7499999895642028  0.7500000283820987  0.7500000311530381  1.0000
  P   P1        1.0  0.9999999723721704  3.984976651641929e-09  2.4836306192783153e-08  1.0000
  Se  Se1       1.0  0.28569251712139937  0.28569252302544695  0.7143074679592419  1.0000
  Se  Se2       1.0  0.7143075027463861  0.7143075055190724  0.28569248541606  1.0000
  Se  Se3       1.0  0.7143074398745649  0.2856925495420801  0.285692513202144  1.0000
  Se  Se4       1.0  0.2856925303927206  0.7143074531000897  0.7143075023274823  1.0000
  Se  Se5       1.0  0.2856925353785324  0.7143074608476387  0.28569253167213204  1.0000
  Se  Se6       1.0  0.714307465837397  0.28569252784711235  0.7143074542077024  1.0000
