data_image0
_chemical_formula_structural       Be2PS6
_chemical_formula_sum              "Be2 P1 S6"
_cell_length_a       6.191906308336842
_cell_length_b       6.1919063890955055
_cell_length_c       6.191906694424795
_cell_angle_alpha    60.000000072278176
_cell_angle_beta     59.999998486999814
_cell_angle_gamma    60.00000138414793

_space_group_name_H-M_alt    "P 1"
_space_group_IT_number       1

loop_
  _space_group_symop_operation_xyz
  'x, y, z'

loop_
  _atom_site_type_symbol
  _atom_site_label
  _atom_site_symmetry_multiplicity
  _atom_site_fract_x
  _atom_site_fract_y
  _atom_site_fract_z
  _atom_site_occupancy
  Be  Be1       1.0  0.2499997685607838  0.24999961671829107  0.25000027007733927  1.0000
  Be  Be2       1.0  0.7499996534303522  0.7499999776017844  0.7500000661745321  1.0000
  P   P1        1.0  2.2433154968444578e-08  9.494289710648729e-08  0.9999999073967355  1.0000
  S   S1        1.0  0.24411676901270835  0.24411664486956233  0.7558832448206876  1.0000
  S   S2        1.0  0.7558833871977292  0.7558833035084118  0.24411649884224887  1.0000
  S   S3        1.0  0.7558834174316793  0.2441166662933694  0.24411666988477732  1.0000
  S   S4        1.0  0.24411682623617487  0.7558834225209822  0.7558833732741865  1.0000
  S   S5        1.0  0.2441167723157745  0.7558835086440684  0.24411664517552004  1.0000
  S   S6        1.0  0.7558833529773393  0.24411678983584642  0.7558833523380348  1.0000
