data_image0
_chemical_formula_structural       Be2PO6
_chemical_formula_sum              "Be2 P1 O6"
_cell_length_a       4.434921305775259
_cell_length_b       4.434921287857036
_cell_length_c       4.434921297127558
_cell_angle_alpha    59.99999992324269
_cell_angle_beta     59.99999954039972
_cell_angle_gamma    60.00000035663319

_space_group_name_H-M_alt    "P 1"
_space_group_IT_number       1

loop_
  _space_group_symop_operation_xyz
  'x, y, z'

loop_
  _atom_site_type_symbol
  _atom_site_label
  _atom_site_symmetry_multiplicity
  _atom_site_fract_x
  _atom_site_fract_y
  _atom_site_fract_z
  _atom_site_occupancy
  Be  Be1       1.0  0.25000012103199926  0.24999992289063655  0.24999955795927312  1.0000
  Be  Be2       1.0  0.7500001398900528  0.749999868089267  0.7499996083918838  1.0000
  P   P1        1.0  0.99999750395563  1.957969613632981e-06  7.486752845670771e-06  1.0000
  O   O1        1.0  0.26676291317170464  0.2667630518038297  0.7332371636520004  1.0000
  O   O2        1.0  0.7332372818870754  0.7332372804483528  0.2667628856458816  1.0000
  O   O3        1.0  0.7332395070412079  0.26676049697398413  0.2667606188075089  1.0000
  O   O4        1.0  0.2667652043148148  0.7332347456618546  0.7332349346524099  1.0000
  O   O5        1.0  0.26676150361311124  0.7332384425516051  0.2667617792241506  1.0000
  O   O6        1.0  0.7332358492143253  0.26676420667729306  0.7332360095446686  1.0000
