data_image0
_chemical_formula_structural       Bi2AsN6
_chemical_formula_sum              "Bi2 As1 N6"
_cell_length_a       5.475997700574593
_cell_length_b       5.475997637038728
_cell_length_c       5.475998422290295
_cell_angle_alpha    59.99999643291363
_cell_angle_beta     59.99999744035912
_cell_angle_gamma    59.99999850928759

_space_group_name_H-M_alt    "P 1"
_space_group_IT_number       1

loop_
  _space_group_symop_operation_xyz
  'x, y, z'

loop_
  _atom_site_type_symbol
  _atom_site_label
  _atom_site_symmetry_multiplicity
  _atom_site_fract_x
  _atom_site_fract_y
  _atom_site_fract_z
  _atom_site_occupancy
  Bi  Bi1       1.0  0.2500000209802849  0.2500000265196451  0.2500000181879406  1.0000
  Bi  Bi2       1.0  0.7499999902050123  0.7499999498379047  0.7500000754416123  1.0000
  As  As1       1.0  0.999999963173416  0.9999999776343048  2.4117685863292886e-08  1.0000
  N   N1        1.0  0.2464944985770861  0.24649448667426951  0.753505485108961  1.0000
  N   N2        1.0  0.7535055396370267  0.7535055098124048  0.2464944479802971  1.0000
  N   N3        1.0  0.7535054775476384  0.24649456406246495  0.24649445068662104  1.0000
  N   N4        1.0  0.24649442528474452  0.7535055285966957  0.7535055348779758  1.0000
  N   N5        1.0  0.24649452933487717  0.7535055051543013  0.24649443176982105  1.0000
  N   N6        1.0  0.7535055714153955  0.24649445554726276  0.7535055591638018  1.0000
