data_image0
_chemical_formula_structural       Bi2AsO6
_chemical_formula_sum              "Bi2 As1 O6"
_cell_length_a       5.386792776372661
_cell_length_b       5.386792767450893
_cell_length_c       5.386792706703592
_cell_angle_alpha    60.00000050152104
_cell_angle_beta     60.000002356949594
_cell_angle_gamma    60.00000141360873

_space_group_name_H-M_alt    "P 1"
_space_group_IT_number       1

loop_
  _space_group_symop_operation_xyz
  'x, y, z'

loop_
  _atom_site_type_symbol
  _atom_site_label
  _atom_site_symmetry_multiplicity
  _atom_site_fract_x
  _atom_site_fract_y
  _atom_site_fract_z
  _atom_site_occupancy
  Bi  Bi1       1.0  0.2500000156314918  0.25000012546707806  0.24999988630625633  1.0000
  Bi  Bi2       1.0  0.7500000123671519  0.7499999012174124  0.750000069711286  1.0000
  As  As1       1.0  1.1865843781193868e-08  0.999999977263932  3.699377979460594e-08  1.0000
  O   O1        1.0  0.2421412208857185  0.2421413892200342  0.7578586566274105  1.0000
  O   O2        1.0  0.7578587454246926  0.7578586874838054  0.24214132750127926  1.0000
  O   O3        1.0  0.757858702059719  0.24214135900840414  0.24214131190342938  1.0000
  O   O4        1.0  0.24214130374528486  0.7578586699496933  0.7578586188026772  1.0000
  O   O5        1.0  0.2421413300907805  0.7578585865609136  0.24214135296048733  1.0000
  O   O6        1.0  0.7578586698482322  0.2421413378112706  0.7578587183656127  1.0000
