data_image0
_chemical_formula_structural       Bi2AgSe6
_chemical_formula_sum              "Bi2 Ag1 Se6"
_cell_length_a       6.623069099981961
_cell_length_b       6.62306917413382
_cell_length_c       6.623068963668804
_cell_angle_alpha    60.00000062703831
_cell_angle_beta     60.00000028843333
_cell_angle_gamma    60.0000005489261

_space_group_name_H-M_alt    "P 1"
_space_group_IT_number       1

loop_
  _space_group_symop_operation_xyz
  'x, y, z'

loop_
  _atom_site_type_symbol
  _atom_site_label
  _atom_site_symmetry_multiplicity
  _atom_site_fract_x
  _atom_site_fract_y
  _atom_site_fract_z
  _atom_site_occupancy
  Bi  Bi1       1.0  0.25000011631126107  0.2500000011164547  0.24999996966387322  1.0000
  Bi  Bi2       1.0  0.7500002434836905  0.7499998646585823  0.7499998302488082  1.0000
  Ag  Ag1       1.0  3.5944772853388886e-08  0.9999999130871097  1.4914940505770737e-08  1.0000
  Se  Se1       1.0  0.27586785984687895  0.2758679292371633  0.724132104711498  1.0000
  Se  Se2       1.0  0.7241321270576745  0.7241321085144435  0.27586793003688914  1.0000
  Se  Se3       1.0  0.7241319905275158  0.27586793554110095  0.27586795682408627  1.0000
  Se  Se4       1.0  0.2758678170824304  0.7241321484407668  0.7241320901010082  1.0000
  Se  Se5       1.0  0.27586778155212366  0.724132129590174  0.27586798682777564  1.0000
  Se  Se6       1.0  0.7241320211265946  0.275867969185377  0.7241321200906756  1.0000
