data_image0
_chemical_formula_structural       Bi2AgO6
_chemical_formula_sum              "Bi2 Ag1 O6"
_cell_length_a       5.476027997456241
_cell_length_b       5.476027822374083
_cell_length_c       5.47602752004576
_cell_angle_alpha    60.00000091092785
_cell_angle_beta     60.000000870004136
_cell_angle_gamma    59.99999899439205

_space_group_name_H-M_alt    "P 1"
_space_group_IT_number       1

loop_
  _space_group_symop_operation_xyz
  'x, y, z'

loop_
  _atom_site_type_symbol
  _atom_site_label
  _atom_site_symmetry_multiplicity
  _atom_site_fract_x
  _atom_site_fract_y
  _atom_site_fract_z
  _atom_site_occupancy
  Bi  Bi1       1.0  0.24999993189666186  0.24999998666011405  0.2500000351828248  1.0000
  Bi  Bi2       1.0  0.7499999452941274  0.7500001500876908  0.7499999265620192  1.0000
  Ag  Ag1       1.0  0.9999999425549094  2.683868535857707e-08  4.817374664274198e-08  1.0000
  O   O1        1.0  0.25909503315314264  0.25909502273911267  0.7409049389174366  1.0000
  O   O2        1.0  0.7409050205281383  0.7409049261378967  0.2590950431266885  1.0000
  O   O3        1.0  0.7409050193461267  0.2590949280595099  0.25909506977814767  1.0000
  O   O4        1.0  0.25909505902129887  0.740905016344385  0.740904956943701  1.0000
  O   O5        1.0  0.25909502492465153  0.7409050467527082  0.2590949933810509  1.0000
  O   O6        1.0  0.7409050022176599  0.2590948931780734  0.7409049899704019  1.0000
