data_image0
_chemical_formula_structural       Bi2AsS6
_chemical_formula_sum              "Bi2 As1 S6"
_cell_length_a       6.456622717903433
_cell_length_b       6.456621531476439
_cell_length_c       6.4566218028922036
_cell_angle_alpha    59.99999653503682
_cell_angle_beta     60.000004531378515
_cell_angle_gamma    59.99999996791104

_space_group_name_H-M_alt    "P 1"
_space_group_IT_number       1

loop_
  _space_group_symop_operation_xyz
  'x, y, z'

loop_
  _atom_site_type_symbol
  _atom_site_label
  _atom_site_symmetry_multiplicity
  _atom_site_fract_x
  _atom_site_fract_y
  _atom_site_fract_z
  _atom_site_occupancy
  Bi  Bi1       1.0  0.24999999232106357  0.24999982693326026  0.25000005031139083  1.0000
  Bi  Bi2       1.0  0.7499999667283955  0.7500000802144898  0.7500003813865742  1.0000
  As  As1       1.0  3.9516863096633014e-09  2.617697165391127e-07  3.5958226917470734e-08  1.0000
  S   S1        1.0  0.2555962882951427  0.2555964030235206  0.7444035938265203  1.0000
  S   S2        1.0  0.744403619650193  0.7444034642897194  0.25559623594338826  1.0000
  S   S3        1.0  0.7444037648110085  0.2555962182541455  0.2555962780608182  1.0000
  S   S4        1.0  0.2555963624934793  0.7444036187089896  0.7444035516812172  1.0000
  S   S5        1.0  0.2555964086436696  0.7444038366746624  0.2555961770206149  1.0000
  S   S6        1.0  0.7444035878504355  0.25559626395506646  0.7444037070995195  1.0000
