data_image0
_chemical_formula_structural       Bi2AgS6
_chemical_formula_sum              "Bi2 Ag1 S6"
_cell_length_a       6.384289312125265
_cell_length_b       6.384289103020934
_cell_length_c       6.384288933809325
_cell_angle_alpha    59.99999925912159
_cell_angle_beta     59.99999900737057
_cell_angle_gamma    59.99999962370887

_space_group_name_H-M_alt    "P 1"
_space_group_IT_number       1

loop_
  _space_group_symop_operation_xyz
  'x, y, z'

loop_
  _atom_site_type_symbol
  _atom_site_label
  _atom_site_symmetry_multiplicity
  _atom_site_fract_x
  _atom_site_fract_y
  _atom_site_fract_z
  _atom_site_occupancy
  Bi  Bi1       1.0  0.2500000172448686  0.2500001758720928  0.2499999297505944  1.0000
  Bi  Bi2       1.0  0.7500001307546985  0.7500002091663369  0.7499996802803178  1.0000
  Ag  Ag1       1.0  0.9999999640462365  0.9999999884897606  5.5058905375659386e-08  1.0000
  S   S1        1.0  0.26865084687193846  0.26865079382080226  0.7313491650783444  1.0000
  S   S2        1.0  0.7313492409750503  0.7313491097059646  0.26865084109230764  1.0000
  S   S3        1.0  0.7313491858762879  0.26865075503785824  0.2686508292971633  1.0000
  S   S4        1.0  0.26865071458163703  0.7313492060401017  0.7313492402260825  1.0000
  S   S5        1.0  0.26865076591956155  0.7313491096068052  0.2686508791908323  1.0000
  S   S6        1.0  0.7313491362405371  0.26865066730733134  0.7313493724112591  1.0000
