data_image0
_chemical_formula_structural       Bi2AsSe6
_chemical_formula_sum              "Bi2 As1 Se6"
_cell_length_a       6.6895575659175535
_cell_length_b       6.6895575821544755
_cell_length_c       6.6895573525619465
_cell_angle_alpha    59.99999931631006
_cell_angle_beta     59.9999986093204
_cell_angle_gamma    59.99999999375546

_space_group_name_H-M_alt    "P 1"
_space_group_IT_number       1

loop_
  _space_group_symop_operation_xyz
  'x, y, z'

loop_
  _atom_site_type_symbol
  _atom_site_label
  _atom_site_symmetry_multiplicity
  _atom_site_fract_x
  _atom_site_fract_y
  _atom_site_fract_z
  _atom_site_occupancy
  Bi  Bi1       1.0  0.24999973014181798  0.2500001791842542  0.2500002426320315  1.0000
  Bi  Bi2       1.0  0.7500000516181186  0.7499997301563454  0.750000122484352  1.0000
  As  As1       1.0  1.4523976438114728e-08  0.9999999926766769  0.9999999500587893  1.0000
  Se  Se1       1.0  0.26465176889680625  0.26465184461878816  0.7353481499473522  1.0000
  Se  Se2       1.0  0.7353483007578201  0.7353481745716699  0.2646517950564021  1.0000
  Se  Se3       1.0  0.7353482695620988  0.26465184644846845  0.2646516887623206  1.0000
  Se  Se4       1.0  0.2646518059499549  0.7353482276669174  0.7353481795093713  1.0000
  Se  Se5       1.0  0.264651748778003  0.7353481854214224  0.26465173705122647  1.0000
  Se  Se6       1.0  0.7353483154020971  0.26465181912238933  0.7353481328056829  1.0000
