data_image0
_chemical_formula_structural       Bi2AgTe6
_chemical_formula_sum              "Bi2 Ag1 Te6"
_cell_length_a       7.23553806538966
_cell_length_b       7.235538049763221
_cell_length_c       7.23553853830902
_cell_angle_alpha    59.99999698087047
_cell_angle_beta     59.99999770940232
_cell_angle_gamma    60.000002413512355

_space_group_name_H-M_alt    "P 1"
_space_group_IT_number       1

loop_
  _space_group_symop_operation_xyz
  'x, y, z'

loop_
  _atom_site_type_symbol
  _atom_site_label
  _atom_site_symmetry_multiplicity
  _atom_site_fract_x
  _atom_site_fract_y
  _atom_site_fract_z
  _atom_site_occupancy
  Bi  Bi1       1.0  0.25000002705367563  0.2499997885104333  0.2500000284147775  1.0000
  Bi  Bi2       1.0  0.7499999442779711  0.7499998767205831  0.7500000432082646  1.0000
  Ag  Ag1       1.0  0.9999999385823505  4.062431173964163e-08  0.9999999841373932  1.0000
  Te  Te1       1.0  0.27128813035470367  0.27128810427235933  0.7287118838102485  1.0000
  Te  Te2       1.0  0.7287118290256968  0.7287119367335653  0.2712881095559954  1.0000
  Te  Te3       1.0  0.7287119255699462  0.2712881964131593  0.2712880806829156  1.0000
  Te  Te4       1.0  0.2712881826609203  0.7287119055292443  0.728711817464325  1.0000
  Te  Te5       1.0  0.27128815569410797  0.7287118924539394  0.271288183050189  1.0000
  Te  Te6       1.0  0.7287118626671906  0.2712882636542114  0.7287118725377424  1.0000
