data_image0
_chemical_formula_structural       Bi2AuSe6
_chemical_formula_sum              "Bi2 Au1 Se6"
_cell_length_a       6.732806481673606
_cell_length_b       6.732806681433897
_cell_length_c       6.7328064719794485
_cell_angle_alpha    60.00000421737319
_cell_angle_beta     59.999998789178974
_cell_angle_gamma    60.000000614426625

_space_group_name_H-M_alt    "P 1"
_space_group_IT_number       1

loop_
  _space_group_symop_operation_xyz
  'x, y, z'

loop_
  _atom_site_type_symbol
  _atom_site_label
  _atom_site_symmetry_multiplicity
  _atom_site_fract_x
  _atom_site_fract_y
  _atom_site_fract_z
  _atom_site_occupancy
  Bi  Bi1       1.0  0.24999984113502338  0.2500001695622245  0.25000004939218046  1.0000
  Bi  Bi2       1.0  0.7499999580287594  0.7499999611465202  0.7500000174914  1.0000
  Au  Au1       1.0  0.9999999989953555  0.9999999927237185  0.9999999892878155  1.0000
  Se  Se1       1.0  0.26745281743839205  0.267452711366517  0.7325472228663399  1.0000
  Se  Se2       1.0  0.7325472517173466  0.7325472010537945  0.26745278994544136  1.0000
  Se  Se3       1.0  0.7325472399368897  0.26745276703583987  0.26745281399551585  1.0000
  Se  Se4       1.0  0.26745283957740007  0.7325472017756497  0.7325472010877556  1.0000
  Se  Se5       1.0  0.26745279392071764  0.7325471609251529  0.2674527413235905  1.0000
  Se  Se6       1.0  0.7325472508767173  0.26745282971517564  0.7325471732646293  1.0000
