data_image0
_chemical_formula_structural       Bi2BO6
_chemical_formula_sum              "Bi2 B1 O6"
_cell_length_a       5.1361049759845345
_cell_length_b       5.1361050480118795
_cell_length_c       5.136104204797416
_cell_angle_alpha    60.000007023941116
_cell_angle_beta     60.00000573533832
_cell_angle_gamma    60.000002519052174

_space_group_name_H-M_alt    "P 1"
_space_group_IT_number       1

loop_
  _space_group_symop_operation_xyz
  'x, y, z'

loop_
  _atom_site_type_symbol
  _atom_site_label
  _atom_site_symmetry_multiplicity
  _atom_site_fract_x
  _atom_site_fract_y
  _atom_site_fract_z
  _atom_site_occupancy
  Bi  Bi1       1.0  0.24999996867160812  0.2499999198807478  0.25000005193058816  1.0000
  Bi  Bi2       1.0  0.7499999578752253  0.7500001840972954  0.7500001045461393  1.0000
  B   B1        1.0  0.9999998832024221  2.6945742504779273e-07  8.721816261895534e-08  1.0000
  O   O1        1.0  0.22690397564858342  0.22690380737231888  0.7730960862940771  1.0000
  O   O2        1.0  0.7730960485296164  0.7730960104562454  0.2269038879675624  1.0000
  O   O3        1.0  0.7730962025265445  0.2269038970364996  0.22690381513675698  1.0000
  O   O4        1.0  0.2269039180048179  0.7730960161752191  0.7730960145817007  1.0000
  O   O5        1.0  0.22690396740206126  0.773096091357243  0.22690382726086483  1.0000
  O   O6        1.0  0.7730961082120463  0.22690374077879352  0.773096100500078  1.0000
