data_image0
_chemical_formula_structural       Bi2BSe6
_chemical_formula_sum              "Bi2 B1 Se6"
_cell_length_a       6.48040400165914
_cell_length_b       6.480404412359796
_cell_length_c       6.480404363365136
_cell_angle_alpha    60.0000001391206
_cell_angle_beta     60.00000094268143
_cell_angle_gamma    60.000001151840635

_space_group_name_H-M_alt    "P 1"
_space_group_IT_number       1

loop_
  _space_group_symop_operation_xyz
  'x, y, z'

loop_
  _atom_site_type_symbol
  _atom_site_label
  _atom_site_symmetry_multiplicity
  _atom_site_fract_x
  _atom_site_fract_y
  _atom_site_fract_z
  _atom_site_occupancy
  Bi  Bi1       1.0  0.25000021909924874  0.2499999745114279  0.24999987250327568  1.0000
  Bi  Bi2       1.0  0.749999927987138  0.7499999518830917  0.7499999170679634  1.0000
  B   B1        1.0  1.1626694479045598e-08  1.3229442438626333e-08  2.769288494741586e-08  1.0000
  Se  Se1       1.0  0.2402875995767788  0.24028755420149958  0.7597123811614624  1.0000
  Se  Se2       1.0  0.7597123592095337  0.7597124666890388  0.2402876512872256  1.0000
  Se  Se3       1.0  0.759712319706044  0.2402875584306638  0.24028764230344785  1.0000
  Se  Se4       1.0  0.24028760672008256  0.7597124152118643  0.7597124206906561  1.0000
  Se  Se5       1.0  0.24028757341300835  0.7597124232295079  0.24028763802027306  1.0000
  Se  Se6       1.0  0.7597123621909182  0.24028762978967666  0.7597124609385091  1.0000
