data_image0
_chemical_formula_structural       Bi2BeTe6
_chemical_formula_sum              "Bi2 Be1 Te6"
_cell_length_a       7.092864291150554
_cell_length_b       7.092864230571766
_cell_length_c       7.092864906715911
_cell_angle_alpha    59.99999905651107
_cell_angle_beta     60.00000200648316
_cell_angle_gamma    59.99999887995223

_space_group_name_H-M_alt    "P 1"
_space_group_IT_number       1

loop_
  _space_group_symop_operation_xyz
  'x, y, z'

loop_
  _atom_site_type_symbol
  _atom_site_label
  _atom_site_symmetry_multiplicity
  _atom_site_fract_x
  _atom_site_fract_y
  _atom_site_fract_z
  _atom_site_occupancy
  Bi  Bi1       1.0  0.249999915833807  0.24999999004472254  0.25000005856795265  1.0000
  Bi  Bi2       1.0  0.7500001006223914  0.7500000633774885  0.7499999116355682  1.0000
  Be  Be1       1.0  0.9999999569954188  1.778530095633768e-07  8.907108416901537e-08  1.0000
  Te  Te1       1.0  0.24318279194551926  0.2431830136707063  0.7568170979914683  1.0000
  Te  Te2       1.0  0.7568170113447179  0.7568170345713222  0.24318298561471918  1.0000
  Te  Te3       1.0  0.7568171808319998  0.24318279468301965  0.2431829314158803  1.0000
  Te  Te4       1.0  0.2431829523814179  0.7568170549852578  0.756816924380834  1.0000
  Te  Te5       1.0  0.24318282095470506  0.756817158641213  0.2431829740058046  1.0000
  Te  Te6       1.0  0.7568172523029629  0.24318270484089158  0.7568170416190204  1.0000
