data_image0
_chemical_formula_structural       Bi2BTe6
_chemical_formula_sum              "Bi2 B1 Te6"
_cell_length_a       7.160422143586284
_cell_length_b       7.160421299993782
_cell_length_c       7.160421206983725
_cell_angle_alpha    59.999998379306945
_cell_angle_beta     60.00000468550443
_cell_angle_gamma    59.999991390985905

_space_group_name_H-M_alt    "P 1"
_space_group_IT_number       1

loop_
  _space_group_symop_operation_xyz
  'x, y, z'

loop_
  _atom_site_type_symbol
  _atom_site_label
  _atom_site_symmetry_multiplicity
  _atom_site_fract_x
  _atom_site_fract_y
  _atom_site_fract_z
  _atom_site_occupancy
  Bi  Bi1       1.0  0.2500000562078874  0.2499999203772022  0.24999985160798124  1.0000
  Bi  Bi2       1.0  0.7499996941651842  0.7500002024243679  0.7500003506905594  1.0000
  B   B1        1.0  0.9999998158180439  1.0262623532273529e-07  0.9999999709495639  1.0000
  Te  Te1       1.0  0.2322788448582787  0.23227844799056496  0.7677213649926297  1.0000
  Te  Te2       1.0  0.76772131380279  0.7677214900837849  0.23227848810932553  1.0000
  Te  Te3       1.0  0.7677213721181478  0.23227869825930378  0.2322786307661112  1.0000
  Te  Te4       1.0  0.23227866141012193  0.7677212620507337  0.7677213841131043  1.0000
  Te  Te5       1.0  0.23227885234382029  0.7677213607437297  0.23227853430069584  1.0000
  Te  Te6       1.0  0.7677213851901102  0.23227850036094627  0.7677214421440308  1.0000
