data_image0
_chemical_formula_structural       Bi2BaSe6
_chemical_formula_sum              "Bi2 Ba1 Se6"
_cell_length_a       7.380750521044337
_cell_length_b       7.380749891763297
_cell_length_c       7.38075003613334
_cell_angle_alpha    60.000007441676466
_cell_angle_beta     60.00000732053802
_cell_angle_gamma    59.99999867598699

_space_group_name_H-M_alt    "P 1"
_space_group_IT_number       1

loop_
  _space_group_symop_operation_xyz
  'x, y, z'

loop_
  _atom_site_type_symbol
  _atom_site_label
  _atom_site_symmetry_multiplicity
  _atom_site_fract_x
  _atom_site_fract_y
  _atom_site_fract_z
  _atom_site_occupancy
  Bi  Bi1       1.0  0.2499998681594583  0.2499997996198523  0.2500001060227476  1.0000
  Bi  Bi2       1.0  0.7499999162751303  0.7499998668039337  0.7500002235606534  1.0000
  Ba  Ba1       1.0  1.3901596766213332e-07  6.637509359275051e-08  7.614809141620385e-08  1.0000
  Se  Se1       1.0  0.3016114619941497  0.301611307795336  0.6983888273528814  1.0000
  Se  Se2       1.0  0.6983886020042638  0.6983885477974199  0.30161104159987717  1.0000
  Se  Se3       1.0  0.6983885258943233  0.3016118374737101  0.30161119624298544  1.0000
  Se  Se4       1.0  0.3016113232582205  0.6983884279852127  0.6983883611292565  1.0000
  Se  Se5       1.0  0.3016116572209416  0.6983886034231754  0.30161162901632455  1.0000
  Se  Se6       1.0  0.698388516396355  0.3016115475387542  0.6983885441659968  1.0000
