data_image0
_chemical_formula_structural       Bi2BaS6
_chemical_formula_sum              "Bi2 Ba1 S6"
_cell_length_a       7.099861749138882
_cell_length_b       7.099862002496928
_cell_length_c       7.099861942679125
_cell_angle_alpha    60.00000026429481
_cell_angle_beta     59.99999998968325
_cell_angle_gamma    59.99999982240815

_space_group_name_H-M_alt    "P 1"
_space_group_IT_number       1

loop_
  _space_group_symop_operation_xyz
  'x, y, z'

loop_
  _atom_site_type_symbol
  _atom_site_label
  _atom_site_symmetry_multiplicity
  _atom_site_fract_x
  _atom_site_fract_y
  _atom_site_fract_z
  _atom_site_occupancy
  Bi  Bi1       1.0  0.2499997888661742  0.2500000615101097  0.2500001467041038  1.0000
  Bi  Bi2       1.0  0.7500001613723499  0.7499999275014035  0.7499999416579369  1.0000
  Ba  Ba1       1.0  0.9999998477638904  0.9999998809731875  6.051475633973217e-09  1.0000
  S   S1        1.0  0.2918820795190416  0.29188214530102596  0.7081179370354868  1.0000
  S   S2        1.0  0.7081180420774129  0.7081179834376155  0.2918820112772848  1.0000
  S   S3        1.0  0.708117956016509  0.29188216422299434  0.2918820213962063  1.0000
  S   S4        1.0  0.29188196100111097  0.708118031791675  0.7081179603560148  1.0000
  S   S5        1.0  0.291882039376154  0.7081177952081162  0.29188219799476267  1.0000
  S   S6        1.0  0.7081181135865715  0.2918820247508179  0.7081177791634361  1.0000
