data_image0
_chemical_formula_structural       Bi2BS6
_chemical_formula_sum              "Bi2 B1 S6"
_cell_length_a       6.253930989714792
_cell_length_b       6.2539315871311425
_cell_length_c       6.253931125381504
_cell_angle_alpha    59.999999158167945
_cell_angle_beta     59.99999710373371
_cell_angle_gamma    59.99999803778625

_space_group_name_H-M_alt    "P 1"
_space_group_IT_number       1

loop_
  _space_group_symop_operation_xyz
  'x, y, z'

loop_
  _atom_site_type_symbol
  _atom_site_label
  _atom_site_symmetry_multiplicity
  _atom_site_fract_x
  _atom_site_fract_y
  _atom_site_fract_z
  _atom_site_occupancy
  Bi  Bi1       1.0  0.2500002893507979  0.24999960112652303  0.25000005840059736  1.0000
  Bi  Bi2       1.0  0.7499999180918442  0.7499998530605017  0.749999979833112  1.0000
  B   B1        1.0  0.9999999557417224  9.400127826202015e-08  0.9999998951787848  1.0000
  S   S1        1.0  0.23170119597310776  0.2317013010156785  0.7682987826529903  1.0000
  S   S2        1.0  0.7682986403572809  0.7682988953897495  0.23170124911498927  1.0000
  S   S3        1.0  0.7682986947028742  0.2317012947037049  0.23170124459379174  1.0000
  S   S4        1.0  0.23170122126419657  0.7682988566594444  0.7682987331001182  1.0000
  S   S5        1.0  0.23170131404148028  0.7682987743017783  0.23170119863701352  1.0000
  S   S6        1.0  0.7682987365242742  0.2317013222272866  0.7682988606981598  1.0000
