data_image0
_chemical_formula_structural       Bi2BaTe6
_chemical_formula_sum              "Bi2 Ba1 Te6"
_cell_length_a       8.0033195662792
_cell_length_b       8.003319174687716
_cell_length_c       8.003319192612429
_cell_angle_alpha    60.000001821489924
_cell_angle_beta     59.99999980647893
_cell_angle_gamma    59.99999927365997

_space_group_name_H-M_alt    "P 1"
_space_group_IT_number       1

loop_
  _space_group_symop_operation_xyz
  'x, y, z'

loop_
  _atom_site_type_symbol
  _atom_site_label
  _atom_site_symmetry_multiplicity
  _atom_site_fract_x
  _atom_site_fract_y
  _atom_site_fract_z
  _atom_site_occupancy
  Bi  Bi1       1.0  0.2500000205474155  0.2500000538901642  0.24999991606020186  1.0000
  Bi  Bi2       1.0  0.7500000601896035  0.749999884686897  0.7500001947711925  1.0000
  Ba  Ba1       1.0  3.163126829687672e-09  0.9999999602123011  6.20441410982915e-08  1.0000
  Te  Te1       1.0  0.297718564418019  0.29771868040777416  0.7022813451287605  1.0000
  Te  Te2       1.0  0.7022814150470413  0.7022812979569819  0.29771857528652607  1.0000
  Te  Te3       1.0  0.7022813298692947  0.2977187552502228  0.2977185535200751  1.0000
  Te  Te4       1.0  0.2977186106682386  0.7022813225837854  0.7022813903520593  1.0000
  Te  Te5       1.0  0.2977187401221354  0.7022812714456236  0.29771863639096896  1.0000
  Te  Te6       1.0  0.7022812557660386  0.29771877884305414  0.702281324815549  1.0000
