data_image0
_chemical_formula_structural       Bi2BeS6
_chemical_formula_sum              "Bi2 Be1 S6"
_cell_length_a       6.190490399476757
_cell_length_b       6.190490749961759
_cell_length_c       6.19049023183827
_cell_angle_alpha    59.99999913338427
_cell_angle_beta     60.00000038580718
_cell_angle_gamma    60.0000035449256

_space_group_name_H-M_alt    "P 1"
_space_group_IT_number       1

loop_
  _space_group_symop_operation_xyz
  'x, y, z'

loop_
  _atom_site_type_symbol
  _atom_site_label
  _atom_site_symmetry_multiplicity
  _atom_site_fract_x
  _atom_site_fract_y
  _atom_site_fract_z
  _atom_site_occupancy
  Bi  Bi1       1.0  0.24999989659274763  0.2500003047451862  0.24999990669669953  1.0000
  Bi  Bi2       1.0  0.7500000970307065  0.7499998379700047  0.7500000319813387  1.0000
  Be  Be1       1.0  1.18639339586051e-09  3.5611727968784315e-08  0.999999992908605  1.0000
  S   S1        1.0  0.2546039499463329  0.2546038292131508  0.745396131223967  1.0000
  S   S2        1.0  0.7453960680422452  0.7453961117022473  0.25460388647912524  1.0000
  S   S3        1.0  0.7453960915023647  0.2546038989445982  0.25460393983935736  1.0000
  S   S4        1.0  0.2546039174604285  0.7453960914315338  0.7453960463385925  1.0000
  S   S5        1.0  0.2546039432130034  0.7453960553154394  0.2546039629755669  1.0000
  S   S6        1.0  0.7453960374893629  0.25460385196665763  0.7453961095718543  1.0000
