data_image0
_chemical_formula_structural       Bi2CdS6
_chemical_formula_sum              "Bi2 Cd1 S6"
_cell_length_a       6.394560621224803
_cell_length_b       6.394560501673435
_cell_length_c       6.394560849632515
_cell_angle_alpha    59.99999557943854
_cell_angle_beta     59.99999697787638
_cell_angle_gamma    59.99999473635689

_space_group_name_H-M_alt    "P 1"
_space_group_IT_number       1

loop_
  _space_group_symop_operation_xyz
  'x, y, z'

loop_
  _atom_site_type_symbol
  _atom_site_label
  _atom_site_symmetry_multiplicity
  _atom_site_fract_x
  _atom_site_fract_y
  _atom_site_fract_z
  _atom_site_occupancy
  Bi  Bi1       1.0  0.25000059749077824  0.25000004701231976  0.2499996232155709  1.0000
  Bi  Bi2       1.0  0.7499999592369475  0.7500008247961806  0.7499996382996093  1.0000
  Cd  Cd1       1.0  0.9999999620791579  4.650003799711047e-16  4.085402803663082e-08  1.0000
  S   S1        1.0  0.2743041684158347  0.2743037972922779  0.725696062689383  1.0000
  S   S2        1.0  0.7256957884546249  0.725696019190445  0.2743040514386131  1.0000
  S   S3        1.0  0.7256959412414018  0.2743036741299396  0.2743043200163954  1.0000
  S   S4        1.0  0.2743038897959661  0.7256958914495591  0.7256959386925518  1.0000
  S   S5        1.0  0.27430386420923797  0.7256959879077737  0.27430419272739964  1.0000
  S   S6        1.0  0.7256958165279287  0.2743037577091578  0.7256961433788444  1.0000
