data_image0
_chemical_formula_structural       Bi2CaS6
_chemical_formula_sum              "Bi2 Ca1 S6"
_cell_length_a       6.601861611274866
_cell_length_b       6.6018616906738785
_cell_length_c       6.6018616926440155
_cell_angle_alpha    59.999999966366445
_cell_angle_beta     59.99999972345584
_cell_angle_gamma    59.99999915044205

_space_group_name_H-M_alt    "P 1"
_space_group_IT_number       1

loop_
  _space_group_symop_operation_xyz
  'x, y, z'

loop_
  _atom_site_type_symbol
  _atom_site_label
  _atom_site_symmetry_multiplicity
  _atom_site_fract_x
  _atom_site_fract_y
  _atom_site_fract_z
  _atom_site_occupancy
  Bi  Bi1       1.0  0.25000041699293735  0.24999979618771775  0.24999986236051228  1.0000
  Bi  Bi2       1.0  0.7500000203424476  0.7499999636599028  0.7500000557206983  1.0000
  Ca  Ca1       1.0  0.9999999689383143  1.6139811659263438e-07  0.9999999196845419  1.0000
  S   S1        1.0  0.27455879998430166  0.2745587914755069  0.7254411692538123  1.0000
  S   S2        1.0  0.7254410145244035  0.7254412522101873  0.2745588531885582  1.0000
  S   S3        1.0  0.7254411408231259  0.2745588162928213  0.27455875388560486  1.0000
  S   S4        1.0  0.27455875878899305  0.7254411977104598  0.7254412120665044  1.0000
  S   S5        1.0  0.2745587921042381  0.7254412481444676  0.27455877995388117  1.0000
  S   S6        1.0  0.7254410875438175  0.27455877327941647  0.7254413922135591  1.0000
