data_image0
_chemical_formula_structural       Bi2CaSe6
_chemical_formula_sum              "Bi2 Ca1 Se6"
_cell_length_a       6.955459033716261
_cell_length_b       6.955459093117341
_cell_length_c       6.955459013295054
_cell_angle_alpha    60.00000131943649
_cell_angle_beta     60.00000118670248
_cell_angle_gamma    59.99999944838883

_space_group_name_H-M_alt    "P 1"
_space_group_IT_number       1

loop_
  _space_group_symop_operation_xyz
  'x, y, z'

loop_
  _atom_site_type_symbol
  _atom_site_label
  _atom_site_symmetry_multiplicity
  _atom_site_fract_x
  _atom_site_fract_y
  _atom_site_fract_z
  _atom_site_occupancy
  Bi  Bi1       1.0  0.2500001564808645  0.2499999752105089  0.2499997903854534  1.0000
  Bi  Bi2       1.0  0.7500000808356013  0.7499999907826066  0.7500000749046162  1.0000
  Ca  Ca1       1.0  0.9999999899557594  0.9999999753482434  0.9999998865155115  1.0000
  Se  Se1       1.0  0.27662842686216566  0.2766284509251096  0.7233715907542516  1.0000
  Se  Se2       1.0  0.7233715195766183  0.7233716207183943  0.27662840453017346  1.0000
  Se  Se3       1.0  0.7233716211106732  0.2766284627434233  0.2766283955019559  1.0000
  Se  Se4       1.0  0.2766283048368158  0.723371580726646  0.7233716859367783  1.0000
  Se  Se5       1.0  0.276628398231767  0.7233716394358382  0.2766284310290022  1.0000
  Se  Se6       1.0  0.7233715036538785  0.2766283019055282  0.7233717436971164  1.0000
