data_image0
_chemical_formula_structural       Bi2CuO6
_chemical_formula_sum              "Bi2 Cu1 O6"
_cell_length_a       5.321319996253626
_cell_length_b       5.321319595582499
_cell_length_c       5.32131987880815
_cell_angle_alpha    60.000000167953075
_cell_angle_beta     60.000000455232154
_cell_angle_gamma    60.00000089300053

_space_group_name_H-M_alt    "P 1"
_space_group_IT_number       1

loop_
  _space_group_symop_operation_xyz
  'x, y, z'

loop_
  _atom_site_type_symbol
  _atom_site_label
  _atom_site_symmetry_multiplicity
  _atom_site_fract_x
  _atom_site_fract_y
  _atom_site_fract_z
  _atom_site_occupancy
  Bi  Bi1       1.0  0.2499999424361134  0.2500000577278225  0.25000006516926354  1.0000
  Bi  Bi2       1.0  0.7499998637426247  0.74999985556527  0.7500001801234021  1.0000
  Cu  Cu1       1.0  9.81930359117277e-09  1.6111067896830255e-08  0.9999999795178824  1.0000
  O   O1        1.0  0.24968426477846364  0.2496841748611969  0.7503157628531884  1.0000
  O   O2        1.0  0.7503157933327175  0.7503158028761697  0.24968418894634195  1.0000
  O   O3        1.0  0.7503157757397566  0.2496843046425899  0.24968419265471542  1.0000
  O   O4        1.0  0.24968432357791423  0.7503157122216579  0.7503157697174214  1.0000
  O   O5        1.0  0.24968425702370203  0.7503157467878837  0.24968413967763492  1.0000
  O   O6        1.0  0.7503157892937309  0.24968431840956423  0.750315731066371  1.0000
