data_image0
_chemical_formula_structural       Bi2CaTe6
_chemical_formula_sum              "Bi2 Ca1 Te6"
_cell_length_a       7.596094697031982
_cell_length_b       7.59609485533526
_cell_length_c       7.596094754543238
_cell_angle_alpha    59.999998720297356
_cell_angle_beta     59.99999862738194
_cell_angle_gamma    59.99999740988102

_space_group_name_H-M_alt    "P 1"
_space_group_IT_number       1

loop_
  _space_group_symop_operation_xyz
  'x, y, z'

loop_
  _atom_site_type_symbol
  _atom_site_label
  _atom_site_symmetry_multiplicity
  _atom_site_fract_x
  _atom_site_fract_y
  _atom_site_fract_z
  _atom_site_occupancy
  Bi  Bi1       1.0  0.24999996439844194  0.24999999271988965  0.2500000888383036  1.0000
  Bi  Bi2       1.0  0.7500000838721234  0.7499999168909443  0.7499997844911714  1.0000
  Ca  Ca1       1.0  0.9999999379068022  0.9999999080969089  2.4287285423130387e-07  1.0000
  Te  Te1       1.0  0.28320673468122043  0.2832068828312182  0.7167931608690233  1.0000
  Te  Te2       1.0  0.7167932549761944  0.7167932573435042  0.28320697534855366  1.0000
  Te  Te3       1.0  0.7167931924178592  0.28320682922215124  0.2832066826356618  1.0000
  Te  Te4       1.0  0.28320683340115244  0.7167932480715136  0.7167931496733551  1.0000
  Te  Te5       1.0  0.283206724489223  0.7167931289183262  0.28320677927849164  1.0000
  Te  Te6       1.0  0.7167932637429973  0.28320684679823965  0.7167931370935972  1.0000
