data_image0
_chemical_formula_structural       Bi2CrS6
_chemical_formula_sum              "Bi2 Cr1 S6"
_cell_length_a       6.312118070859285
_cell_length_b       6.312118239450486
_cell_length_c       6.312118017554046
_cell_angle_alpha    60.000000766556965
_cell_angle_beta     60.000001186085996
_cell_angle_gamma    60.00000108709304

_space_group_name_H-M_alt    "P 1"
_space_group_IT_number       1

loop_
  _space_group_symop_operation_xyz
  'x, y, z'

loop_
  _atom_site_type_symbol
  _atom_site_label
  _atom_site_symmetry_multiplicity
  _atom_site_fract_x
  _atom_site_fract_y
  _atom_site_fract_z
  _atom_site_occupancy
  Bi  Bi1       1.0  0.24999980852206144  0.2499998557218032  0.2500001801259374  1.0000
  Bi  Bi2       1.0  0.7499998682945576  0.7500000774662114  0.7499996677996554  1.0000
  Cr  Cr1       1.0  0.9999999715802378  1.940307263765921e-08  0.9999999443066818  1.0000
  S   S1        1.0  0.2547277959191955  0.25472778090139364  0.745272231970835  1.0000
  S   S2        1.0  0.7452722140400674  0.7452721736299966  0.2547279472573748  1.0000
  S   S3        1.0  0.7452722554966968  0.25472775215678106  0.25472793601403687  1.0000
  S   S4        1.0  0.254727900400646  0.745272351778265  0.7452721098015942  1.0000
  S   S5        1.0  0.25472789061636886  0.745272214020554  0.25472780347878154  1.0000
  S   S6        1.0  0.7452722836314816  0.2547277909588247  0.7452721955054442  1.0000
