data_image0
_chemical_formula_structural       Bi2CuTe6
_chemical_formula_sum              "Bi2 Cu1 Te6"
_cell_length_a       7.100091157063594
_cell_length_b       7.100090955975468
_cell_length_c       7.100091235030885
_cell_angle_alpha    60.00000365216487
_cell_angle_beta     59.99999958136522
_cell_angle_gamma    60.00000210493453

_space_group_name_H-M_alt    "P 1"
_space_group_IT_number       1

loop_
  _space_group_symop_operation_xyz
  'x, y, z'

loop_
  _atom_site_type_symbol
  _atom_site_label
  _atom_site_symmetry_multiplicity
  _atom_site_fract_x
  _atom_site_fract_y
  _atom_site_fract_z
  _atom_site_occupancy
  Bi  Bi1       1.0  0.2500000407665411  0.2500001602825911  0.24999977809325355  1.0000
  Bi  Bi2       1.0  0.7500001103660364  0.7499999409319785  0.7499997073862811  1.0000
  Cu  Cu1       1.0  3.0127743890921534e-08  1.207479706758565e-08  2.396857334758774e-08  1.0000
  Te  Te1       1.0  0.2621210865210033  0.26212118615631297  0.7378788726534754  1.0000
  Te  Te2       1.0  0.7378789003225056  0.7378788029351954  0.26212127637748217  1.0000
  Te  Te3       1.0  0.7378788308094909  0.26212114093419686  0.26212119234122705  1.0000
  Te  Te4       1.0  0.26212120282245427  0.7378786687603679  0.7378790103180837  1.0000
  Te  Te5       1.0  0.262121047286881  0.737878809273678  0.26212126230436383  1.0000
  Te  Te6       1.0  0.737878757062288  0.2621212833160615  0.7378788642536173  1.0000
