data_image0
_chemical_formula_structural       Bi2CrO6
_chemical_formula_sum              "Bi2 Cr1 O6"
_cell_length_a       5.390801877607554
_cell_length_b       5.390801578345163
_cell_length_c       5.390801583775964
_cell_angle_alpha    60.00000020139046
_cell_angle_beta     60.000000811272756
_cell_angle_gamma    60.00000091495146

_space_group_name_H-M_alt    "P 1"
_space_group_IT_number       1

loop_
  _space_group_symop_operation_xyz
  'x, y, z'

loop_
  _atom_site_type_symbol
  _atom_site_label
  _atom_site_symmetry_multiplicity
  _atom_site_fract_x
  _atom_site_fract_y
  _atom_site_fract_z
  _atom_site_occupancy
  Bi  Bi1       1.0  0.2500000063226966  0.24999999076238708  0.249999934751458  1.0000
  Bi  Bi2       1.0  0.7499999349779043  0.7499998836824339  0.7499999999975213  1.0000
  Cr  Cr1       1.0  0.9999999601895642  0.9999999909123349  1.888401562785472e-08  1.0000
  O   O1        1.0  0.24018190175810036  0.2401819562238117  0.7598180782094631  1.0000
  O   O2        1.0  0.7598180704582566  0.7598180568078912  0.2401820018096479  1.0000
  O   O3        1.0  0.7598181072393694  0.24018196851145263  0.2401818552227117  1.0000
  O   O4        1.0  0.24018198704771707  0.7598180831428257  0.7598181537248042  1.0000
  O   O5        1.0  0.24018192086866608  0.7598181366106559  0.2401818765951174  1.0000
  O   O6        1.0  0.7598181019533878  0.2401819559381101  0.7598181161024727  1.0000
