data_image0
_chemical_formula_structural       Bi2CaO6
_chemical_formula_sum              "Bi2 Ca1 O6"
_cell_length_a       5.539851842921035
_cell_length_b       5.539852018309907
_cell_length_c       5.539851847910558
_cell_angle_alpha    60.00000049087351
_cell_angle_beta     59.99999802301597
_cell_angle_gamma    60.00000095641085

_space_group_name_H-M_alt    "P 1"
_space_group_IT_number       1

loop_
  _space_group_symop_operation_xyz
  'x, y, z'

loop_
  _atom_site_type_symbol
  _atom_site_label
  _atom_site_symmetry_multiplicity
  _atom_site_fract_x
  _atom_site_fract_y
  _atom_site_fract_z
  _atom_site_occupancy
  Bi  Bi1       1.0  0.25000031439854925  0.2500000101748431  0.2499998034437372  1.0000
  Bi  Bi2       1.0  0.7500001814821481  0.7499999332497723  0.7500002080662461  1.0000
  Ca  Ca1       1.0  1.1207099242749108e-07  0.9999999889460516  3.974659759026445e-08  1.0000
  O   O1        1.0  0.27534675759907334  0.27534685799391223  0.724653219924683  1.0000
  O   O2        1.0  0.7246530791600728  0.7246532556615164  0.2753466786203984  1.0000
  O   O3        1.0  0.7246530020275467  0.27534688242241634  0.2753468419083596  1.0000
  O   O4        1.0  0.27534674565356215  0.7246531295366794  0.7246531628545232  1.0000
  O   O5        1.0  0.2753468416313841  0.7246530869080146  0.27534688967105886  1.0000
  O   O6        1.0  0.72465297487675  0.2753468498842271  0.7246531561688884  1.0000
