data_image0
_chemical_formula_structural       Bi2CdTe6
_chemical_formula_sum              "Bi2 Cd1 Te6"
_cell_length_a       7.378367337150709
_cell_length_b       7.378366783885118
_cell_length_c       7.378365305374569
_cell_angle_alpha    60.0000081750553
_cell_angle_beta     60.00001123371935
_cell_angle_gamma    59.99999378431073

_space_group_name_H-M_alt    "P 1"
_space_group_IT_number       1

loop_
  _space_group_symop_operation_xyz
  'x, y, z'

loop_
  _atom_site_type_symbol
  _atom_site_label
  _atom_site_symmetry_multiplicity
  _atom_site_fract_x
  _atom_site_fract_y
  _atom_site_fract_z
  _atom_site_occupancy
  Bi  Bi1       1.0  0.2500001039222572  0.24999984181611712  0.24999977348218438  1.0000
  Bi  Bi2       1.0  0.7499999866489601  0.7500002707494278  0.7500003938370516  1.0000
  Cd  Cd1       1.0  0.9999999758905247  1.4275254074401188e-07  2.659537701407142e-07  1.0000
  Te  Te1       1.0  0.2761693281127203  0.27616971603275964  0.7238305173882199  1.0000
  Te  Te2       1.0  0.7238305472371018  0.7238302205820074  0.27616921258557275  1.0000
  Te  Te3       1.0  0.7238308450396072  0.2761691720570707  0.2761696432029797  1.0000
  Te  Te4       1.0  0.27616945227483675  0.7238304939917953  0.7238301994600683  1.0000
  Te  Te5       1.0  0.27616946487664956  0.7238307138264012  0.27616960787965406  1.0000
  Te  Te6       1.0  0.7238303333116249  0.27616941201848283  0.7238303994670391  1.0000
