data_image0
_chemical_formula_structural       Bi2CuSe6
_chemical_formula_sum              "Bi2 Cu1 Se6"
_cell_length_a       6.577310428038486
_cell_length_b       6.577310286936459
_cell_length_c       6.577310272669147
_cell_angle_alpha    60.000001098447456
_cell_angle_beta     60.0000000110469
_cell_angle_gamma    60.00000035573711

_space_group_name_H-M_alt    "P 1"
_space_group_IT_number       1

loop_
  _space_group_symop_operation_xyz
  'x, y, z'

loop_
  _atom_site_type_symbol
  _atom_site_label
  _atom_site_symmetry_multiplicity
  _atom_site_fract_x
  _atom_site_fract_y
  _atom_site_fract_z
  _atom_site_occupancy
  Bi  Bi1       1.0  0.24999998668972262  0.2500000330223946  0.2499999683798507  1.0000
  Bi  Bi2       1.0  0.7500000567206495  0.7499997564452865  0.7500001147863213  1.0000
  Cu  Cu1       1.0  0.9999999882251268  3.7241507437648226e-09  0.9999999827400647  1.0000
  Se  Se1       1.0  0.2630209312457868  0.26302107089692384  0.7369790066342505  1.0000
  Se  Se2       1.0  0.7369790273610617  0.736978930847369  0.2630210553659729  1.0000
  Se  Se3       1.0  0.7369790330761669  0.26302108320249606  0.26302094241403173  1.0000
  Se  Se4       1.0  0.2630209968340224  0.7369790153697244  0.7369790066333696  1.0000
  Se  Se5       1.0  0.2630210006120533  0.7369790624739012  0.2630209632842958  1.0000
  Se  Se6       1.0  0.7369789789004674  0.2630210398224695  0.7369789574070019  1.0000
