data_image0
_chemical_formula_structural       Bi2CrTe6
_chemical_formula_sum              "Bi2 Cr1 Te6"
_cell_length_a       7.154554071908183
_cell_length_b       7.154554349650409
_cell_length_c       7.154554916638349
_cell_angle_alpha    59.999997849750244
_cell_angle_beta     59.99999621751487
_cell_angle_gamma    59.99999796359965

_space_group_name_H-M_alt    "P 1"
_space_group_IT_number       1

loop_
  _space_group_symop_operation_xyz
  'x, y, z'

loop_
  _atom_site_type_symbol
  _atom_site_label
  _atom_site_symmetry_multiplicity
  _atom_site_fract_x
  _atom_site_fract_y
  _atom_site_fract_z
  _atom_site_occupancy
  Bi  Bi1       1.0  0.24999964900237773  0.2499999818412246  0.25000014260726966  1.0000
  Bi  Bi2       1.0  0.7500001021110672  0.7500001115720958  0.7499998972327544  1.0000
  Cr  Cr1       1.0  1.3384214585906371e-08  3.423678764881625e-09  0.9999999622441227  1.0000
  Te  Te1       1.0  0.25823755272139876  0.25823755457008885  0.7417624759385275  1.0000
  Te  Te2       1.0  0.7417625436965292  0.7417623454053615  0.2582375466720513  1.0000
  Te  Te3       1.0  0.7417626260347738  0.2582375206685489  0.25823761644590615  1.0000
  Te  Te4       1.0  0.25823745616533483  0.7417625042711873  0.7417623899273472  1.0000
  Te  Te5       1.0  0.2582374118768532  0.7417625772340293  0.2582376489918787  1.0000
  Te  Te6       1.0  0.74176264433804  0.2582373997742003  0.7417623230564754  1.0000
