data_image0
_chemical_formula_structural       Bi2CoSe6
_chemical_formula_sum              "Bi2 Co1 Se6"
_cell_length_a       6.578627658356356
_cell_length_b       6.578627226841033
_cell_length_c       6.578627622630538
_cell_angle_alpha    59.99999925706256
_cell_angle_beta     59.99999928287645
_cell_angle_gamma    60.00000027837233

_space_group_name_H-M_alt    "P 1"
_space_group_IT_number       1

loop_
  _space_group_symop_operation_xyz
  'x, y, z'

loop_
  _atom_site_type_symbol
  _atom_site_label
  _atom_site_symmetry_multiplicity
  _atom_site_fract_x
  _atom_site_fract_y
  _atom_site_fract_z
  _atom_site_occupancy
  Bi  Bi1       1.0  0.2500000697895416  0.25000005911299933  0.24999989192882716  1.0000
  Bi  Bi2       1.0  0.7500000518118044  0.7499998180303542  0.7500000923068945  1.0000
  Co  Co1       1.0  4.771063116214708e-08  0.9999999832446753  0.9999999647613859  1.0000
  Se  Se1       1.0  0.25115379310385855  0.25115376885832097  0.7488461964831673  1.0000
  Se  Se2       1.0  0.7488461301716173  0.7488462609446593  0.2511538181860482  1.0000
  Se  Se3       1.0  0.748846185807914  0.2511538699052039  0.25115372116967755  1.0000
  Se  Se4       1.0  0.2511537672000012  0.7488461654828856  0.7488462758407636  1.0000
  Se  Se5       1.0  0.25115377841675374  0.7488461716531394  0.2511538276577607  1.0000
  Se  Se6       1.0  0.7488461840760832  0.25115388793708804  0.748846223952623  1.0000
