data_image0
_chemical_formula_structural       Bi2CO6
_chemical_formula_sum              "Bi2 C1 O6"
_cell_length_a       5.009837870751399
_cell_length_b       5.0098376022224445
_cell_length_c       5.009837144800406
_cell_angle_alpha    60.00000170276736
_cell_angle_beta     60.00000110950362
_cell_angle_gamma    59.999999597109095

_space_group_name_H-M_alt    "P 1"
_space_group_IT_number       1

loop_
  _space_group_symop_operation_xyz
  'x, y, z'

loop_
  _atom_site_type_symbol
  _atom_site_label
  _atom_site_symmetry_multiplicity
  _atom_site_fract_x
  _atom_site_fract_y
  _atom_site_fract_z
  _atom_site_occupancy
  Bi  Bi1       1.0  0.2499999883847302  0.24999997650370276  0.25000003357595  1.0000
  Bi  Bi2       1.0  0.7500000139038515  0.750000032187658  0.7500000270108153  1.0000
  C   C1        1.0  0.9999992025123026  2.420233037791946e-07  0.9999980700756241  1.0000
  O   O1        1.0  0.22978984078498535  0.22978963250450263  0.7702103155895561  1.0000
  O   O2        1.0  0.7702104866254028  0.7702106108761132  0.2297894710798854  1.0000
  O   O3        1.0  0.7702100305791418  0.22978994720160553  0.22979001534211718  1.0000
  O   O4        1.0  0.22978920552680793  0.7702107973383677  0.7702108209154345  1.0000
  O   O5        1.0  0.22979016822764825  0.7702098640195942  0.22979016743975378  1.0000
  O   O6        1.0  0.7702110421109414  0.22978891988719624  0.7702110752051174  1.0000
