data_image0
_chemical_formula_structural       Bi2CN6
_chemical_formula_sum              "Bi2 C1 N6"
_cell_length_a       5.214149281785388
_cell_length_b       5.21414956327853
_cell_length_c       5.214149074330716
_cell_angle_alpha    60.00000106713038
_cell_angle_beta     59.999999741897845
_cell_angle_gamma    60.00000498592653

_space_group_name_H-M_alt    "P 1"
_space_group_IT_number       1

loop_
  _space_group_symop_operation_xyz
  'x, y, z'

loop_
  _atom_site_type_symbol
  _atom_site_label
  _atom_site_symmetry_multiplicity
  _atom_site_fract_x
  _atom_site_fract_y
  _atom_site_fract_z
  _atom_site_occupancy
  Bi  Bi1       1.0  0.24999995074976342  0.25000003039848817  0.2500001431542376  1.0000
  Bi  Bi2       1.0  0.7499999833800081  0.7499999502622524  0.7500001581923399  1.0000
  C   C1        1.0  0.9999994765068648  0.9999978766060318  5.2013534300693726e-06  1.0000
  N   N1        1.0  0.22755953780775623  0.22755915349237713  0.7724411114342524  1.0000
  N   N2        1.0  0.7724427130498027  0.7724425536004197  0.22755773218274108  1.0000
  N   N3        1.0  0.7724427433670567  0.22755686440581058  0.2275578397012902  1.0000
  N   N4        1.0  0.22755974667967852  0.7724398466043146  0.7724408181857421  1.0000
  N   N5        1.0  0.22755635127448057  0.7724433087960196  0.2275570157443722  1.0000
  N   N6        1.0  0.7724394366825632  0.22756030089508258  0.7724400095602095  1.0000
