data_image0
_chemical_formula_structural       Bi2FeN6
_chemical_formula_sum              "Bi2 Fe1 N6"
_cell_length_a       5.536075555441841
_cell_length_b       5.53607591360778
_cell_length_c       5.536075711636223
_cell_angle_alpha    60.00000019170504
_cell_angle_beta     60.000000838687214
_cell_angle_gamma    60.00000046144798

_space_group_name_H-M_alt    "P 1"
_space_group_IT_number       1

loop_
  _space_group_symop_operation_xyz
  'x, y, z'

loop_
  _atom_site_type_symbol
  _atom_site_label
  _atom_site_symmetry_multiplicity
  _atom_site_fract_x
  _atom_site_fract_y
  _atom_site_fract_z
  _atom_site_occupancy
  Bi  Bi1       1.0  0.2500000206829926  0.2500000149202687  0.24999998799641773  1.0000
  Bi  Bi2       1.0  0.7500000179115575  0.7499999894533615  0.749999999261016  1.0000
  Fe  Fe1       1.0  0.9999999622284408  0.9999997566472413  1.1888615621089133e-07  1.0000
  N   N1        1.0  0.23903645338359952  0.2390364796142039  0.7609635508298258  1.0000
  N   N2        1.0  0.7609635790150283  0.760963630949721  0.23903641533175943  1.0000
  N   N3        1.0  0.7609635455538261  0.23903646388340558  0.23903645528943335  1.0000
  N   N4        1.0  0.23903641177862597  0.7609636090714578  0.7609635328894303  1.0000
  N   N5        1.0  0.23903644815066064  0.7609635721142416  0.23903641178685353  1.0000
  N   N6        1.0  0.7609635547109675  0.2390364831422393  0.7609635353816088  1.0000
