data_image0
_chemical_formula_structural       Bi2FeO6
_chemical_formula_sum              "Bi2 Fe1 O6"
_cell_length_a       5.381469540772026
_cell_length_b       5.38146969264048
_cell_length_c       5.381469499333405
_cell_angle_alpha    59.999998712393726
_cell_angle_beta     60.00000071332585
_cell_angle_gamma    59.999998672023125

_space_group_name_H-M_alt    "P 1"
_space_group_IT_number       1

loop_
  _space_group_symop_operation_xyz
  'x, y, z'

loop_
  _atom_site_type_symbol
  _atom_site_label
  _atom_site_symmetry_multiplicity
  _atom_site_fract_x
  _atom_site_fract_y
  _atom_site_fract_z
  _atom_site_occupancy
  Bi  Bi1       1.0  0.24999984851418805  0.2500001652346087  0.25000019006486024  1.0000
  Bi  Bi2       1.0  0.7500000367662759  0.7499998652917899  0.7499998872062135  1.0000
  Fe  Fe1       1.0  0.9999999855862465  4.3241259358328e-08  9.743216753101873e-09  1.0000
  O   O1        1.0  0.23877125736366303  0.23877128289163524  0.7612286148623455  1.0000
  O   O2        1.0  0.7612287853783269  0.7612286292902627  0.23877136294639262  1.0000
  O   O3        1.0  0.7612286386078156  0.2387712990863998  0.23877132970762793  1.0000
  O   O4        1.0  0.2387713669618621  0.7612287246124313  0.7612286406604538  1.0000
  O   O5        1.0  0.23877114936205757  0.7612286878369298  0.23877134792808893  1.0000
  O   O6        1.0  0.7612289157888467  0.23877132448262112  0.7612286132048481  1.0000
