data_image0
_chemical_formula_structural       Bi2GaO6
_chemical_formula_sum              "Bi2 Ga1 O6"
_cell_length_a       5.3824745754636805
_cell_length_b       5.382474100898282
_cell_length_c       5.382474786301561
_cell_angle_alpha    60.00000014008634
_cell_angle_beta     59.999998858858746
_cell_angle_gamma    59.99999707824082

_space_group_name_H-M_alt    "P 1"
_space_group_IT_number       1

loop_
  _space_group_symop_operation_xyz
  'x, y, z'

loop_
  _atom_site_type_symbol
  _atom_site_label
  _atom_site_symmetry_multiplicity
  _atom_site_fract_x
  _atom_site_fract_y
  _atom_site_fract_z
  _atom_site_occupancy
  Bi  Bi1       1.0  0.24999957632775635  0.2500002047178102  0.25000003008698635  1.0000
  Bi  Bi2       1.0  0.7500000266167699  0.7499999906852849  0.7499995673901183  1.0000
  Ga  Ga1       1.0  0.9999999674524735  0.9999999817965527  4.209641921717594e-08  1.0000
  O   O1        1.0  0.2528132495492618  0.252813364980169  0.7471866908865207  1.0000
  O   O2        1.0  0.747186757841446  0.7471866210832986  0.25281359492114924  1.0000
  O   O3        1.0  0.7471869376729309  0.25281308144989634  0.2528134397040805  1.0000
  O   O4        1.0  0.2528134124485717  0.7471867066510594  0.7471867235566431  1.0000
  O   O5        1.0  0.25281314654632925  0.7471866074580754  0.25281345789560566  1.0000
  O   O6        1.0  0.7471868804754697  0.25281347417348354  0.7471864860566159  1.0000
