data_image0
_chemical_formula_structural       Bi2GaS6
_chemical_formula_sum              "Bi2 Ga1 S6"
_cell_length_a       6.339747641988357
_cell_length_b       6.339746950887228
_cell_length_c       6.339747389803691
_cell_angle_alpha    59.99999881253964
_cell_angle_beta     59.99999926424877
_cell_angle_gamma    59.999996644142456

_space_group_name_H-M_alt    "P 1"
_space_group_IT_number       1

loop_
  _space_group_symop_operation_xyz
  'x, y, z'

loop_
  _atom_site_type_symbol
  _atom_site_label
  _atom_site_symmetry_multiplicity
  _atom_site_fract_x
  _atom_site_fract_y
  _atom_site_fract_z
  _atom_site_occupancy
  Bi  Bi1       1.0  0.24999995630686206  0.25000013730766046  0.2499996745905313  1.0000
  Bi  Bi2       1.0  0.7500000563670457  0.7499997512298027  0.7499994749145333  1.0000
  Ga  Ga1       1.0  9.54877289607971e-09  0.9999999768177827  0.9999999957752724  1.0000
  S   S1        1.0  0.2620179835827662  0.26201799208475957  0.7379821065365827  1.0000
  S   S2        1.0  0.737981978329503  0.7379820432734367  0.26201827101501723  1.0000
  S   S3        1.0  0.7379820728346409  0.2620179672966782  0.2620180942635216  1.0000
  S   S4        1.0  0.26201804003336326  0.7379818883993339  0.7379821998456044  1.0000
  S   S5        1.0  0.26201788262913167  0.7379820622853507  0.262018146909011  1.0000
  S   S6        1.0  0.737982011024389  0.26201817784909304  0.7379820393505488  1.0000
