data_image0
_chemical_formula_structural       Bi2GaN6
_chemical_formula_sum              "Bi2 Ga1 N6"
_cell_length_a       5.549440633326884
_cell_length_b       5.549441263684509
_cell_length_c       5.549441190423091
_cell_angle_alpha    60.0000000842713
_cell_angle_beta     59.99999853089474
_cell_angle_gamma    59.999998888793414

_space_group_name_H-M_alt    "P 1"
_space_group_IT_number       1

loop_
  _space_group_symop_operation_xyz
  'x, y, z'

loop_
  _atom_site_type_symbol
  _atom_site_label
  _atom_site_symmetry_multiplicity
  _atom_site_fract_x
  _atom_site_fract_y
  _atom_site_fract_z
  _atom_site_occupancy
  Bi  Bi1       1.0  0.24999993228052245  0.24999999282915136  0.25000005916053564  1.0000
  Bi  Bi2       1.0  0.7500000817566143  0.7500000226268407  0.7499998345580535  1.0000
  Ga  Ga1       1.0  0.9999999924126518  0.9999999977930304  1.7511041445253232e-08  1.0000
  N   N1        1.0  0.2478924444972494  0.2478925079084703  0.7521074922920078  1.0000
  N   N2        1.0  0.7521075950354374  0.7521074435453976  0.24789264232380703  1.0000
  N   N3        1.0  0.7521075507124647  0.24789236012295018  0.2478925408406606  1.0000
  N   N4        1.0  0.2478924988453189  0.7521076111936464  0.7521074166527504  1.0000
  N   N5        1.0  0.24789230585034006  0.7521075814246558  0.24789259647931383  1.0000
  N   N6        1.0  0.752107605703457  0.2478924980334592  0.7521074173909433  1.0000
