data_image0
_chemical_formula_structural       Bi2GeS6
_chemical_formula_sum              "Bi2 Ge1 S6"
_cell_length_a       6.446717504162118
_cell_length_b       6.446717457985977
_cell_length_c       6.446717169678385
_cell_angle_alpha    59.99999894413383
_cell_angle_beta     59.999999732089314
_cell_angle_gamma    59.999996506768674

_space_group_name_H-M_alt    "P 1"
_space_group_IT_number       1

loop_
  _space_group_symop_operation_xyz
  'x, y, z'

loop_
  _atom_site_type_symbol
  _atom_site_label
  _atom_site_symmetry_multiplicity
  _atom_site_fract_x
  _atom_site_fract_y
  _atom_site_fract_z
  _atom_site_occupancy
  Bi  Bi1       1.0  0.25000015507361584  0.2499998446056724  0.2500000792878231  1.0000
  Bi  Bi2       1.0  0.7499999648176545  0.7499997883897274  0.7499998768114603  1.0000
  Ge  Ge1       1.0  0.9999999700378636  6.839266117679753e-08  3.35247579483368e-08  1.0000
  S   S1        1.0  0.25357185237333013  0.2535719977715253  0.7464280771747144  1.0000
  S   S2        1.0  0.7464280884311105  0.7464281348702615  0.2535719901007748  1.0000
  S   S3        1.0  0.7464279960170359  0.25357196075292193  0.2535719356068903  1.0000
  S   S4        1.0  0.25357206919289677  0.7464280351035413  0.7464279904966917  1.0000
  S   S5        1.0  0.25357191393847034  0.7464280360739372  0.2535720331062511  1.0000
  S   S6        1.0  0.7464279843658205  0.2535721649605131  0.7464279839947306  1.0000
