data_image0
_chemical_formula_structural       Bi2GeSe6
_chemical_formula_sum              "Bi2 Ge1 Se6"
_cell_length_a       6.713601411406727
_cell_length_b       6.713601449745692
_cell_length_c       6.71360144693768
_cell_angle_alpha    60.00000120994167
_cell_angle_beta     60.000001589504244
_cell_angle_gamma    60.00000021896184

_space_group_name_H-M_alt    "P 1"
_space_group_IT_number       1

loop_
  _space_group_symop_operation_xyz
  'x, y, z'

loop_
  _atom_site_type_symbol
  _atom_site_label
  _atom_site_symmetry_multiplicity
  _atom_site_fract_x
  _atom_site_fract_y
  _atom_site_fract_z
  _atom_site_occupancy
  Bi  Bi1       1.0  0.2499999778326854  0.2500001380573969  0.24999999777556475  1.0000
  Bi  Bi2       1.0  0.750000030274084  0.7499999690493324  0.7500001138776207  1.0000
  Ge  Ge1       1.0  1.904159416902474e-08  0.9999999635145194  0.9999999476518896  1.0000
  Se  Se1       1.0  0.2598869236303053  0.25988692755482357  0.7401130300351708  1.0000
  Se  Se2       1.0  0.7401131028951354  0.7401129953002293  0.25988687705840985  1.0000
  Se  Se3       1.0  0.7401130287207766  0.259886954679208  0.2598869381924786  1.0000
  Se  Se4       1.0  0.2598868851200759  0.7401131049963969  0.7401130893998217  1.0000
  Se  Se5       1.0  0.25988692871028585  0.7401130414858934  0.2598869159199898  1.0000
  Se  Se6       1.0  0.740113096789737  0.25988690508472223  0.7401130885630045  1.0000
