data_image0
_chemical_formula_structural       Bi2GaSe6
_chemical_formula_sum              "Bi2 Ga1 Se6"
_cell_length_a       6.656157320585101
_cell_length_b       6.656157454877711
_cell_length_c       6.656157271077756
_cell_angle_alpha    60.00000022062564
_cell_angle_beta     60.000000399084804
_cell_angle_gamma    59.99999972608706

_space_group_name_H-M_alt    "P 1"
_space_group_IT_number       1

loop_
  _space_group_symop_operation_xyz
  'x, y, z'

loop_
  _atom_site_type_symbol
  _atom_site_label
  _atom_site_symmetry_multiplicity
  _atom_site_fract_x
  _atom_site_fract_y
  _atom_site_fract_z
  _atom_site_occupancy
  Bi  Bi1       1.0  0.2499998841590461  0.24999989730560196  0.25000019605542073  1.0000
  Bi  Bi2       1.0  0.7499999520987842  0.7500000212800059  0.7499999040912245  1.0000
  Ga  Ga1       1.0  3.8041993887515714e-08  3.680035750095315e-08  0.9999999220148788  1.0000
  Se  Se1       1.0  0.26504568057951167  0.26504562159742956  0.7349543341470745  1.0000
  Se  Se2       1.0  0.7349543125275879  0.7349542896281052  0.2650457182976035  1.0000
  Se  Se3       1.0  0.7349543159633655  0.2650456911606082  0.26504570359816876  1.0000
  Se  Se4       1.0  0.26504568672554507  0.7349544151068209  0.734954270572549  1.0000
  Se  Se5       1.0  0.26504569924390425  0.7349542921080063  0.26504569946603923  1.0000
  Se  Se6       1.0  0.7349544305413893  0.26504572951859945  0.734954257984004  1.0000
