data_image0
_chemical_formula_structural       Bi2GeTe6
_chemical_formula_sum              "Bi2 Ge1 Te6"
_cell_length_a       7.291562099081159
_cell_length_b       7.291562217267488
_cell_length_c       7.291562223463555
_cell_angle_alpha    60.00000003568613
_cell_angle_beta     60.00000081242535
_cell_angle_gamma    59.99999741782192

_space_group_name_H-M_alt    "P 1"
_space_group_IT_number       1

loop_
  _space_group_symop_operation_xyz
  'x, y, z'

loop_
  _atom_site_type_symbol
  _atom_site_label
  _atom_site_symmetry_multiplicity
  _atom_site_fract_x
  _atom_site_fract_y
  _atom_site_fract_z
  _atom_site_occupancy
  Bi  Bi1       1.0  0.24999994513766444  0.24999996905741878  0.2500001317878512  1.0000
  Bi  Bi2       1.0  0.7499999836933141  0.7500001036941321  0.7500000433027408  1.0000
  Ge  Ge1       1.0  1.0832508836275283e-07  2.1835760902182634e-08  0.9999998978904747  1.0000
  Te  Te1       1.0  0.26794859485948275  0.2679486017542019  0.7320513863063823  1.0000
  Te  Te2       1.0  0.7320513299288908  0.7320512123275253  0.2679487089373986  1.0000
  Te  Te3       1.0  0.7320512646663496  0.2679487213654715  0.2679487462076681  1.0000
  Te  Te4       1.0  0.2679486216293584  0.7320514504868585  0.7320512346549352  1.0000
  Te  Te5       1.0  0.2679487301046139  0.7320512862778474  0.267948648254805  1.0000
  Te  Te6       1.0  0.7320514343196179  0.2679486117875813  0.7320511987779611  1.0000
