data_image0
_chemical_formula_structural       Bi2GeN6
_chemical_formula_sum              "Bi2 Ge1 N6"
_cell_length_a       5.501095054728623
_cell_length_b       5.501094944635291
_cell_length_c       5.501094671577405
_cell_angle_alpha    60.00000269580906
_cell_angle_beta     60.00000236096207
_cell_angle_gamma    60.00000115703898

_space_group_name_H-M_alt    "P 1"
_space_group_IT_number       1

loop_
  _space_group_symop_operation_xyz
  'x, y, z'

loop_
  _atom_site_type_symbol
  _atom_site_label
  _atom_site_symmetry_multiplicity
  _atom_site_fract_x
  _atom_site_fract_y
  _atom_site_fract_z
  _atom_site_occupancy
  Bi  Bi1       1.0  0.2499999211785108  0.24999992488572084  0.25000001984405784  1.0000
  Bi  Bi2       1.0  0.7500000087808845  0.7499999394082159  0.749999961785353  1.0000
  Ge  Ge1       1.0  0.9999999455922945  1.3803466458408528e-07  0.9999998454816806  1.0000
  N   N1        1.0  0.2509135552659601  0.2509135087312544  0.7490864607319141  1.0000
  N   N2        1.0  0.7490864542639942  0.749086475786426  0.25091365368130847  1.0000
  N   N3        1.0  0.7490864682706597  0.25091354222662005  0.2509135709364648  1.0000
  N   N4        1.0  0.2509135503757206  0.7490864779129089  0.74908647202648  1.0000
  N   N5        1.0  0.2509135852841637  0.7490864164095824  0.2509136372616323  1.0000
  N   N6        1.0  0.7490864934921838  0.2509136059563123  0.7490863981548067  1.0000
