data_image0
_chemical_formula_structural       Bi2HfN6
_chemical_formula_sum              "Bi2 Hf1 N6"
_cell_length_a       5.583734354527441
_cell_length_b       5.583734493745769
_cell_length_c       5.583734358469807
_cell_angle_alpha    60.000001630539025
_cell_angle_beta     60.00000180692028
_cell_angle_gamma    60.000000592123826

_space_group_name_H-M_alt    "P 1"
_space_group_IT_number       1

loop_
  _space_group_symop_operation_xyz
  'x, y, z'

loop_
  _atom_site_type_symbol
  _atom_site_label
  _atom_site_symmetry_multiplicity
  _atom_site_fract_x
  _atom_site_fract_y
  _atom_site_fract_z
  _atom_site_occupancy
  Bi  Bi1       1.0  0.24999991588744386  0.25000006466797886  0.2499999826474206  1.0000
  Bi  Bi2       1.0  0.7500000850356658  0.7500001062673216  0.7499996744778666  1.0000
  Hf  Hf1       1.0  0.9999999841658403  3.5094644411838473e-08  0.9999999384331895  1.0000
  N   N1        1.0  0.2704805552773672  0.27048061580232396  0.7295193915157688  1.0000
  N   N2        1.0  0.729519446359058  0.7295193730795098  0.27048072162648623  1.0000
  N   N3        1.0  0.7295195055686645  0.2704804217244148  0.27048071999897205  1.0000
  N   N4        1.0  0.2704806331202427  0.7295194289722552  0.7295194169915347  1.0000
  N   N5        1.0  0.2704804335908145  0.7295193817707447  0.27048072950955615  1.0000
  N   N6        1.0  0.7295194410427482  0.27048061588475125  0.7295194194653873  1.0000
