data_image0
_chemical_formula_structural       Bi2HgO6
_chemical_formula_sum              "Bi2 Hg1 O6"
_cell_length_a       5.49272532934627
_cell_length_b       5.492725790706256
_cell_length_c       5.492725669345516
_cell_angle_alpha    60.00000048181122
_cell_angle_beta     59.99999925786876
_cell_angle_gamma    59.99999924458714

_space_group_name_H-M_alt    "P 1"
_space_group_IT_number       1

loop_
  _space_group_symop_operation_xyz
  'x, y, z'

loop_
  _atom_site_type_symbol
  _atom_site_label
  _atom_site_symmetry_multiplicity
  _atom_site_fract_x
  _atom_site_fract_y
  _atom_site_fract_z
  _atom_site_occupancy
  Bi  Bi1       1.0  0.24999989643007775  0.2499999905179773  0.24999999941235854  1.0000
  Bi  Bi2       1.0  0.7499999515815369  0.7499999604051368  0.7499997215568756  1.0000
  Hg  Hg1       1.0  0.9999999890006098  0.9999999888512112  0.9999999619181664  1.0000
  O   O1        1.0  0.26852680779288124  0.26852676789517155  0.7314732016748927  1.0000
  O   O2        1.0  0.7314732068892472  0.7314732253933336  0.2685269664150817  1.0000
  O   O3        1.0  0.7314732867694921  0.26852673329274673  0.2685268673301641  1.0000
  O   O4        1.0  0.2685268714804229  0.7314732644552706  0.7314732249255725  1.0000
  O   O5        1.0  0.2685267715892912  0.7314732368296379  0.26852683130098554  1.0000
  O   O6        1.0  0.7314732352558644  0.26852683673015165  0.7314732241070638  1.0000
