data_image0
_chemical_formula_structural       Bi2HgS6
_chemical_formula_sum              "Bi2 Hg1 S6"
_cell_length_a       6.420870199813526
_cell_length_b       6.420870284021993
_cell_length_c       6.420870152654773
_cell_angle_alpha    60.000000080712944
_cell_angle_beta     59.99999918216049
_cell_angle_gamma    59.99999840551375

_space_group_name_H-M_alt    "P 1"
_space_group_IT_number       1

loop_
  _space_group_symop_operation_xyz
  'x, y, z'

loop_
  _atom_site_type_symbol
  _atom_site_label
  _atom_site_symmetry_multiplicity
  _atom_site_fract_x
  _atom_site_fract_y
  _atom_site_fract_z
  _atom_site_occupancy
  Bi  Bi1       1.0  0.24999999518289331  0.2500001721913144  0.2499995228416683  1.0000
  Bi  Bi2       1.0  0.7499999946217407  0.7500000091939084  0.7499998580359288  1.0000
  Hg  Hg1       1.0  4.7028350752948374e-08  8.011263557887012e-08  0.9999999613482471  1.0000
  S   S1        1.0  0.27435020754265704  0.2743501830554518  0.7256499877426744  1.0000
  S   S2        1.0  0.7256498337474498  0.7256496874164405  0.2743502470497612  1.0000
  S   S3        1.0  0.7256497738128708  0.2743502531045808  0.2743502173515252  1.0000
  S   S4        1.0  0.27435022088524025  0.7256495143653512  0.725650036170722  1.0000
  S   S5        1.0  0.2743501859624539  0.7256498494085423  0.274350256760141  1.0000
  S   S6        1.0  0.7256497296203164  0.2743502633087059  0.7256499088613358  1.0000
