data_image0
_chemical_formula_structural       Bi2HgTe6
_chemical_formula_sum              "Bi2 Hg1 Te6"
_cell_length_a       7.37990235319464
_cell_length_b       7.379904091910676
_cell_length_c       7.3798949515708285
_cell_angle_alpha    60.00005135940617
_cell_angle_beta     60.000036695779976
_cell_angle_gamma    59.999996396651014

_space_group_name_H-M_alt    "P 1"
_space_group_IT_number       1

loop_
  _space_group_symop_operation_xyz
  'x, y, z'

loop_
  _atom_site_type_symbol
  _atom_site_label
  _atom_site_symmetry_multiplicity
  _atom_site_fract_x
  _atom_site_fract_y
  _atom_site_fract_z
  _atom_site_occupancy
  Bi  Bi1       1.0  0.2499988172173611  0.24999770331366947  0.250001114810833  1.0000
  Bi  Bi2       1.0  0.7500008853611065  0.7500005514368326  0.7500012009227236  1.0000
  Hg  Hg1       1.0  9.404224317749915e-08  0.9999997178736817  8.094993563433863e-07  1.0000
  Te  Te1       1.0  0.27717273117389485  0.27717013057490675  0.7228285587488485  1.0000
  Te  Te2       1.0  0.7228260158484338  0.7228305355263495  0.2771712038583317  1.0000
  Te  Te3       1.0  0.7228314804805394  0.27717040829897194  0.2771708934331146  1.0000
  Te  Te4       1.0  0.2771696786926542  0.7228299308665183  0.7228274674828525  1.0000
  Te  Te5       1.0  0.2771701842498956  0.7228300519238817  0.27717223204148966  1.0000
  Te  Te6       1.0  0.7228301147149085  0.27717095272829445  0.7228264891117292  1.0000
