data_image0
_chemical_formula_structural       Bi2HgSe6
_chemical_formula_sum              "Bi2 Hg1 Se6"
_cell_length_a       6.7310210005005855
_cell_length_b       6.731020918838273
_cell_length_c       6.73102101033658
_cell_angle_alpha    59.99999926074153
_cell_angle_beta     59.999999465484045
_cell_angle_gamma    59.99999973528378

_space_group_name_H-M_alt    "P 1"
_space_group_IT_number       1

loop_
  _space_group_symop_operation_xyz
  'x, y, z'

loop_
  _atom_site_type_symbol
  _atom_site_label
  _atom_site_symmetry_multiplicity
  _atom_site_fract_x
  _atom_site_fract_y
  _atom_site_fract_z
  _atom_site_occupancy
  Bi  Bi1       1.0  0.24999989164640568  0.24999996928636403  0.2500001594109126  1.0000
  Bi  Bi2       1.0  0.7499998588354508  0.7500003700255364  0.7499999516661539  1.0000
  Hg  Hg1       1.0  4.824186961719529e-08  0.9999999890826826  2.2936167655148752e-08  1.0000
  Se  Se1       1.0  0.28150796981018444  0.2815077511138488  0.7184921081243675  1.0000
  Se  Se2       1.0  0.7184921532367253  0.7184920623472582  0.28150785526110333  1.0000
  Se  Se3       1.0  0.7184921663686976  0.2815076987982082  0.2815079604992468  1.0000
  Se  Se4       1.0  0.28150781882935705  0.7184922966181906  0.7184920179744735  1.0000
  Se  Se5       1.0  0.28150788361143253  0.718492149866152  0.2815077848823013  1.0000
  Se  Se6       1.0  0.7184922042931632  0.281507707264225  0.7184921415551998  1.0000
