data_image0
_chemical_formula_structural       Bi2IrSe6
_chemical_formula_sum              "Bi2 Ir1 Se6"
_cell_length_a       6.736215254209305
_cell_length_b       6.736215139601083
_cell_length_c       6.73621516165192
_cell_angle_alpha    60.00000015430229
_cell_angle_beta     60.00000032598945
_cell_angle_gamma    59.99999685403056

_space_group_name_H-M_alt    "P 1"
_space_group_IT_number       1

loop_
  _space_group_symop_operation_xyz
  'x, y, z'

loop_
  _atom_site_type_symbol
  _atom_site_label
  _atom_site_symmetry_multiplicity
  _atom_site_fract_x
  _atom_site_fract_y
  _atom_site_fract_z
  _atom_site_occupancy
  Bi  Bi1       1.0  0.25000003892924655  0.24999996581914738  0.2500000126015956  1.0000
  Bi  Bi2       1.0  0.7499999604003547  0.7499998883666974  0.7499999186500633  1.0000
  Ir  Ir1       1.0  2.0570017508345576e-08  0.9999999999999993  0.9999999897149916  1.0000
  Se  Se1       1.0  0.25750855463038663  0.2575085954666844  0.7424914338741968  1.0000
  Se  Se2       1.0  0.7424914012180508  0.7424914714427006  0.2575086294951946  1.0000
  Se  Se3       1.0  0.7424914551394989  0.2575085963366399  0.2575085330195016  1.0000
  Se  Se4       1.0  0.25750869203926197  0.742491385119693  0.7424914269378065  1.0000
  Se  Se5       1.0  0.2575084892233101  0.7424914143490114  0.2575086440332905  1.0000
  Se  Se6       1.0  0.7424913910799064  0.25750868892337386  0.7424914062679219  1.0000
