data_image0
_chemical_formula_structural       Bi2InS6
_chemical_formula_sum              "Bi2 In1 S6"
_cell_length_a       6.438604685894974
_cell_length_b       6.43860482238535
_cell_length_c       6.438604424114644
_cell_angle_alpha    60.000001765222045
_cell_angle_beta     60.00000163289247
_cell_angle_gamma    60.00000350096669

_space_group_name_H-M_alt    "P 1"
_space_group_IT_number       1

loop_
  _space_group_symop_operation_xyz
  'x, y, z'

loop_
  _atom_site_type_symbol
  _atom_site_label
  _atom_site_symmetry_multiplicity
  _atom_site_fract_x
  _atom_site_fract_y
  _atom_site_fract_z
  _atom_site_occupancy
  Bi  Bi1       1.0  0.2499999919091682  0.2500000733586627  0.2500001161603367  1.0000
  Bi  Bi2       1.0  0.7499999271936711  0.7500004140993467  0.7500000287883224  1.0000
  In  In1       1.0  0.9999999464869823  4.7554743362351085e-08  5.733874298954037e-08  1.0000
  S   S1        1.0  0.273018709350516  0.27301842666790926  0.7269814670881148  1.0000
  S   S2        1.0  0.7269812706287847  0.7269815015463036  0.273018678543157  1.0000
  S   S3        1.0  0.7269814399155516  0.2730185330170943  0.2730185123580301  1.0000
  S   S4        1.0  0.27301854301648804  0.7269813970993098  0.7269813155600616  1.0000
  S   S5        1.0  0.27301861969199653  0.7269813191472653  0.27301846998699136  1.0000
  S   S6        1.0  0.7269815673492109  0.2730182837924996  0.7269813231706777  1.0000
