data_image0
_chemical_formula_structural       Bi2InTe6
_chemical_formula_sum              "Bi2 In1 Te6"
_cell_length_a       7.446672866164839
_cell_length_b       7.446672629223652
_cell_length_c       7.446673054601495
_cell_angle_alpha    60.00000039369617
_cell_angle_beta     59.999999826043286
_cell_angle_gamma    60.000001655096675

_space_group_name_H-M_alt    "P 1"
_space_group_IT_number       1

loop_
  _space_group_symop_operation_xyz
  'x, y, z'

loop_
  _atom_site_type_symbol
  _atom_site_label
  _atom_site_symmetry_multiplicity
  _atom_site_fract_x
  _atom_site_fract_y
  _atom_site_fract_z
  _atom_site_occupancy
  Bi  Bi1       1.0  0.2500000480198733  0.25000003089869915  0.249999936926718  1.0000
  Bi  Bi2       1.0  0.7500000410197548  0.7499997226414351  0.7500002165304883  1.0000
  In  In1       1.0  0.9999999771625004  5.9208746032591865e-08  0.9999999952431934  1.0000
  Te  Te1       1.0  0.27324883308985803  0.2732489823109291  0.726751143424274  1.0000
  Te  Te2       1.0  0.7267510445108576  0.7267510985219907  0.27324889301921124  1.0000
  Te  Te3       1.0  0.7267510743241291  0.27324906137226124  0.2732487951022765  1.0000
  Te  Te4       1.0  0.27324905308600234  0.726750902687856  0.726751048592034  1.0000
  Te  Te5       1.0  0.2732490127063355  0.7267510845140901  0.27324888435153966  1.0000
  Te  Te6       1.0  0.7267509144821395  0.2732490522382019  0.7267510885953286  1.0000
