data_image0
_chemical_formula_structural       Bi2IrO6
_chemical_formula_sum              "Bi2 Ir1 O6"
_cell_length_a       5.505044069697919
_cell_length_b       5.505044146112014
_cell_length_c       5.505044262807897
_cell_angle_alpha    60.00000003377428
_cell_angle_beta     59.99999952211692
_cell_angle_gamma    59.999999666605426

_space_group_name_H-M_alt    "P 1"
_space_group_IT_number       1

loop_
  _space_group_symop_operation_xyz
  'x, y, z'

loop_
  _atom_site_type_symbol
  _atom_site_label
  _atom_site_symmetry_multiplicity
  _atom_site_fract_x
  _atom_site_fract_y
  _atom_site_fract_z
  _atom_site_occupancy
  Bi  Bi1       1.0  0.2500001054649586  0.24999995435575162  0.24999989621915836  1.0000
  Bi  Bi2       1.0  0.7499999750460414  0.7499999809799871  0.7499999783940756  1.0000
  Ir  Ir1       1.0  3.0361508868895416e-08  0.9999999844266201  0.9999999344774293  1.0000
  O   O1        1.0  0.24716066906818066  0.24716069881364186  0.7528393290959147  1.0000
  O   O2        1.0  0.7528392952933165  0.7528393143889953  0.24716073541110836  1.0000
  O   O3        1.0  0.752839294790574  0.24716065667046194  0.24716072862996483  1.0000
  O   O4        1.0  0.24716066527045294  0.7528393253854165  0.7528393427015777  1.0000
  O   O5        1.0  0.24716068038966277  0.7528393513981976  0.247160715914875  1.0000
  O   O6        1.0  0.7528392864074157  0.24716071742365175  0.7528393377299101  1.0000
