data_image0
_chemical_formula_structural       Bi2MnO6
_chemical_formula_sum              "Bi2 Mn1 O6"
_cell_length_a       5.384720571481934
_cell_length_b       5.384720636878534
_cell_length_c       5.384720536550243
_cell_angle_alpha    59.9999993237808
_cell_angle_beta     60.00000066672469
_cell_angle_gamma    60.000001694499396

_space_group_name_H-M_alt    "P 1"
_space_group_IT_number       1

loop_
  _space_group_symop_operation_xyz
  'x, y, z'

loop_
  _atom_site_type_symbol
  _atom_site_label
  _atom_site_symmetry_multiplicity
  _atom_site_fract_x
  _atom_site_fract_y
  _atom_site_fract_z
  _atom_site_occupancy
  Bi  Bi1       1.0  0.24999991562832194  0.24999990872288808  0.25000011627053953  1.0000
  Bi  Bi2       1.0  0.7500000117463423  0.7500000059299248  0.749999927931771  1.0000
  Mn  Mn1       1.0  0.9999999575022009  0.9999999795296625  1.0205411884423395e-07  1.0000
  O   O1        1.0  0.24225817474466294  0.242258142294276  0.7577418442966835  1.0000
  O   O2        1.0  0.757741966222766  0.7577419292977791  0.24225810749495225  1.0000
  O   O3        1.0  0.7577418394285185  0.24225813382111253  0.24225816104865006  1.0000
  O   O4        1.0  0.24225824359924722  0.7577417899296304  0.7577417933497186  1.0000
  O   O5        1.0  0.24225811906641304  0.7577418734215025  0.24225807220543719  1.0000
  O   O6        1.0  0.7577418073084234  0.24225824366018517  0.757741828568896  1.0000
