data_image0
_chemical_formula_structural       Bi2MnS6
_chemical_formula_sum              "Bi2 Mn1 S6"
_cell_length_a       6.400972657994507
_cell_length_b       6.400972547187401
_cell_length_c       6.400973191862693
_cell_angle_alpha    59.999997358930706
_cell_angle_beta     59.99999691947033
_cell_angle_gamma    59.99999897402744

_space_group_name_H-M_alt    "P 1"
_space_group_IT_number       1

loop_
  _space_group_symop_operation_xyz
  'x, y, z'

loop_
  _atom_site_type_symbol
  _atom_site_label
  _atom_site_symmetry_multiplicity
  _atom_site_fract_x
  _atom_site_fract_y
  _atom_site_fract_z
  _atom_site_occupancy
  Bi  Bi1       1.0  0.25000000895855373  0.24999996775332106  0.2500001567050607  1.0000
  Bi  Bi2       1.0  0.7499998141350799  0.750000054416435  0.7500000197304064  1.0000
  Mn  Mn1       1.0  3.948671979534686e-08  0.999999978952896  1.2651866046867956e-08  1.0000
  S   S1        1.0  0.24789107647929223  0.2478909681739531  0.7521089624510926  1.0000
  S   S2        1.0  0.7521089726734395  0.7521089927678644  0.2478910534556719  1.0000
  S   S3        1.0  0.7521089451920882  0.24789104485718538  0.2478909839077814  1.0000
  S   S4        1.0  0.24789108980103927  0.7521089964463039  0.7521089692149636  1.0000
  S   S5        1.0  0.24789107400547752  0.7521089134381529  0.24789093126363743  1.0000
  S   S6        1.0  0.7521089936056456  0.2478910570705293  0.7521089409627163  1.0000
