data_image0
_chemical_formula_structural       Bi2MgSe6
_chemical_formula_sum              "Bi2 Mg1 Se6"
_cell_length_a       6.6011499197758345
_cell_length_b       6.6011496850647395
_cell_length_c       6.601149944095363
_cell_angle_alpha    59.999998123429705
_cell_angle_beta     59.99999880865652
_cell_angle_gamma    60.00000052249514

_space_group_name_H-M_alt    "P 1"
_space_group_IT_number       1

loop_
  _space_group_symop_operation_xyz
  'x, y, z'

loop_
  _atom_site_type_symbol
  _atom_site_label
  _atom_site_symmetry_multiplicity
  _atom_site_fract_x
  _atom_site_fract_y
  _atom_site_fract_z
  _atom_site_occupancy
  Bi  Bi1       1.0  0.25000012868974325  0.2500000300053425  0.24999999448785762  1.0000
  Bi  Bi2       1.0  0.7500000660308561  0.7499999638521595  0.7500000944630165  1.0000
  Mg  Mg1       1.0  0.9999999685136537  0.9999999999999994  0.9999999324243574  1.0000
  Se  Se1       1.0  0.2709560717171402  0.27095618969027446  0.7290437698633094  1.0000
  Se  Se2       1.0  0.7290439419827138  0.729043848695645  0.270956031335151  1.0000
  Se  Se3       1.0  0.729043732184923  0.27095608319519415  0.2709561872907433  1.0000
  Se  Se4       1.0  0.27095605208237467  0.7290439088069469  0.7290439108790814  1.0000
  Se  Se5       1.0  0.2709561993843926  0.7290438542993893  0.2709561228596741  1.0000
  Se  Se6       1.0  0.7290438394597004  0.2709561191492492  0.7290439618257446  1.0000
