data_image0
_chemical_formula_structural       Bi2MoO6
_chemical_formula_sum              "Bi2 Mo1 O6"
_cell_length_a       5.4631619595924805
_cell_length_b       5.463162067266534
_cell_length_c       5.46316197700863
_cell_angle_alpha    59.99999935607718
_cell_angle_beta     60.00000011660287
_cell_angle_gamma    59.99999950391228

_space_group_name_H-M_alt    "P 1"
_space_group_IT_number       1

loop_
  _space_group_symop_operation_xyz
  'x, y, z'

loop_
  _atom_site_type_symbol
  _atom_site_label
  _atom_site_symmetry_multiplicity
  _atom_site_fract_x
  _atom_site_fract_y
  _atom_site_fract_z
  _atom_site_occupancy
  Bi  Bi1       1.0  0.24999985988772402  0.2500000609695076  0.25000003435464274  1.0000
  Bi  Bi2       1.0  0.7499997398986099  0.7499997973147622  0.7500003182478338  1.0000
  Mo  Mo1       1.0  0.9999999649440804  0.9999999910327039  0.999999994554981  1.0000
  O   O1        1.0  0.25104310603145635  0.25104304007582917  0.7489568963695745  1.0000
  O   O2        1.0  0.7489570439533142  0.7489569684106593  0.2510429595972304  1.0000
  O   O3        1.0  0.7489569529386705  0.25104315952854794  0.25104295361952117  1.0000
  O   O4        1.0  0.25104311104728727  0.7489569991601588  0.7489570111895975  1.0000
  O   O5        1.0  0.25104322771132886  0.7489569121407509  0.25104284492023893  1.0000
  O   O6        1.0  0.748957012796125  0.25104307841114326  0.7489569948873815  1.0000
