data_image0
_chemical_formula_structural       Bi2MnTe6
_chemical_formula_sum              "Bi2 Mn1 Te6"
_cell_length_a       7.116295494044637
_cell_length_b       7.116295321617881
_cell_length_c       7.116295447038035
_cell_angle_alpha    59.99999671146969
_cell_angle_beta     59.99999899463639
_cell_angle_gamma    59.999995937394935

_space_group_name_H-M_alt    "P 1"
_space_group_IT_number       1

loop_
  _space_group_symop_operation_xyz
  'x, y, z'

loop_
  _atom_site_type_symbol
  _atom_site_label
  _atom_site_symmetry_multiplicity
  _atom_site_fract_x
  _atom_site_fract_y
  _atom_site_fract_z
  _atom_site_occupancy
  Bi  Bi1       1.0  0.25000009910046395  0.24999997263391185  0.24999993092015743  1.0000
  Bi  Bi2       1.0  0.7499998965604222  0.7500001708950434  0.7499999186276458  1.0000
  Mn  Mn1       1.0  2.976385679379912e-08  2.753668639929816e-08  0.9999999249772853  1.0000
  Te  Te1       1.0  0.24987979572261299  0.24987965355427263  0.7501202669520336  1.0000
  Te  Te2       1.0  0.7501202090216442  0.7501202972178792  0.2498797756087276  1.0000
  Te  Te3       1.0  0.7501202505261051  0.2498796943247673  0.24987978790518856  1.0000
  Te  Te4       1.0  0.24987971583219196  0.7501202839840698  0.7501203078578776  1.0000
  Te  Te5       1.0  0.24987970823486627  0.7501202522660975  0.24987974075325411  1.0000
  Te  Te6       1.0  0.7501202888069194  0.24987964859581108  0.7501203446661205  1.0000
