data_image0
_chemical_formula_structural       Bi2MoS6
_chemical_formula_sum              "Bi2 Mo1 S6"
_cell_length_a       6.482306784941296
_cell_length_b       6.482306900876784
_cell_length_c       6.482306925774728
_cell_angle_alpha    59.99999909298959
_cell_angle_beta     59.99999953458125
_cell_angle_gamma    60.00000038560926

_space_group_name_H-M_alt    "P 1"
_space_group_IT_number       1

loop_
  _space_group_symop_operation_xyz
  'x, y, z'

loop_
  _atom_site_type_symbol
  _atom_site_label
  _atom_site_symmetry_multiplicity
  _atom_site_fract_x
  _atom_site_fract_y
  _atom_site_fract_z
  _atom_site_occupancy
  Bi  Bi1       1.0  0.2500000981683766  0.249999828989002  0.2500000488647236  1.0000
  Bi  Bi2       1.0  0.7499999530024065  0.7500002389345812  0.7499998380034741  1.0000
  Mo  Mo1       1.0  5.773504605620866e-10  0.9999999074210774  2.5946197789434256e-08  1.0000
  S   S1        1.0  0.25655196406737235  0.25655198592331996  0.7434480169219746  1.0000
  S   S2        1.0  0.7434479967968146  0.7434480536597757  0.2565519693789427  1.0000
  S   S3        1.0  0.7434479733240633  0.2565520030719473  0.256551997935442  1.0000
  S   S4        1.0  0.25655200789092864  0.7434479968344669  0.7434480365949309  1.0000
  S   S5        1.0  0.2565520263442231  0.7434479751543338  0.2565520031794646  1.0000
  S   S6        1.0  0.7434479796115552  0.2565520039690567  0.7434480818224902  1.0000
