data_image0
_chemical_formula_structural       Bi2MnSe6
_chemical_formula_sum              "Bi2 Mn1 Se6"
_cell_length_a       6.687332336729612
_cell_length_b       6.687332037851384
_cell_length_c       6.687332258260671
_cell_angle_alpha    60.000000994434714
_cell_angle_beta     60.0000011425333
_cell_angle_gamma    60.000001054552506

_space_group_name_H-M_alt    "P 1"
_space_group_IT_number       1

loop_
  _space_group_symop_operation_xyz
  'x, y, z'

loop_
  _atom_site_type_symbol
  _atom_site_label
  _atom_site_symmetry_multiplicity
  _atom_site_fract_x
  _atom_site_fract_y
  _atom_site_fract_z
  _atom_site_occupancy
  Bi  Bi1       1.0  0.25000010172214954  0.24999996085155848  0.24999992785100197  1.0000
  Bi  Bi2       1.0  0.7500000158620763  0.7500001133161417  0.7500001492814984  1.0000
  Mn  Mn1       1.0  0.9999999582629868  0.9999999853484768  0.9999999698750479  1.0000
  Se  Se1       1.0  0.24921455585367122  0.24921455078463098  0.7507854567742953  1.0000
  Se  Se2       1.0  0.7507854485196324  0.7507854537883362  0.24921448596097473  1.0000
  Se  Se3       1.0  0.7507854413403338  0.24921455918789667  0.249214540211677  1.0000
  Se  Se4       1.0  0.24921444540800364  0.7507854563737103  0.7507854678046726  1.0000
  Se  Se5       1.0  0.2492146090014499  0.750785451444256  0.24921454370768326  1.0000
  Se  Se6       1.0  0.7507854257911137  0.24921446705102346  0.7507854522779975  1.0000
