data_image0
_chemical_formula_structural       Bi2MgO6
_chemical_formula_sum              "Bi2 Mg1 O6"
_cell_length_a       5.3136645282696024
_cell_length_b       5.313664664325833
_cell_length_c       5.313664715575843
_cell_angle_alpha    59.9999990588393
_cell_angle_beta     59.999999261579035
_cell_angle_gamma    60.000000522228106

_space_group_name_H-M_alt    "P 1"
_space_group_IT_number       1

loop_
  _space_group_symop_operation_xyz
  'x, y, z'

loop_
  _atom_site_type_symbol
  _atom_site_label
  _atom_site_symmetry_multiplicity
  _atom_site_fract_x
  _atom_site_fract_y
  _atom_site_fract_z
  _atom_site_occupancy
  Bi  Bi1       1.0  0.25000018662237977  0.24999983550154228  0.24999997581332808  1.0000
  Bi  Bi2       1.0  0.7500000564284468  0.7500000389357869  0.7499999694019566  1.0000
  Mg  Mg1       1.0  0.9999999953902067  1.3829380577814253e-08  2.738319211623089e-08  1.0000
  O   O1        1.0  0.25890966223328093  0.25890968185437774  0.7410903208804845  1.0000
  O   O2        1.0  0.741090270218005  0.7410903746697978  0.25890965471621924  1.0000
  O   O3        1.0  0.7410903014193505  0.25890966237496504  0.2589096599622305  1.0000
  O   O4        1.0  0.2589096253036175  0.7410903526610676  0.741090339242704  1.0000
  O   O5        1.0  0.2589096246195389  0.7410904006337958  0.25890968562945565  1.0000
  O   O6        1.0  0.7410902684753281  0.2589096305365137  0.7410904032458255  1.0000
