data_image0
_chemical_formula_structural       Bi2MgS6
_chemical_formula_sum              "Bi2 Mg1 S6"
_cell_length_a       6.320332658113758
_cell_length_b       6.3203324321271666
_cell_length_c       6.320333030453247
_cell_angle_alpha    59.99999878529653
_cell_angle_beta     59.99999801357388
_cell_angle_gamma    59.999999015553385

_space_group_name_H-M_alt    "P 1"
_space_group_IT_number       1

loop_
  _space_group_symop_operation_xyz
  'x, y, z'

loop_
  _atom_site_type_symbol
  _atom_site_label
  _atom_site_symmetry_multiplicity
  _atom_site_fract_x
  _atom_site_fract_y
  _atom_site_fract_z
  _atom_site_occupancy
  Bi  Bi1       1.0  0.2500002553029551  0.2500000245647966  0.24999986911845876  1.0000
  Bi  Bi2       1.0  0.7499999094120612  0.7500002151527226  0.7499996310314463  1.0000
  Mg  Mg1       1.0  0.9999999856407206  1.1432934609018925e-07  0.9999998819805787  1.0000
  S   S1        1.0  0.26710471119880597  0.2671045722077638  0.7328952623401381  1.0000
  S   S2        1.0  0.7328952240633003  0.7328953090194325  0.26710479917235147  1.0000
  S   S3        1.0  0.7328952944399915  0.2671045564290478  0.26710482201741753  1.0000
  S   S4        1.0  0.2671047537265004  0.7328952162821621  0.7328954129245279  1.0000
  S   S5        1.0  0.26710462774950955  0.7328952932946514  0.2671047969745173  1.0000
  S   S6        1.0  0.732895235871574  0.2671047041996837  0.7328955175268647  1.0000
