data_image0
_chemical_formula_structural       Bi2MoSe6
_chemical_formula_sum              "Bi2 Mo1 Se6"
_cell_length_a       6.819019177841016
_cell_length_b       6.819019106340228
_cell_length_c       6.819019258653624
_cell_angle_alpha    59.99999994919787
_cell_angle_beta     60.00000070682427
_cell_angle_gamma    60.00000037510852

_space_group_name_H-M_alt    "P 1"
_space_group_IT_number       1

loop_
  _space_group_symop_operation_xyz
  'x, y, z'

loop_
  _atom_site_type_symbol
  _atom_site_label
  _atom_site_symmetry_multiplicity
  _atom_site_fract_x
  _atom_site_fract_y
  _atom_site_fract_z
  _atom_site_occupancy
  Bi  Bi1       1.0  0.25000003285547995  0.24999995553233528  0.25000000928101296  1.0000
  Bi  Bi2       1.0  0.7499999266103113  0.750000092902067  0.7500000945237112  1.0000
  Mo  Mo1       1.0  0.9999999592391892  3.5921437966720924e-08  0.9999999510926572  1.0000
  Se  Se1       1.0  0.2571066678903633  0.25710663141022716  0.7428933496198618  1.0000
  Se  Se2       1.0  0.7428933521106517  0.7428932912991408  0.25710666359489776  1.0000
  Se  Se3       1.0  0.7428933366652875  0.257106674345736  0.25710664654489523  1.0000
  Se  Se4       1.0  0.25710663116454735  0.7428933794768817  0.7428933125339642  1.0000
  Se  Se5       1.0  0.25710671085607983  0.74289335794794  0.2571066161403305  1.0000
  Se  Se6       1.0  0.7428933725854944  0.25710658272214754  0.7428933710386558  1.0000
