data_image0
_chemical_formula_structural       Bi2MoN6
_chemical_formula_sum              "Bi2 Mo1 N6"
_cell_length_a       5.634899061369128
_cell_length_b       5.634899013582705
_cell_length_c       5.634899412855271
_cell_angle_alpha    59.99999993876429
_cell_angle_beta     59.99999940040759
_cell_angle_gamma    59.999999389696335

_space_group_name_H-M_alt    "P 1"
_space_group_IT_number       1

loop_
  _space_group_symop_operation_xyz
  'x, y, z'

loop_
  _atom_site_type_symbol
  _atom_site_label
  _atom_site_symmetry_multiplicity
  _atom_site_fract_x
  _atom_site_fract_y
  _atom_site_fract_z
  _atom_site_occupancy
  Bi  Bi1       1.0  0.24999988948317833  0.24999999139001877  0.25000011696625524  1.0000
  Bi  Bi2       1.0  0.7499999345749124  0.7500000241605352  0.7500000632910576  1.0000
  Mo  Mo1       1.0  0.9999999527442167  6.520498092176182e-09  2.9240915042406512e-08  1.0000
  N   N1        1.0  0.25071311865371687  0.25071305710994024  0.7492869133862421  1.0000
  N   N2        1.0  0.7492869178174525  0.7492869236646225  0.25071304850274506  1.0000
  N   N3        1.0  0.7492869408267847  0.25071311749768643  0.25071300955322473  1.0000
  N   N4        1.0  0.2507130690865028  0.7492869306553528  0.7492869283761568  1.0000
  N   N5        1.0  0.2507131300060646  0.749286848785963  0.2507130417570603  1.0000
  N   N6        1.0  0.7492870020740847  0.2507130972126109  0.7492868577716496  1.0000
