data_image0
_chemical_formula_structural       Bi2MgTe6
_chemical_formula_sum              "Bi2 Mg1 Te6"
_cell_length_a       7.339203827795517
_cell_length_b       7.339203607582194
_cell_length_c       7.33920403530023
_cell_angle_alpha    59.999996330324464
_cell_angle_beta     59.99999912012129
_cell_angle_gamma    59.99999722157707

_space_group_name_H-M_alt    "P 1"
_space_group_IT_number       1

loop_
  _space_group_symop_operation_xyz
  'x, y, z'

loop_
  _atom_site_type_symbol
  _atom_site_label
  _atom_site_symmetry_multiplicity
  _atom_site_fract_x
  _atom_site_fract_y
  _atom_site_fract_z
  _atom_site_occupancy
  Bi  Bi1       1.0  0.2499999376211035  0.2500001602028838  0.24999995230951463  1.0000
  Bi  Bi2       1.0  0.750000181317798  0.7499999699647543  0.7500002536716486  1.0000
  Mg  Mg1       1.0  0.9999999938975492  0.9999999899873735  7.20971809260686e-08  1.0000
  Te  Te1       1.0  0.27472978639410855  0.27473005464937794  0.7252700916051239  1.0000
  Te  Te2       1.0  0.7252702124971646  0.7252699353415161  0.27472976623472967  1.0000
  Te  Te3       1.0  0.7252701317905316  0.2747300225649124  0.2747297556949014  1.0000
  Te  Te4       1.0  0.2747297856692238  0.7252699474007305  0.7252701964747953  1.0000
  Te  Te5       1.0  0.2747298754055599  0.7252700031169529  0.27472988612930954  1.0000
  Te  Te6       1.0  0.7252700913210616  0.2747299134480222  0.7252700354061948  1.0000
