data_image0
_chemical_formula_structural       Bi2NbO6
_chemical_formula_sum              "Bi2 Nb1 O6"
_cell_length_a       5.503955871083269
_cell_length_b       5.503955990442951
_cell_length_c       5.50395592663674
_cell_angle_alpha    59.99999953353351
_cell_angle_beta     59.99999997946585
_cell_angle_gamma    60.00000028334734

_space_group_name_H-M_alt    "P 1"
_space_group_IT_number       1

loop_
  _space_group_symop_operation_xyz
  'x, y, z'

loop_
  _atom_site_type_symbol
  _atom_site_label
  _atom_site_symmetry_multiplicity
  _atom_site_fract_x
  _atom_site_fract_y
  _atom_site_fract_z
  _atom_site_occupancy
  Bi  Bi1       1.0  0.24999980161178287  0.25000004628030625  0.24999999449470756  1.0000
  Bi  Bi2       1.0  0.74999983203479  0.7499999964275856  0.7499998955973207  1.0000
  Nb  Nb1       1.0  0.9999999672800183  2.892770823764058e-08  5.5298865024209334e-09  1.0000
  O   O1        1.0  0.2537825586029646  0.25378240994924833  0.7462175044045268  1.0000
  O   O2        1.0  0.746217491858747  0.7462175214982231  0.25378264352389707  1.0000
  O   O3        1.0  0.7462177049323421  0.253782482495149  0.2537824812294227  1.0000
  O   O4        1.0  0.25378255729471183  0.7462174556279481  0.7462175520278926  1.0000
  O   O5        1.0  0.25378251702617505  0.7462175277120278  0.25378240107786265  1.0000
  O   O6        1.0  0.7462175917307514  0.2537825372479454  0.7462175001460761  1.0000
