data_image0
_chemical_formula_structural       Bi2NO6
_chemical_formula_sum              "Bi2 N1 O6"
_cell_length_a       5.151374882635015
_cell_length_b       5.1513744820251635
_cell_length_c       5.151374972411418
_cell_angle_alpha    59.99999889434441
_cell_angle_beta     59.99999922934485
_cell_angle_gamma    59.99999793599383

_space_group_name_H-M_alt    "P 1"
_space_group_IT_number       1

loop_
  _space_group_symop_operation_xyz
  'x, y, z'

loop_
  _atom_site_type_symbol
  _atom_site_label
  _atom_site_symmetry_multiplicity
  _atom_site_fract_x
  _atom_site_fract_y
  _atom_site_fract_z
  _atom_site_occupancy
  Bi  Bi1       1.0  0.24999984637536138  0.24999981430673726  0.2500001389472584  1.0000
  Bi  Bi2       1.0  0.7499998629640651  0.7499998970247957  0.750000132696881  1.0000
  N   N1        1.0  6.486037193605991e-07  2.27052288574595e-06  0.9999975911756068  1.0000
  O   O1        1.0  0.2318051395123037  0.23180526554568462  0.768194763359136  1.0000
  O   O2        1.0  0.7681929155723907  0.7681930739620585  0.23180690873294665  1.0000
  O   O3        1.0  0.7681940249380983  0.23180639262251493  0.23180580472552265  1.0000
  O   O4        1.0  0.23180612499725978  0.7681941151751672  0.7681937687971869  1.0000
  O   O5        1.0  0.23180675920539703  0.7681935269990109  0.23180644825418348  1.0000
  O   O6        1.0  0.7681946517650862  0.23180565890263952  0.7681944077918517  1.0000
