data_image0
_chemical_formula_structural       Bi2NbSe6
_chemical_formula_sum              "Bi2 Nb1 Se6"
_cell_length_a       6.798725835723275
_cell_length_b       6.798726078394923
_cell_length_c       6.798725907134783
_cell_angle_alpha    59.99999969944562
_cell_angle_beta     60.000000430703615
_cell_angle_gamma    60.000000946095106

_space_group_name_H-M_alt    "P 1"
_space_group_IT_number       1

loop_
  _space_group_symop_operation_xyz
  'x, y, z'

loop_
  _atom_site_type_symbol
  _atom_site_label
  _atom_site_symmetry_multiplicity
  _atom_site_fract_x
  _atom_site_fract_y
  _atom_site_fract_z
  _atom_site_occupancy
  Bi  Bi1       1.0  0.2499997930097354  0.24999991543860262  0.2500001990010784  1.0000
  Bi  Bi2       1.0  0.7499999440629876  0.7499999823035203  0.7500000346974688  1.0000
  Nb  Nb1       1.0  0.9999999782121063  1.4411463081027342e-08  0.9999999933921683  1.0000
  Se  Se1       1.0  0.260101363635121  0.2601012821284075  0.7398986694862004  1.0000
  Se  Se2       1.0  0.7398986831128483  0.7398986750610026  0.2601013222873921  1.0000
  Se  Se3       1.0  0.7398987448675962  0.260101344123523  0.2601012899334773  1.0000
  Se  Se4       1.0  0.26010130920377605  0.7398987337618901  0.7398986363595473  1.0000
  Se  Se5       1.0  0.26010138665268256  0.739898714318263  0.26010124612239377  1.0000
  Se  Se6       1.0  0.7398987987111765  0.26010133654565776  0.7398986118556327  1.0000
