data_image0
_chemical_formula_structural       Bi2NiS6
_chemical_formula_sum              "Bi2 Ni1 S6"
_cell_length_a       6.259518195264929
_cell_length_b       6.259517996018017
_cell_length_c       6.2595185031759755
_cell_angle_alpha    59.999996547303866
_cell_angle_beta     59.999996571146816
_cell_angle_gamma    59.9999989232798

_space_group_name_H-M_alt    "P 1"
_space_group_IT_number       1

loop_
  _space_group_symop_operation_xyz
  'x, y, z'

loop_
  _atom_site_type_symbol
  _atom_site_label
  _atom_site_symmetry_multiplicity
  _atom_site_fract_x
  _atom_site_fract_y
  _atom_site_fract_z
  _atom_site_occupancy
  Bi  Bi1       1.0  0.24999988764751535  0.2500000158424247  0.2500002492239522  1.0000
  Bi  Bi2       1.0  0.7499999764541185  0.7499998264301061  0.7499999841570826  1.0000
  Ni  Ni1       1.0  6.02424762075043e-08  0.9999999686942064  3.026353321053083e-08  1.0000
  S   S1        1.0  0.2516495952408154  0.25164971288792654  0.7483502542640109  1.0000
  S   S2        1.0  0.7483505309376719  0.7483502839569712  0.2516496541700206  1.0000
  S   S3        1.0  0.7483502406123202  0.25164968994983505  0.2516497142646388  1.0000
  S   S4        1.0  0.25164976018008284  0.7483504008124446  0.7483502370623833  1.0000
  S   S5        1.0  0.2516496631506724  0.7483502706877362  0.2516496414039836  1.0000
  S   S6        1.0  0.7483503027041124  0.2516498142047063  0.7483502520459854  1.0000
