data_image0
_chemical_formula_structural       Bi2NbTe6
_chemical_formula_sum              "Bi2 Nb1 Te6"
_cell_length_a       7.3371114786595415
_cell_length_b       7.337111153666205
_cell_length_c       7.337111275714021
_cell_angle_alpha    60.00000062833818
_cell_angle_beta     60.00000023228795
_cell_angle_gamma    60.000002296344206

_space_group_name_H-M_alt    "P 1"
_space_group_IT_number       1

loop_
  _space_group_symop_operation_xyz
  'x, y, z'

loop_
  _atom_site_type_symbol
  _atom_site_label
  _atom_site_symmetry_multiplicity
  _atom_site_fract_x
  _atom_site_fract_y
  _atom_site_fract_z
  _atom_site_occupancy
  Bi  Bi1       1.0  0.24999998403702164  0.24999991209523786  0.2500001472053381  1.0000
  Bi  Bi2       1.0  0.7500000819655355  0.7500001068584784  0.7499998002402795  1.0000
  Nb  Nb1       1.0  4.5066848024808775e-08  3.0046443276357895e-08  4.558234152502383e-08  1.0000
  Te  Te1       1.0  0.2632805250706137  0.2632803937906198  0.7367195271479606  1.0000
  Te  Te2       1.0  0.7367194763606006  0.7367195450392539  0.2632805376220781  1.0000
  Te  Te3       1.0  0.7367194752382406  0.2632804678111415  0.2632805184215484  1.0000
  Te  Te4       1.0  0.2632805045255278  0.7367194793649631  0.7367194398855584  1.0000
  Te  Te5       1.0  0.2632804305753374  0.7367194985259977  0.2632805606769442  1.0000
  Te  Te6       1.0  0.7367194849633855  0.2632805705051147  0.7367194192437485  1.0000
