data_image0
_chemical_formula_structural       Bi2NiTe6
_chemical_formula_sum              "Bi2 Ni1 Te6"
_cell_length_a       7.068770984887011
_cell_length_b       7.068771429291584
_cell_length_c       7.0687708468634876
_cell_angle_alpha    60.00000368750752
_cell_angle_beta     60.00000088428375
_cell_angle_gamma    60.000002044371016

_space_group_name_H-M_alt    "P 1"
_space_group_IT_number       1

loop_
  _space_group_symop_operation_xyz
  'x, y, z'

loop_
  _atom_site_type_symbol
  _atom_site_label
  _atom_site_symmetry_multiplicity
  _atom_site_fract_x
  _atom_site_fract_y
  _atom_site_fract_z
  _atom_site_occupancy
  Bi  Bi1       1.0  0.2500000201135596  0.25000012513231423  0.2499999235006967  1.0000
  Bi  Bi2       1.0  0.7499999523867591  0.7499999543718839  0.7499998765481887  1.0000
  Ni  Ni1       1.0  6.062155797077668e-08  1.9058746243006007e-08  0.9999999021582509  1.0000
  Te  Te1       1.0  0.2543687820004897  0.2543689026683581  0.7456311434406485  1.0000
  Te  Te2       1.0  0.745631200368973  0.7456310590181308  0.2543689567356387  1.0000
  Te  Te3       1.0  0.7456311394837531  0.2543688098185989  0.25436881563614894  1.0000
  Te  Te4       1.0  0.25436889015880887  0.7456311570657301  0.7456313007448617  1.0000
  Te  Te5       1.0  0.25436877405922054  0.7456311538838633  0.25436882758742213  1.0000
  Te  Te6       1.0  0.7456311654422658  0.2543688285939867  0.7456312581630568  1.0000
