data_image0
_chemical_formula_structural       Bi2NbN6
_chemical_formula_sum              "Bi2 Nb1 N6"
_cell_length_a       5.611328655357095
_cell_length_b       5.611328377050799
_cell_length_c       5.611328170602938
_cell_angle_alpha    59.99999984757362
_cell_angle_beta     59.99999964158797
_cell_angle_gamma    59.99999933631518

_space_group_name_H-M_alt    "P 1"
_space_group_IT_number       1

loop_
  _space_group_symop_operation_xyz
  'x, y, z'

loop_
  _atom_site_type_symbol
  _atom_site_label
  _atom_site_symmetry_multiplicity
  _atom_site_fract_x
  _atom_site_fract_y
  _atom_site_fract_z
  _atom_site_occupancy
  Bi  Bi1       1.0  0.2500000073169995  0.2500001298207776  0.24999985053805932  1.0000
  Bi  Bi2       1.0  0.7499998666673923  0.7499999354754718  0.7500000077287089  1.0000
  Nb  Nb1       1.0  0.9999999953030977  0.9999999585300466  0.999999982094915  1.0000
  N   N1        1.0  0.2637043654332384  0.2637042693807463  0.7362956804751631  1.0000
  N   N2        1.0  0.7362957222523648  0.7362957042450795  0.2637043466683039  1.0000
  N   N3        1.0  0.7362956499247284  0.26370433940653243  0.2637043947361393  1.0000
  N   N4        1.0  0.26370443404116584  0.7362955774709357  0.7362957250151866  1.0000
  N   N5        1.0  0.2637043369125155  0.7362956925611118  0.26370431888663365  1.0000
  N   N6        1.0  0.7362956145194001  0.26370441202246164  0.7362956645699641  1.0000
