data_image0
_chemical_formula_structural       Bi2NiN6
_chemical_formula_sum              "Bi2 Ni1 N6"
_cell_length_a       5.478777215630067
_cell_length_b       5.478777496550207
_cell_length_c       5.478777392353574
_cell_angle_alpha    60.00000014549231
_cell_angle_beta     59.99999967582406
_cell_angle_gamma    60.000000454392826

_space_group_name_H-M_alt    "P 1"
_space_group_IT_number       1

loop_
  _space_group_symop_operation_xyz
  'x, y, z'

loop_
  _atom_site_type_symbol
  _atom_site_label
  _atom_site_symmetry_multiplicity
  _atom_site_fract_x
  _atom_site_fract_y
  _atom_site_fract_z
  _atom_site_occupancy
  Bi  Bi1       1.0  0.24999998220161201  0.24999996984511244  0.25000000508675063  1.0000
  Bi  Bi2       1.0  0.7500000030823059  0.7500000056590229  0.7500000247452366  1.0000
  Ni  Ni1       1.0  0.9999999725794209  3.800238779545252e-08  2.0099942862639795e-09  1.0000
  N   N1        1.0  0.24374465187135902  0.24374466987961085  0.7562553300463192  1.0000
  N   N2        1.0  0.7562553552116499  0.7562553413914778  0.24374464727472428  1.0000
  N   N3        1.0  0.7562553908471307  0.24374467407873357  0.2437446383950245  1.0000
  N   N4        1.0  0.24374464661510253  0.7562553282506165  0.756255331857726  1.0000
  N   N5        1.0  0.2437446260981015  0.7562553593243007  0.24374466427014785  1.0000
  N   N6        1.0  0.7562553619107026  0.24374462065070399  0.7562553345855906  1.0000
