data_image0
_chemical_formula_structural       Bi2OsN6
_chemical_formula_sum              "Bi2 Os1 N6"
_cell_length_a       5.596406049776024
_cell_length_b       5.59640569748283
_cell_length_c       5.596405872650508
_cell_angle_alpha    60.00000036988071
_cell_angle_beta     59.99999891550786
_cell_angle_gamma    60.00000014374379

_space_group_name_H-M_alt    "P 1"
_space_group_IT_number       1

loop_
  _space_group_symop_operation_xyz
  'x, y, z'

loop_
  _atom_site_type_symbol
  _atom_site_label
  _atom_site_symmetry_multiplicity
  _atom_site_fract_x
  _atom_site_fract_y
  _atom_site_fract_z
  _atom_site_occupancy
  Bi  Bi1       1.0  0.24999995747566467  0.2500000039963538  0.2499999917456687  1.0000
  Bi  Bi2       1.0  0.749999923383429  0.7500000448158003  0.7500000441308072  1.0000
  Os  Os1       1.0  1.3713542879753758e-08  2.1884493541762277e-09  0.999999997409587  1.0000
  N   N1        1.0  0.24424854504572419  0.24424846763487032  0.7557514829113201  1.0000
  N   N2        1.0  0.7557514594033652  0.7557515199007117  0.24424850036610832  1.0000
  N   N3        1.0  0.7557515513639504  0.24424848366638013  0.24424849861572132  1.0000
  N   N4        1.0  0.24424856308674855  0.7557514338388357  0.7557515307899436  1.0000
  N   N5        1.0  0.24424857157543742  0.7557514784701991  0.24424849584567113  1.0000
  N   N6        1.0  0.7557514309140477  0.24424853970366972  0.7557514820267217  1.0000
