data_image0
_chemical_formula_structural       Bi2PdS6
_chemical_formula_sum              "Bi2 Pd1 S6"
_cell_length_a       6.352145196882803
_cell_length_b       6.3521444275597485
_cell_length_c       6.352144567096183
_cell_angle_alpha    60.00000370021834
_cell_angle_beta     60.000003679056256
_cell_angle_gamma    60.00000400723955

_space_group_name_H-M_alt    "P 1"
_space_group_IT_number       1

loop_
  _space_group_symop_operation_xyz
  'x, y, z'

loop_
  _atom_site_type_symbol
  _atom_site_label
  _atom_site_symmetry_multiplicity
  _atom_site_fract_x
  _atom_site_fract_y
  _atom_site_fract_z
  _atom_site_occupancy
  Bi  Bi1       1.0  0.2500001414635458  0.25000019870223467  0.24999990931931418  1.0000
  Bi  Bi2       1.0  0.7500002765560161  0.7499997689599749  0.7499997730783052  1.0000
  Pd  Pd1       1.0  0.9999999716112158  9.061979698729153e-08  0.9999998933194657  1.0000
  S   S1        1.0  0.26300383420556994  0.26300405136520016  0.7369960389277268  1.0000
  S   S2        1.0  0.7369960144513166  0.73699603198185  0.2630040781126466  1.0000
  S   S3        1.0  0.7369959629616961  0.2630039374200941  0.2630039328013142  1.0000
  S   S4        1.0  0.2630038967880077  0.7369960090332125  0.7369962282482603  1.0000
  S   S5        1.0  0.26300385567668777  0.7369959030541108  0.2630039755488539  1.0000
  S   S6        1.0  0.7369960413114036  0.263003997125255  0.7369961711272379  1.0000
