data_image0
_chemical_formula_structural       Bi2PtN6
_chemical_formula_sum              "Bi2 Pt1 N6"
_cell_length_a       5.553995147316906
_cell_length_b       5.553994710030308
_cell_length_c       5.553995001215702
_cell_angle_alpha    59.99999836104822
_cell_angle_beta     59.999997968566134
_cell_angle_gamma    59.999997528581254

_space_group_name_H-M_alt    "P 1"
_space_group_IT_number       1

loop_
  _space_group_symop_operation_xyz
  'x, y, z'

loop_
  _atom_site_type_symbol
  _atom_site_label
  _atom_site_symmetry_multiplicity
  _atom_site_fract_x
  _atom_site_fract_y
  _atom_site_fract_z
  _atom_site_occupancy
  Bi  Bi1       1.0  0.2499999102064515  0.24999992364180093  0.250000093868907  1.0000
  Bi  Bi2       1.0  0.7499999400730756  0.7500000531859305  0.7500000519541439  1.0000
  Pt  Pt1       1.0  0.9999999663569352  1.984644305462095e-08  0.9999999834917367  1.0000
  N   N1        1.0  0.2551429869222872  0.2551428598084071  0.7448571196182698  1.0000
  N   N2        1.0  0.7448570676081117  0.7448570905573982  0.2551428166764175  1.0000
  N   N3        1.0  0.7448570931555315  0.2551429516191222  0.25514292415557777  1.0000
  N   N4        1.0  0.25514292302596914  0.7448571200305049  0.7448570624974428  1.0000
  N   N5        1.0  0.25514303606027544  0.744857092080069  0.2551428683574833  1.0000
  N   N6        1.0  0.744857114232306  0.25514285167025574  0.7448570521719431  1.0000
