data_image0
_chemical_formula_structural       Bi2PN6
_chemical_formula_sum              "Bi2 P1 N6"
_cell_length_a       5.41382857245165
_cell_length_b       5.413828453043269
_cell_length_c       5.413829069778883
_cell_angle_alpha    60.0000010570319
_cell_angle_beta     59.99999938025922
_cell_angle_gamma    60.00000287093933

_space_group_name_H-M_alt    "P 1"
_space_group_IT_number       1

loop_
  _space_group_symop_operation_xyz
  'x, y, z'

loop_
  _atom_site_type_symbol
  _atom_site_label
  _atom_site_symmetry_multiplicity
  _atom_site_fract_x
  _atom_site_fract_y
  _atom_site_fract_z
  _atom_site_occupancy
  Bi  Bi1       1.0  0.2500000285449473  0.24999998364480125  0.2500000288549605  1.0000
  Bi  Bi2       1.0  0.749999996268568  0.7500000142774733  0.7499999813607092  1.0000
  P   P1        1.0  0.9999999985140283  0.9999999660662066  0.9999999789203301  1.0000
  N   N1        1.0  0.23596443755537147  0.2359643268991501  0.7640355974844601  1.0000
  N   N2        1.0  0.7640355742243458  0.7640356461383416  0.23596438735958306  1.0000
  N   N3        1.0  0.7640356336533146  0.235964370152382  0.23596430004550628  1.0000
  N   N4        1.0  0.23596437487350286  0.7640355870493418  0.7640357331324215  1.0000
  N   N5        1.0  0.2359643566620187  0.7640356670533569  0.23596431077703203  1.0000
  N   N6        1.0  0.7640356265918798  0.23596438516298265  0.7640356856829287  1.0000
