data_image0
_chemical_formula_structural       Bi2PO6
_chemical_formula_sum              "Bi2 P1 O6"
_cell_length_a       5.275809465752137
_cell_length_b       5.2758086131473165
_cell_length_c       5.275809260699439
_cell_angle_alpha    59.9999986642842
_cell_angle_beta     59.9999999497244
_cell_angle_gamma    59.99999800672554

_space_group_name_H-M_alt    "P 1"
_space_group_IT_number       1

loop_
  _space_group_symop_operation_xyz
  'x, y, z'

loop_
  _atom_site_type_symbol
  _atom_site_label
  _atom_site_symmetry_multiplicity
  _atom_site_fract_x
  _atom_site_fract_y
  _atom_site_fract_z
  _atom_site_occupancy
  Bi  Bi1       1.0  0.25000003195147796  0.2499999356633455  0.25000001874972316  1.0000
  Bi  Bi2       1.0  0.7499999796538223  0.7499999323475476  0.7500000270299539  1.0000
  P   P1        1.0  4.041261978994789e-08  2.321435507797613e-08  0.9999999700819564  1.0000
  O   O1        1.0  0.23091474588163427  0.2309145574127676  0.7690853620160326  1.0000
  O   O2        1.0  0.7690853113290788  0.7690854823843496  0.23091460160404248  1.0000
  O   O3        1.0  0.7690852943451141  0.2309146047658579  0.23091467862151588  1.0000
  O   O4        1.0  0.2309146939774901  0.7690854512813057  0.7690852923631533  1.0000
  O   O5        1.0  0.23091471337357689  0.7690853622997456  0.23091459358702818  1.0000
  O   O6        1.0  0.7690853177286446  0.2309146310686611  0.7690853702882149  1.0000
