data_image0
_chemical_formula_structural       Bi2PdN6
_chemical_formula_sum              "Bi2 Pd1 N6"
_cell_length_a       5.564335752961836
_cell_length_b       5.564335593967871
_cell_length_c       5.564335877164048
_cell_angle_alpha    59.99999986603008
_cell_angle_beta     59.99999905885015
_cell_angle_gamma    60.000000530856454

_space_group_name_H-M_alt    "P 1"
_space_group_IT_number       1

loop_
  _space_group_symop_operation_xyz
  'x, y, z'

loop_
  _atom_site_type_symbol
  _atom_site_label
  _atom_site_symmetry_multiplicity
  _atom_site_fract_x
  _atom_site_fract_y
  _atom_site_fract_z
  _atom_site_occupancy
  Bi  Bi1       1.0  0.2499999508392515  0.24999992510096178  0.2500001133527345  1.0000
  Bi  Bi2       1.0  0.7500000706598487  0.7499999800016691  0.7499999579075983  1.0000
  Pd  Pd1       1.0  1.5407434370719834e-08  0.9999999537776949  5.6742107080998793e-08  1.0000
  N   N1        1.0  0.2533847702859889  0.2533848576176319  0.746615171165411  1.0000
  N   N2        1.0  0.7466151881375954  0.7466151993582886  0.25338481076704533  1.0000
  N   N3        1.0  0.7466152063915293  0.25338482694281755  0.2533848243431801  1.0000
  N   N4        1.0  0.25338474760833357  0.7466152806575329  0.7466151165173258  1.0000
  N   N5        1.0  0.2533847593663983  0.7466151923768611  0.2533848519021639  1.0000
  N   N6        1.0  0.7466152690271409  0.25338482277887864  0.7466151177525643  1.0000
