data_image0
_chemical_formula_structural       Bi2PtSe6
_chemical_formula_sum              "Bi2 Pt1 Se6"
_cell_length_a       6.724904428163552
_cell_length_b       6.724904236987986
_cell_length_c       6.724904399800141
_cell_angle_alpha    59.99999982027997
_cell_angle_beta     60.0000003024551
_cell_angle_gamma    60.00000185406825

_space_group_name_H-M_alt    "P 1"
_space_group_IT_number       1

loop_
  _space_group_symop_operation_xyz
  'x, y, z'

loop_
  _atom_site_type_symbol
  _atom_site_label
  _atom_site_symmetry_multiplicity
  _atom_site_fract_x
  _atom_site_fract_y
  _atom_site_fract_z
  _atom_site_occupancy
  Bi  Bi1       1.0  0.24999995472431363  0.24999999293724154  0.250000026178506  1.0000
  Bi  Bi2       1.0  0.7500000165738718  0.750000000666223  0.7499998858300947  1.0000
  Pt  Pt1       1.0  1.1811045327858873e-08  1.092724786700961e-08  1.8371053196144005e-08  1.0000
  Se  Se1       1.0  0.2580319242264029  0.25803186374042764  0.7419680912182227  1.0000
  Se  Se2       1.0  0.7419681088856258  0.7419681298630393  0.2580319370974435  1.0000
  Se  Se3       1.0  0.7419681452267165  0.25803185694088887  0.25803187732349897  1.0000
  Se  Se4       1.0  0.258031858002086  0.7419681129868745  0.7419681569534922  1.0000
  Se  Se5       1.0  0.25803182681639547  0.7419681371953  0.25803189510328695  1.0000
  Se  Se6       1.0  0.7419681545579141  0.258031898295947  0.7419681128581794  1.0000
