data_image0
_chemical_formula_structural       Bi2PbN6
_chemical_formula_sum              "Bi2 Pb1 N6"
_cell_length_a       5.746678969940721
_cell_length_b       5.74667879088712
_cell_length_c       5.746678742577519
_cell_angle_alpha    60.00000179248228
_cell_angle_beta     60.0000015406451
_cell_angle_gamma    60.000000071419755

_space_group_name_H-M_alt    "P 1"
_space_group_IT_number       1

loop_
  _space_group_symop_operation_xyz
  'x, y, z'

loop_
  _atom_site_type_symbol
  _atom_site_label
  _atom_site_symmetry_multiplicity
  _atom_site_fract_x
  _atom_site_fract_y
  _atom_site_fract_z
  _atom_site_occupancy
  Bi  Bi1       1.0  0.2500001004542091  0.24999987214744435  0.24999999763276878  1.0000
  Bi  Bi2       1.0  0.7500000046842198  0.7500000362930751  0.7499996737720814  1.0000
  Pb  Pb1       1.0  1.2379846303109072e-08  5.3280550785816647e-08  0.9999999410677688  1.0000
  N   N1        1.0  0.2644440156197304  0.26444398190864116  0.7355559764350948  1.0000
  N   N2        1.0  0.735555932261166  0.7355560245681021  0.26444424314080583  1.0000
  N   N3        1.0  0.7355559742483744  0.26444388553563875  0.2644441449527911  1.0000
  N   N4        1.0  0.26444412370591924  0.7355559781492234  0.7355559056694726  1.0000
  N   N5        1.0  0.26444391816017015  0.7355560429357031  0.2644441441067323  1.0000
  N   N6        1.0  0.7355559308139816  0.26444412764513764  0.7355559837058847  1.0000
