data_image0
_chemical_formula_structural       Bi2PbTe6
_chemical_formula_sum              "Bi2 Pb1 Te6"
_cell_length_a       7.599098527337099
_cell_length_b       7.599098180996113
_cell_length_c       7.5990982770653694
_cell_angle_alpha    60.000001858923284
_cell_angle_beta     60.00000373450546
_cell_angle_gamma    60.000002686045256

_space_group_name_H-M_alt    "P 1"
_space_group_IT_number       1

loop_
  _space_group_symop_operation_xyz
  'x, y, z'

loop_
  _atom_site_type_symbol
  _atom_site_label
  _atom_site_symmetry_multiplicity
  _atom_site_fract_x
  _atom_site_fract_y
  _atom_site_fract_z
  _atom_site_occupancy
  Bi  Bi1       1.0  0.24999978505968282  0.2500001553555461  0.25000001823016166  1.0000
  Bi  Bi2       1.0  0.7500001702520027  0.7499998761853262  0.7500000434224819  1.0000
  Pb  Pb1       1.0  2.7812286763595295e-08  0.9999999758245365  1.5288881417774643e-08  1.0000
  Te  Te1       1.0  0.2849155066083303  0.2849157750784171  0.7150843846168623  1.0000
  Te  Te2       1.0  0.7150845089023093  0.7150841807126664  0.2849155821674411  1.0000
  Te  Te3       1.0  0.715084478546666  0.2849156793458505  0.2849156121544734  1.0000
  Te  Te4       1.0  0.2849155308542536  0.7150843312429532  0.7150843921352741  1.0000
  Te  Te5       1.0  0.28491552672133424  0.7150843776241037  0.284915716676768  1.0000
  Te  Te6       1.0  0.7150844574612857  0.2849156539167678  0.71508423447638  1.0000
