data_image0
_chemical_formula_structural       Bi2PS6
_chemical_formula_sum              "Bi2 P1 S6"
_cell_length_a       6.384734469472684
_cell_length_b       6.384734658112766
_cell_length_c       6.384734353107411
_cell_angle_alpha    59.9999995480703
_cell_angle_beta     59.99999994628398
_cell_angle_gamma    59.999998914173396

_space_group_name_H-M_alt    "P 1"
_space_group_IT_number       1

loop_
  _space_group_symop_operation_xyz
  'x, y, z'

loop_
  _atom_site_type_symbol
  _atom_site_label
  _atom_site_symmetry_multiplicity
  _atom_site_fract_x
  _atom_site_fract_y
  _atom_site_fract_z
  _atom_site_occupancy
  Bi  Bi1       1.0  0.2500000383221531  0.24999990224278124  0.24999998602126758  1.0000
  Bi  Bi2       1.0  0.7500000611084058  0.7499999388352979  0.7499998250847446  1.0000
  P   P1        1.0  0.9999999791376017  1.9182393277141678e-08  0.9999999914425871  1.0000
  S   S1        1.0  0.24238755992315072  0.2423875685987434  0.7576124475555022  1.0000
  S   S2        1.0  0.7576123720220466  0.7576125199321996  0.2423875835619115  1.0000
  S   S3        1.0  0.7576124505642243  0.24238754496948078  0.2423876021058641  1.0000
  S   S4        1.0  0.24238752834960325  0.7576124514859754  0.7576124922871118  1.0000
  S   S5        1.0  0.24238754825061565  0.7576124237122293  0.2423876539559248  1.0000
  S   S6        1.0  0.7576124577535672  0.24238763796336132  0.7576124224740508  1.0000
