data_image0
_chemical_formula_structural       Bi2PdSe6
_chemical_formula_sum              "Bi2 Pd1 Se6"
_cell_length_a       6.730727576640426
_cell_length_b       6.730727685258717
_cell_length_c       6.730727854112088
_cell_angle_alpha    59.999999783202334
_cell_angle_beta     59.99999947603687
_cell_angle_gamma    59.99999966572894

_space_group_name_H-M_alt    "P 1"
_space_group_IT_number       1

loop_
  _space_group_symop_operation_xyz
  'x, y, z'

loop_
  _atom_site_type_symbol
  _atom_site_label
  _atom_site_symmetry_multiplicity
  _atom_site_fract_x
  _atom_site_fract_y
  _atom_site_fract_z
  _atom_site_occupancy
  Bi  Bi1       1.0  0.24999990469911418  0.24999998732152032  0.2500000378575659  1.0000
  Bi  Bi2       1.0  0.7500000823374268  0.7499999637841914  0.7499999003140979  1.0000
  Pd  Pd1       1.0  0.9999999658789633  2.001595398186071e-08  0.9999999491093279  1.0000
  Se  Se1       1.0  0.2610547612670504  0.2610547660045141  0.7389452445624435  1.0000
  Se  Se2       1.0  0.7389452623672058  0.7389452451490601  0.2610547923730503  1.0000
  Se  Se3       1.0  0.7389452233799348  0.2610547901999787  0.2610547544088342  1.0000
  Se  Se4       1.0  0.2610547748151801  0.7389452355106529  0.7389452523103394  1.0000
  Se  Se5       1.0  0.2610547538189572  0.7389452246076046  0.26105479939561976  1.0000
  Se  Se6       1.0  0.7389452602325156  0.2610547792674412  0.7389452533991471  1.0000
