data_image0
_chemical_formula_structural       Bi2PtO6
_chemical_formula_sum              "Bi2 Pt1 O6"
_cell_length_a       5.423915055004048
_cell_length_b       5.423915042263379
_cell_length_c       5.423914972978624
_cell_angle_alpha    60.00000163262016
_cell_angle_beta     60.00000163080966
_cell_angle_gamma    60.00000137663556

_space_group_name_H-M_alt    "P 1"
_space_group_IT_number       1

loop_
  _space_group_symop_operation_xyz
  'x, y, z'

loop_
  _atom_site_type_symbol
  _atom_site_label
  _atom_site_symmetry_multiplicity
  _atom_site_fract_x
  _atom_site_fract_y
  _atom_site_fract_z
  _atom_site_occupancy
  Bi  Bi1       1.0  0.24999984549639037  0.25000004605289655  0.25000011460550625  1.0000
  Bi  Bi2       1.0  0.7500001363057393  0.7499999800954841  0.7499998113567856  1.0000
  Pt  Pt1       1.0  0.9999999706897189  1.1290229096206215e-08  3.850901334773094e-08  1.0000
  O   O1        1.0  0.257466942993353  0.2574670107991858  0.7425329957662642  1.0000
  O   O2        1.0  0.7425331049340026  0.7425330085750589  0.2574670258911802  1.0000
  O   O3        1.0  0.7425329993816256  0.2574670215987573  0.2574670382466564  1.0000
  O   O4        1.0  0.25746701097810387  0.7425329955174409  0.7425329517003958  1.0000
  O   O5        1.0  0.2574669479087398  0.7425329254524247  0.2574670865361417  1.0000
  O   O6        1.0  0.7425330259164817  0.25746703521262815  0.7425328835310142  1.0000
