data_image0
_chemical_formula_structural       Bi2RhO6
_chemical_formula_sum              "Bi2 Rh1 O6"
_cell_length_a       5.422726971826821
_cell_length_b       5.422726928157614
_cell_length_c       5.422727043223491
_cell_angle_alpha    59.99999976598686
_cell_angle_beta     60.00000082925368
_cell_angle_gamma    59.99999904675222

_space_group_name_H-M_alt    "P 1"
_space_group_IT_number       1

loop_
  _space_group_symop_operation_xyz
  'x, y, z'

loop_
  _atom_site_type_symbol
  _atom_site_label
  _atom_site_symmetry_multiplicity
  _atom_site_fract_x
  _atom_site_fract_y
  _atom_site_fract_z
  _atom_site_occupancy
  Bi  Bi1       1.0  0.2499998695117598  0.2500001988182905  0.2500000112255555  1.0000
  Bi  Bi2       1.0  0.7499999457625489  0.7499998850145864  0.7500000511268391  1.0000
  Rh  Rh1       1.0  0.9999998615686305  3.839519118816127e-08  1.3115807463086306e-07  1.0000
  O   O1        1.0  0.2528527985206637  0.2528525822228191  0.7471472717748984  1.0000
  O   O2        1.0  0.747147295509584  0.7471473999757293  0.25285268541987804  1.0000
  O   O3        1.0  0.7471473274373421  0.2528527174086454  0.25285256835565306  1.0000
  O   O4        1.0  0.252852808837174  0.747147208326388  0.7471473645992066  1.0000
  O   O5        1.0  0.2528527466144516  0.7471472419449657  0.25285263593618784  1.0000
  O   O6        1.0  0.7471473481908049  0.252852699599852  0.7471472950956841  1.0000
