data_image0
_chemical_formula_structural       Bi2RuN6
_chemical_formula_sum              "Bi2 Ru1 N6"
_cell_length_a       5.582373137403107
_cell_length_b       5.582373020325866
_cell_length_c       5.582373421561156
_cell_angle_alpha    59.9999994575475
_cell_angle_beta     59.99999896470998
_cell_angle_gamma    60.00000098651146

_space_group_name_H-M_alt    "P 1"
_space_group_IT_number       1

loop_
  _space_group_symop_operation_xyz
  'x, y, z'

loop_
  _atom_site_type_symbol
  _atom_site_label
  _atom_site_symmetry_multiplicity
  _atom_site_fract_x
  _atom_site_fract_y
  _atom_site_fract_z
  _atom_site_occupancy
  Bi  Bi1       1.0  0.24999991151553663  0.25000004047838725  0.25000002855589515  1.0000
  Bi  Bi2       1.0  0.7500001284175507  0.7499998954582944  0.7500000733747579  1.0000
  Ru  Ru1       1.0  0.999999927581809  3.729715389787929e-08  7.130110130556182e-08  1.0000
  N   N1        1.0  0.24308677460752082  0.24308689909190168  0.7569131996779017  1.0000
  N   N2        1.0  0.7569132192956685  0.7569131004693337  0.24308673760773447  1.0000
  N   N3        1.0  0.7569132226210731  0.24308686084950254  0.24308670045744826  1.0000
  N   N4        1.0  0.24308675851636513  0.7569131211601302  0.7569132376560426  1.0000
  N   N5        1.0  0.2430868516126428  0.7569131358632448  0.2430868318821942  1.0000
  N   N6        1.0  0.7569131976590328  0.24308685272824235  0.756913192476591  1.0000
