data_image0
_chemical_formula_structural       Bi2RuO6
_chemical_formula_sum              "Bi2 Ru1 O6"
_cell_length_a       5.480811983880551
_cell_length_b       5.4808119528726165
_cell_length_c       5.480812172096685
_cell_angle_alpha    59.99999876909278
_cell_angle_beta     59.99999831919262
_cell_angle_gamma    59.999999123892316

_space_group_name_H-M_alt    "P 1"
_space_group_IT_number       1

loop_
  _space_group_symop_operation_xyz
  'x, y, z'

loop_
  _atom_site_type_symbol
  _atom_site_label
  _atom_site_symmetry_multiplicity
  _atom_site_fract_x
  _atom_site_fract_y
  _atom_site_fract_z
  _atom_site_occupancy
  Bi  Bi1       1.0  0.24999998793380732  0.2499999590795835  0.25000007197287377  1.0000
  Bi  Bi2       1.0  0.7499999876553731  0.7499999889689913  0.749999903637213  1.0000
  Ru  Ru1       1.0  4.21361110421611e-09  8.469525351998941e-17  2.3436853905073236e-08  1.0000
  O   O1        1.0  0.24451970428994246  0.24451963026736612  0.7554803096078683  1.0000
  O   O2        1.0  0.7554803296288726  0.7554803892885635  0.24451965217104243  1.0000
  O   O3        1.0  0.7554803880780379  0.24451956756020599  0.2445196272605305  1.0000
  O   O4        1.0  0.24451961634549835  0.7554804519957237  0.7554803675114908  1.0000
  O   O5        1.0  0.2445195422387631  0.7554804235942941  0.2445196373949768  1.0000
  O   O6        1.0  0.7554804620569735  0.24451960266545017  0.7554804106499973  1.0000
