data_image0
_chemical_formula_structural       Bi2RhS6
_chemical_formula_sum              "Bi2 Rh1 S6"
_cell_length_a       6.381876050932087
_cell_length_b       6.38187610146351
_cell_length_c       6.381875849489854
_cell_angle_alpha    59.99999873190569
_cell_angle_beta     59.9999992595839
_cell_angle_gamma    60.0000000951026

_space_group_name_H-M_alt    "P 1"
_space_group_IT_number       1

loop_
  _space_group_symop_operation_xyz
  'x, y, z'

loop_
  _atom_site_type_symbol
  _atom_site_label
  _atom_site_symmetry_multiplicity
  _atom_site_fract_x
  _atom_site_fract_y
  _atom_site_fract_z
  _atom_site_occupancy
  Bi  Bi1       1.0  0.24999997425445356  0.24999998285853803  0.2499999889606516  1.0000
  Bi  Bi2       1.0  0.7499999564258619  0.7500000809934078  0.7500000091967968  1.0000
  Rh  Rh1       1.0  1.5443712457760583e-08  0.9999999808090163  0.9999999517316387  1.0000
  S   S1        1.0  0.2579244598077676  0.25792436695207616  0.742075559400435  1.0000
  S   S2        1.0  0.7420755364667619  0.7420756412460138  0.25792443065295956  1.0000
  S   S3        1.0  0.7420756892764883  0.2579243590723005  0.2579243523225985  1.0000
  S   S4        1.0  0.25792430147908596  0.7420756222584087  0.7420757307038977  1.0000
  S   S5        1.0  0.25792440054031207  0.742075638879094  0.25792433509490953  1.0000
  S   S6        1.0  0.7420756617486205  0.2579243232606317  0.7420756794530888  1.0000
