data_image0
_chemical_formula_structural       Bi2RhN6
_chemical_formula_sum              "Bi2 Rh1 N6"
_cell_length_a       5.568728216803104
_cell_length_b       5.568728198441846
_cell_length_c       5.568728350296522
_cell_angle_alpha    60.000000563539984
_cell_angle_beta     59.999999469779226
_cell_angle_gamma    59.999999479367254

_space_group_name_H-M_alt    "P 1"
_space_group_IT_number       1

loop_
  _space_group_symop_operation_xyz
  'x, y, z'

loop_
  _atom_site_type_symbol
  _atom_site_label
  _atom_site_symmetry_multiplicity
  _atom_site_fract_x
  _atom_site_fract_y
  _atom_site_fract_z
  _atom_site_occupancy
  Bi  Bi1       1.0  0.25000005833159744  0.24999991175430278  0.2500000657831163  1.0000
  Bi  Bi2       1.0  0.7500000515199318  0.7500000123779837  0.7500000864101439  1.0000
  Rh  Rh1       1.0  0.9999999809823362  0.9999999824053911  0.9999999500679358  1.0000
  N   N1        1.0  0.25099773143338283  0.2509978681245871  0.7490021890803896  1.0000
  N   N2        1.0  0.7490022439071987  0.7490022231564714  0.250997666658191  1.0000
  N   N3        1.0  0.7490022391577889  0.2509978055284696  0.2509977316669015  1.0000
  N   N4        1.0  0.2509976195827578  0.7490022747559613  0.7490022794528578  1.0000
  N   N5        1.0  0.2509978078536694  0.749002247182476  0.25099775077217823  1.0000
  N   N6        1.0  0.7490022610300978  0.25099765055789686  0.7490022932372931  1.0000
