data_image0
_chemical_formula_structural       Bi2SnN6
_chemical_formula_sum              "Bi2 Sn1 N6"
_cell_length_a       5.640238607035161
_cell_length_b       5.640238675630371
_cell_length_c       5.640238558354516
_cell_angle_alpha    60.0000012795619
_cell_angle_beta     60.00000127853887
_cell_angle_gamma    60.00000210423866

_space_group_name_H-M_alt    "P 1"
_space_group_IT_number       1

loop_
  _space_group_symop_operation_xyz
  'x, y, z'

loop_
  _atom_site_type_symbol
  _atom_site_label
  _atom_site_symmetry_multiplicity
  _atom_site_fract_x
  _atom_site_fract_y
  _atom_site_fract_z
  _atom_site_occupancy
  Bi  Bi1       1.0  0.2500001281903758  0.25000011742730277  0.24999983955284547  1.0000
  Bi  Bi2       1.0  0.7500001301794843  0.7500000222227929  0.7499997417379006  1.0000
  Sn  Sn1       1.0  0.9999999372589169  0.9999999978285576  1.1180566418897787e-08  1.0000
  N   N1        1.0  0.26183963558622125  0.2618397780345916  0.7381602877524936  1.0000
  N   N2        1.0  0.7381604141304586  0.7381602812721663  0.2618397713557443  1.0000
  N   N3        1.0  0.7381602412219593  0.2618394898568695  0.2618398374081343  1.0000
  N   N4        1.0  0.2618397347369344  0.7381602502479826  0.7381603578988096  1.0000
  N   N5        1.0  0.2618395614473965  0.7381603074690146  0.26183981846106746  1.0000
  N   N6        1.0  0.7381602472928519  0.26183975618062333  0.7381603642828684  1.0000
