data_image0
_chemical_formula_structural       Bi2SnTe6
_chemical_formula_sum              "Bi2 Sn1 Te6"
_cell_length_a       7.457197823396809
_cell_length_b       7.4571973854278335
_cell_length_c       7.457197250861389
_cell_angle_alpha    59.99999754464963
_cell_angle_beta     60.000000317775616
_cell_angle_gamma    59.999994939364

_space_group_name_H-M_alt    "P 1"
_space_group_IT_number       1

loop_
  _space_group_symop_operation_xyz
  'x, y, z'

loop_
  _atom_site_type_symbol
  _atom_site_label
  _atom_site_symmetry_multiplicity
  _atom_site_fract_x
  _atom_site_fract_y
  _atom_site_fract_z
  _atom_site_occupancy
  Bi  Bi1       1.0  0.2499999091841509  0.2500002297210924  0.2499999332639724  1.0000
  Bi  Bi2       1.0  0.7500000200681907  0.749999667611465  0.7500000516671165  1.0000
  Sn  Sn1       1.0  5.852660632221081e-08  7.062174462248713e-08  1.4544018760013732e-08  1.0000
  Te  Te1       1.0  0.2720808461299678  0.27208104174673564  0.7279190276681485  1.0000
  Te  Te2       1.0  0.7279191334371478  0.7279189508430594  0.2720809984607744  1.0000
  Te  Te3       1.0  0.7279190880422733  0.2720810047384026  0.27208081165296644  1.0000
  Te  Te4       1.0  0.27208098807542813  0.7279189862090217  0.7279192099334117  1.0000
  Te  Te5       1.0  0.27208085896051404  0.7279189768035846  0.27208089304826594  1.0000
  Te  Te6       1.0  0.7279190998032946  0.27208107819613003  0.727919047910003  1.0000
