data_image0
_chemical_formula_structural       Bi2SeO6
_chemical_formula_sum              "Bi2 Se1 O6"
_cell_length_a       5.381188184284771
_cell_length_b       5.3811881460003095
_cell_length_c       5.381188096616559
_cell_angle_alpha    60.000000941644174
_cell_angle_beta     60.00000060378019
_cell_angle_gamma    60.00000083774208

_space_group_name_H-M_alt    "P 1"
_space_group_IT_number       1

loop_
  _space_group_symop_operation_xyz
  'x, y, z'

loop_
  _atom_site_type_symbol
  _atom_site_label
  _atom_site_symmetry_multiplicity
  _atom_site_fract_x
  _atom_site_fract_y
  _atom_site_fract_z
  _atom_site_occupancy
  Bi  Bi1       1.0  0.24999994526384398  0.25000006327024016  0.25000018320799267  1.0000
  Bi  Bi2       1.0  0.750000038520455  0.7499999485573914  0.7500003217288651  1.0000
  Se  Se1       1.0  0.9999999919374223  0.9999999726883021  0.9999999768039728  1.0000
  O   O1        1.0  0.23750614648055013  0.2375061941136741  0.7624937423937276  1.0000
  O   O2        1.0  0.7624938342914497  0.7624937881262803  0.23750608382931584  1.0000
  O   O3        1.0  0.7624938186146831  0.2375062059442975  0.2375061047561877  1.0000
  O   O4        1.0  0.23750615415790582  0.7624938582307498  0.762493742107111  1.0000
  O   O5        1.0  0.23750620983210077  0.7624938318022769  0.2375060761928436  1.0000
  O   O6        1.0  0.7624938504650196  0.2375061436097537  0.7624937768646743  1.0000
