data_image0
_chemical_formula_structural       Bi2SnSe6
_chemical_formula_sum              "Bi2 Sn1 Se6"
_cell_length_a       6.902090689902778
_cell_length_b       6.902090590475167
_cell_length_c       6.902090772375918
_cell_angle_alpha    59.99999899158423
_cell_angle_beta     59.99999910579444
_cell_angle_gamma    59.999999592991585

_space_group_name_H-M_alt    "P 1"
_space_group_IT_number       1

loop_
  _space_group_symop_operation_xyz
  'x, y, z'

loop_
  _atom_site_type_symbol
  _atom_site_label
  _atom_site_symmetry_multiplicity
  _atom_site_fract_x
  _atom_site_fract_y
  _atom_site_fract_z
  _atom_site_occupancy
  Bi  Bi1       1.0  0.2500000167003854  0.2500001563417452  0.24999993601181966  1.0000
  Bi  Bi2       1.0  0.7499999499347559  0.7499999313653842  0.7499999965533143  1.0000
  Sn  Sn1       1.0  3.7008352794436995e-08  0.9999999893532705  0.9999999781261701  1.0000
  Se  Se1       1.0  0.26775445946160076  0.26775451355797675  0.7322454727413212  1.0000
  Se  Se2       1.0  0.7322455399081799  0.7322454659074007  0.26775448598667834  1.0000
  Se  Se3       1.0  0.7322454533254887  0.26775449118859296  0.2677545276175719  1.0000
  Se  Se4       1.0  0.2677545124167063  0.7322454385920455  0.7322455988153526  1.0000
  Se  Se5       1.0  0.2677545386983027  0.7322454721503334  0.26775445805242615  1.0000
  Se  Se6       1.0  0.732245492829056  0.2677545463530532  0.7322455433149424  1.0000
