data_image0
_chemical_formula_structural       Bi2SbS6
_chemical_formula_sum              "Bi2 Sb1 S6"
_cell_length_a       6.620829532166936
_cell_length_b       6.62082975120983
_cell_length_c       6.620829604755807
_cell_angle_alpha    59.99999970982906
_cell_angle_beta     59.99999889720538
_cell_angle_gamma    59.99999957466824

_space_group_name_H-M_alt    "P 1"
_space_group_IT_number       1

loop_
  _space_group_symop_operation_xyz
  'x, y, z'

loop_
  _atom_site_type_symbol
  _atom_site_label
  _atom_site_symmetry_multiplicity
  _atom_site_fract_x
  _atom_site_fract_y
  _atom_site_fract_z
  _atom_site_occupancy
  Bi  Bi1       1.0  0.24999982209815297  0.25000009118960387  0.24999991581630368  1.0000
  Bi  Bi2       1.0  0.7500000751617044  0.750000110783242  0.7499999639300303  1.0000
  Sb  Sb1       1.0  1.1785119368259522e-08  2.2198030914856455e-08  0.9999999920707331  1.0000
  S   S1        1.0  0.2622617534712285  0.26226171857480823  0.7377383171608944  1.0000
  S   S2        1.0  0.7377383230956593  0.7377381652262567  0.26226172264090064  1.0000
  S   S3        1.0  0.7377383856435915  0.26226162100318234  0.26226175699194193  1.0000
  S   S4        1.0  0.26226167545665585  0.7377382202516564  0.7377383299409037  1.0000
  S   S5        1.0  0.26226164820598385  0.7377383335703677  0.2622617623730508  1.0000
  S   S6        1.0  0.7377383020825041  0.2622617093165877  0.7377382413899969  1.0000
