data_image0
_chemical_formula_structural       Bi2SN6
_chemical_formula_sum              "Bi2 S1 N6"
_cell_length_a       5.15506193966569
_cell_length_b       5.155060899499671
_cell_length_c       5.155062017085045
_cell_angle_alpha    59.99999917347976
_cell_angle_beta     59.999995904660196
_cell_angle_gamma    59.99999860072192

_space_group_name_H-M_alt    "P 1"
_space_group_IT_number       1

loop_
  _space_group_symop_operation_xyz
  'x, y, z'

loop_
  _atom_site_type_symbol
  _atom_site_label
  _atom_site_symmetry_multiplicity
  _atom_site_fract_x
  _atom_site_fract_y
  _atom_site_fract_z
  _atom_site_occupancy
  Bi  Bi1       1.0  0.2500000238438451  0.24999996563706092  0.250000041768738  1.0000
  Bi  Bi2       1.0  0.7500000075205367  0.7500000822244045  0.7499999249865704  1.0000
  S   S1        1.0  0.9999999176658912  0.9999999714902675  4.3782876235143145e-08  1.0000
  N   N1        1.0  0.2363558724447504  0.23635594555526473  0.7636441178095158  1.0000
  N   N2        1.0  0.7636441115199892  0.7636440429109324  0.23635591592213256  1.0000
  N   N3        1.0  0.7636440776158426  0.23635597202730216  0.23635591401774872  1.0000
  N   N4        1.0  0.23635594535561288  0.7636440069356505  0.7636440700450267  1.0000
  N   N5        1.0  0.23635600622810746  0.7636440093549871  0.2363558445827663  1.0000
  N   N6        1.0  0.7636440047750539  0.23635593159498572  0.7636440713582827  1.0000
