data_image0
_chemical_formula_structural       Bi2SiN6
_chemical_formula_sum              "Bi2 Si1 N6"
_cell_length_a       5.413724553597632
_cell_length_b       5.4137246070130915
_cell_length_c       5.413724786847832
_cell_angle_alpha    59.999999159913905
_cell_angle_beta     59.99999881577751
_cell_angle_gamma    60.00000021667321

_space_group_name_H-M_alt    "P 1"
_space_group_IT_number       1

loop_
  _space_group_symop_operation_xyz
  'x, y, z'

loop_
  _atom_site_type_symbol
  _atom_site_label
  _atom_site_symmetry_multiplicity
  _atom_site_fract_x
  _atom_site_fract_y
  _atom_site_fract_z
  _atom_site_occupancy
  Bi  Bi1       1.0  0.24999992473133062  0.2499999750375152  0.250000061510347  1.0000
  Bi  Bi2       1.0  0.7499999837998222  0.7500000065552112  0.7499999928278667  1.0000
  Si  Si1       1.0  0.9999999736509407  2.2622959955030586e-09  0.999999995418968  1.0000
  N   N1        1.0  0.2376463795746663  0.2376463816229332  0.7623536375054865  1.0000
  N   N2        1.0  0.7623536030687252  0.7623536655763845  0.23764636729204033  1.0000
  N   N3        1.0  0.7623536885140336  0.2376463782959986  0.23764640361654427  1.0000
  N   N4        1.0  0.23764638487616482  0.7623536078213217  0.7623536306803474  1.0000
  N   N5        1.0  0.2376463920141294  0.7623535569894808  0.23764641641121292  1.0000
  N   N6        1.0  0.7623536879041917  0.2376464223409505  0.7623535367401506  1.0000
