data_image0
_chemical_formula_structural       Bi2SbN6
_chemical_formula_sum              "Bi2 Sb1 N6"
_cell_length_a       5.645571699187285
_cell_length_b       5.645571856692302
_cell_length_c       5.645571610182508
_cell_angle_alpha    60.00000147564825
_cell_angle_beta     60.0000013205583
_cell_angle_gamma    60.000001216000705

_space_group_name_H-M_alt    "P 1"
_space_group_IT_number       1

loop_
  _space_group_symop_operation_xyz
  'x, y, z'

loop_
  _atom_site_type_symbol
  _atom_site_label
  _atom_site_symmetry_multiplicity
  _atom_site_fract_x
  _atom_site_fract_y
  _atom_site_fract_z
  _atom_site_occupancy
  Bi  Bi1       1.0  0.2499999449846889  0.2500001499295558  0.2499999478958885  1.0000
  Bi  Bi2       1.0  0.7500000100330425  0.7499999920473264  0.7499998645704613  1.0000
  Sb  Sb1       1.0  0.9999999829143035  2.1693902954959587e-09  2.144253554364786e-09  1.0000
  N   N1        1.0  0.25855310614859484  0.2585530867531947  0.7414468945113728  1.0000
  N   N2        1.0  0.7414469322346643  0.7414468664867355  0.25855321508006524  1.0000
  N   N3        1.0  0.7414469729098555  0.25855301686297116  0.2585530784460211  1.0000
  N   N4        1.0  0.25855305454495564  0.7414469016667155  0.7414469831127697  1.0000
  N   N5        1.0  0.2585530575619312  0.741446911631271  0.2585530983328813  1.0000
  N   N6        1.0  0.7414469402658325  0.2585530589637816  0.7414469041816548  1.0000
