data_image0
_chemical_formula_structural       Bi2ScSe6
_chemical_formula_sum              "Bi2 Sc1 Se6"
_cell_length_a       6.73745595109635
_cell_length_b       6.737455988543168
_cell_length_c       6.737456449338901
_cell_angle_alpha    59.999997803491475
_cell_angle_beta     59.999998644536305
_cell_angle_gamma    60.00000274756824

_space_group_name_H-M_alt    "P 1"
_space_group_IT_number       1

loop_
  _space_group_symop_operation_xyz
  'x, y, z'

loop_
  _atom_site_type_symbol
  _atom_site_label
  _atom_site_symmetry_multiplicity
  _atom_site_fract_x
  _atom_site_fract_y
  _atom_site_fract_z
  _atom_site_occupancy
  Bi  Bi1       1.0  0.2499998948109534  0.24999992152937356  0.25000015714459467  1.0000
  Bi  Bi2       1.0  0.7500001174998764  0.7499998227582229  0.749999777574854  1.0000
  Sc  Sc1       1.0  0.9999998634116156  0.9999999727327684  4.92745345848416e-08  1.0000
  Se  Se1       1.0  0.26756888469429435  0.2675690575192944  0.7324310194565121  1.0000
  Se  Se2       1.0  0.7324310939036518  0.732431106683573  0.2675689982303179  1.0000
  Se  Se3       1.0  0.7324310725368587  0.2675689211265075  0.26756903763483997  1.0000
  Se  Se4       1.0  0.26756907057613827  0.7324310940155346  0.732430944124325  1.0000
  Se  Se5       1.0  0.2675689153720707  0.7324310301429412  0.2675690684980125  1.0000
  Se  Se6       1.0  0.7324310884673574  0.26756906861858615  0.7324309514778707  1.0000
