data_image0
_chemical_formula_structural       Bi2SrTe6
_chemical_formula_sum              "Bi2 Sr1 Te6"
_cell_length_a       7.797433091229922
_cell_length_b       7.797433221973595
_cell_length_c       7.7974330305163075
_cell_angle_alpha    60.0000003069924
_cell_angle_beta     59.99999954122266
_cell_angle_gamma    59.9999999884054

_space_group_name_H-M_alt    "P 1"
_space_group_IT_number       1

loop_
  _space_group_symop_operation_xyz
  'x, y, z'

loop_
  _atom_site_type_symbol
  _atom_site_label
  _atom_site_symmetry_multiplicity
  _atom_site_fract_x
  _atom_site_fract_y
  _atom_site_fract_z
  _atom_site_occupancy
  Bi  Bi1       1.0  0.25000006860299323  0.24999987980181312  0.24999997279874855  1.0000
  Bi  Bi2       1.0  0.7499998996813766  0.7499999802479047  0.7500001421438031  1.0000
  Sr  Sr1       1.0  0.9999999471223219  3.141405370367308e-09  4.2822763460792256e-08  1.0000
  Te  Te1       1.0  0.2904908981262742  0.290490707946529  0.7095091531763741  1.0000
  Te  Te2       1.0  0.7095092078611972  0.7095093343046905  0.29049071332321386  1.0000
  Te  Te3       1.0  0.7095091901259991  0.2904908089367094  0.29049081805914806  1.0000
  Te  Te4       1.0  0.29049077175226246  0.7095092835769938  0.7095091569225241  1.0000
  Te  Te5       1.0  0.29049081299375257  0.7095092000247704  0.2904907963600736  1.0000
  Te  Te6       1.0  0.7095092107834896  0.29049080452958687  0.7095091967816747  1.0000
