data_image0
_chemical_formula_structural       Bi2SrO6
_chemical_formula_sum              "Bi2 Sr1 O6"
_cell_length_a       5.681511785638573
_cell_length_b       5.681511792768024
_cell_length_c       5.68151149078406
_cell_angle_alpha    59.99999869554374
_cell_angle_beta     59.99999714695925
_cell_angle_gamma    59.999999974049786

_space_group_name_H-M_alt    "P 1"
_space_group_IT_number       1

loop_
  _space_group_symop_operation_xyz
  'x, y, z'

loop_
  _atom_site_type_symbol
  _atom_site_label
  _atom_site_symmetry_multiplicity
  _atom_site_fract_x
  _atom_site_fract_y
  _atom_site_fract_z
  _atom_site_occupancy
  Bi  Bi1       1.0  0.25000013080069683  0.2500000330836204  0.2499997407594016  1.0000
  Bi  Bi2       1.0  0.749999663150186  0.7499998664387775  0.7500004918327922  1.0000
  Sr  Sr1       1.0  0.9999999874781579  0.9999999461083208  0.9999999364015371  1.0000
  O   O1        1.0  0.2812324895317373  0.28123247194363726  0.7187677176336861  1.0000
  O   O2        1.0  0.7187675240995861  0.7187675245837917  0.28123219820721135  1.0000
  O   O3        1.0  0.7187674374093224  0.2812326751334438  0.2812323832266341  1.0000
  O   O4        1.0  0.28123253631042516  0.7187674960030277  0.718767621913983  1.0000
  O   O5        1.0  0.2812327664923856  0.7187674756150372  0.2812323709502618  1.0000
  O   O6        1.0  0.7187674631667603  0.2812325252237271  0.7187675332863697  1.0000
