data_image0
_chemical_formula_structural       Bi2ScO6
_chemical_formula_sum              "Bi2 Sc1 O6"
_cell_length_a       5.44601065501128
_cell_length_b       5.44601060503281
_cell_length_c       5.446010770979054
_cell_angle_alpha    59.99999770406235
_cell_angle_beta     59.99999806299534
_cell_angle_gamma    59.999997973000795

_space_group_name_H-M_alt    "P 1"
_space_group_IT_number       1

loop_
  _space_group_symop_operation_xyz
  'x, y, z'

loop_
  _atom_site_type_symbol
  _atom_site_label
  _atom_site_symmetry_multiplicity
  _atom_site_fract_x
  _atom_site_fract_y
  _atom_site_fract_z
  _atom_site_occupancy
  Bi  Bi1       1.0  0.24999984945344048  0.24999996678762812  0.2500000383678245  1.0000
  Bi  Bi2       1.0  0.7500000540131834  0.7499998463896502  0.7500001793842714  1.0000
  Sc  Sc1       1.0  3.448289671814218e-08  0.9999998965513112  3.264669030648823e-08  1.0000
  O   O1        1.0  0.26187960330655674  0.2618797168148897  0.7381203512967777  1.0000
  O   O2        1.0  0.7381204243959536  0.7381202897664597  0.2618795515577899  1.0000
  O   O3        1.0  0.7381204265887046  0.26187975523022855  0.26187954230427657  1.0000
  O   O4        1.0  0.2618795735906592  0.7381203975286151  0.7381203691627537  1.0000
  O   O5        1.0  0.26187964624633053  0.738120451739305  0.2618796501251148  1.0000
  O   O6        1.0  0.7381203731440664  0.26187969427288454  0.7381203120321254  1.0000
