data_image0
_chemical_formula_structural       Bi2SbO6
_chemical_formula_sum              "Bi2 Sb1 O6"
_cell_length_a       5.503802537441093
_cell_length_b       5.503802532880927
_cell_length_c       5.50380242887406
_cell_angle_alpha    60.000000488438644
_cell_angle_beta     59.99999873753932
_cell_angle_gamma    59.99999987900358

_space_group_name_H-M_alt    "P 1"
_space_group_IT_number       1

loop_
  _space_group_symop_operation_xyz
  'x, y, z'

loop_
  _atom_site_type_symbol
  _atom_site_label
  _atom_site_symmetry_multiplicity
  _atom_site_fract_x
  _atom_site_fract_y
  _atom_site_fract_z
  _atom_site_occupancy
  Bi  Bi1       1.0  0.24999997663836962  0.24999996576184577  0.25000002775120844  1.0000
  Bi  Bi2       1.0  0.7500000442872671  0.749999950692025  0.7499998685456513  1.0000
  Sb  Sb1       1.0  3.836049417859309e-09  0.999999982197837  0.9999999997153539  1.0000
  O   O1        1.0  0.2522598716251158  0.25225984858984035  0.7477401470872505  1.0000
  O   O2        1.0  0.7477400725832765  0.7477402036055237  0.2522599213762368  1.0000
  O   O3        1.0  0.7477401913868703  0.25225982191045976  0.2522598759526346  1.0000
  O   O4        1.0  0.25225985195865636  0.7477401657520635  0.7477401552225221  1.0000
  O   O5        1.0  0.2522598647061167  0.747740118428945  0.25225987770662184  1.0000
  O   O6        1.0  0.7477401539287403  0.25225991818952626  0.7477401431628217  1.0000
