data_image0
_chemical_formula_structural       Bi2ScS6
_chemical_formula_sum              "Bi2 Sc1 S6"
_cell_length_a       6.394080968319117
_cell_length_b       6.394081104619294
_cell_length_c       6.3940810707694595
_cell_angle_alpha    60.00000076344295
_cell_angle_beta     60.00000039954566
_cell_angle_gamma    60.00000089746796

_space_group_name_H-M_alt    "P 1"
_space_group_IT_number       1

loop_
  _space_group_symop_operation_xyz
  'x, y, z'

loop_
  _atom_site_type_symbol
  _atom_site_label
  _atom_site_symmetry_multiplicity
  _atom_site_fract_x
  _atom_site_fract_y
  _atom_site_fract_z
  _atom_site_occupancy
  Bi  Bi1       1.0  0.24999975986490147  0.25000022507362896  0.25000008775377836  1.0000
  Bi  Bi2       1.0  0.7500000424598902  0.7499998764843724  0.7500000653723996  1.0000
  Sc  Sc1       1.0  9.324899398473823e-08  3.447783515806794e-08  0.9999999001658193  1.0000
  S   S1        1.0  0.26856962434198994  0.26856970329477514  0.7314303078632393  1.0000
  S   S2        1.0  0.7314304422844059  0.7314302067196972  0.2685696243382283  1.0000
  S   S3        1.0  0.7314303633319229  0.2685696398616196  0.2685696515089473  1.0000
  S   S4        1.0  0.2685697210247346  0.7314302873917706  0.7314303476610357  1.0000
  S   S5        1.0  0.26856969196566927  0.7314303453091355  0.26856961919908  1.0000
  S   S6        1.0  0.7314302660318669  0.2685696738851483  0.7314304175113194  1.0000
