data_image0
_chemical_formula_structural       Bi2SO6
_chemical_formula_sum              "Bi2 S1 O6"
_cell_length_a       5.298953798502879
_cell_length_b       5.298953915916749
_cell_length_c       5.298953552762813
_cell_angle_alpha    60.00000182052638
_cell_angle_beta     60.000002883492584
_cell_angle_gamma    60.000000462675004

_space_group_name_H-M_alt    "P 1"
_space_group_IT_number       1

loop_
  _space_group_symop_operation_xyz
  'x, y, z'

loop_
  _atom_site_type_symbol
  _atom_site_label
  _atom_site_symmetry_multiplicity
  _atom_site_fract_x
  _atom_site_fract_y
  _atom_site_fract_z
  _atom_site_occupancy
  Bi  Bi1       1.0  0.24999999967552478  0.2499998838193235  0.25000011536913264  1.0000
  Bi  Bi2       1.0  0.7499999815671168  0.7499999195682537  0.7500001471825466  1.0000
  S   S1        1.0  3.973004720322694e-08  1.1556477423170501e-08  0.999999942274932  1.0000
  O   O1        1.0  0.22619292314659845  0.2261928925266431  0.7738070478934627  1.0000
  O   O2        1.0  0.7738070345184883  0.7738071188775346  0.22619292994785675  1.0000
  O   O3        1.0  0.7738070613889981  0.22619289651689745  0.2261929286571151  1.0000
  O   O4        1.0  0.22619293470696325  0.7738071564905994  0.7738069997312824  1.0000
  O   O5        1.0  0.2261929575865471  0.7738071504984723  0.22619285557069282  1.0000
  O   O6        1.0  0.7738071194008687  0.22619288864124987  0.7738070732748369  1.0000
