data_image0
_chemical_formula_structural       Bi2SbTe6
_chemical_formula_sum              "Bi2 Sb1 Te6"
_cell_length_a       7.485849774939923
_cell_length_b       7.485849826956081
_cell_length_c       7.485849706003172
_cell_angle_alpha    60.00000183228265
_cell_angle_beta     59.999999400822134
_cell_angle_gamma    60.00000128686377

_space_group_name_H-M_alt    "P 1"
_space_group_IT_number       1

loop_
  _space_group_symop_operation_xyz
  'x, y, z'

loop_
  _atom_site_type_symbol
  _atom_site_label
  _atom_site_symmetry_multiplicity
  _atom_site_fract_x
  _atom_site_fract_y
  _atom_site_fract_z
  _atom_site_occupancy
  Bi  Bi1       1.0  0.2499999238575627  0.2499999914963574  0.2500000453381709  1.0000
  Bi  Bi2       1.0  0.7500000681090694  0.7499999548561168  0.7500001137820689  1.0000
  Sb  Sb1       1.0  4.2115641154516524e-08  0.9999999754588014  0.9999999711749727  1.0000
  Te  Te1       1.0  0.27325597815531666  0.273256009285056  0.7267440423595651  1.0000
  Te  Te2       1.0  0.7267439816057254  0.7267439272509354  0.2732559534239012  1.0000
  Te  Te3       1.0  0.7267440160343714  0.27325608389891276  0.2732559931330366  1.0000
  Te  Te4       1.0  0.27325593809923376  0.72674401297291  0.726744000104041  1.0000
  Te  Te5       1.0  0.27325605676278386  0.7267439932997979  0.2732559842023309  1.0000
  Te  Te6       1.0  0.7267439866814284  0.27325605776178635  0.7267438937748026  1.0000
