data_image0
_chemical_formula_structural       Bi2TlO6
_chemical_formula_sum              "Bi2 Tl1 O6"
_cell_length_a       5.5502176816899755
_cell_length_b       5.55021752110148
_cell_length_c       5.550217510003502
_cell_angle_alpha    60.00000106683534
_cell_angle_beta     60.00000107483002
_cell_angle_gamma    60.00000065739954

_space_group_name_H-M_alt    "P 1"
_space_group_IT_number       1

loop_
  _space_group_symop_operation_xyz
  'x, y, z'

loop_
  _atom_site_type_symbol
  _atom_site_label
  _atom_site_symmetry_multiplicity
  _atom_site_fract_x
  _atom_site_fract_y
  _atom_site_fract_z
  _atom_site_occupancy
  Bi  Bi1       1.0  0.2499998959290059  0.25000020157218855  0.24999982080995037  1.0000
  Bi  Bi2       1.0  0.7499998816558217  0.7500001479377418  0.7500000118864939  1.0000
  Tl  Tl1       1.0  6.955280582039568e-09  3.530657560874799e-08  0.9999999248171365  1.0000
  O   O1        1.0  0.26903723613993563  0.2690371269476792  0.7309628926643045  1.0000
  O   O2        1.0  0.7309629031603525  0.730962655450375  0.2690372084896128  1.0000
  O   O3        1.0  0.7309628310596299  0.2690370956965224  0.2690372149272265  1.0000
  O   O4        1.0  0.26903725336984163  0.7309627639346675  0.7309629327009303  1.0000
  O   O5        1.0  0.2690371486997663  0.730962833811028  0.2690371795529175  1.0000
  O   O6        1.0  0.7309628332390611  0.2690371273265664  0.7309628226271331  1.0000
