data_image0
_chemical_formula_structural       Bi2TlSe6
_chemical_formula_sum              "Bi2 Tl1 Se6"
_cell_length_a       6.849366940152912
_cell_length_b       6.849366896725076
_cell_length_c       6.849367053750778
_cell_angle_alpha    59.999999788374936
_cell_angle_beta     59.9999999197165
_cell_angle_gamma    60.00000055762403

_space_group_name_H-M_alt    "P 1"
_space_group_IT_number       1

loop_
  _space_group_symop_operation_xyz
  'x, y, z'

loop_
  _atom_site_type_symbol
  _atom_site_label
  _atom_site_symmetry_multiplicity
  _atom_site_fract_x
  _atom_site_fract_y
  _atom_site_fract_z
  _atom_site_occupancy
  Bi  Bi1       1.0  0.2500001187890831  0.24999995919327758  0.24999981008406952  1.0000
  Bi  Bi2       1.0  0.7499997693290077  0.7500001618899524  0.7499999772732658  1.0000
  Tl  Tl1       1.0  0.9999999937854649  0.9999999427803523  0.9999999893774124  1.0000
  Se  Se1       1.0  0.27796937402869887  0.2779692292948263  0.7220307218229268  1.0000
  Se  Se2       1.0  0.7220306803604245  0.7220307773491114  0.2779692805167099  1.0000
  Se  Se3       1.0  0.72203074561265  0.2779692215179301  0.2779693723701193  1.0000
  Se  Se4       1.0  0.27796935019234065  0.7220306760510555  0.7220307878981178  1.0000
  Se  Se5       1.0  0.27796932867380386  0.7220307545497546  0.27796922698739884  1.0000
  Se  Se6       1.0  0.7220306472633893  0.277969269975322  0.7220308362974008  1.0000
