data_image0
_chemical_formula_structural       Bi2TaSe6
_chemical_formula_sum              "Bi2 Ta1 Se6"
_cell_length_a       6.745778932501233
_cell_length_b       6.745778761229582
_cell_length_c       6.745779091261813
_cell_angle_alpha    59.99999716985524
_cell_angle_beta     59.99999692193708
_cell_angle_gamma    59.999999766261695

_space_group_name_H-M_alt    "P 1"
_space_group_IT_number       1

loop_
  _space_group_symop_operation_xyz
  'x, y, z'

loop_
  _atom_site_type_symbol
  _atom_site_label
  _atom_site_symmetry_multiplicity
  _atom_site_fract_x
  _atom_site_fract_y
  _atom_site_fract_z
  _atom_site_occupancy
  Bi  Bi1       1.0  0.25000008090468245  0.24999985616164253  0.2500000655054208  1.0000
  Bi  Bi2       1.0  0.7499999972707877  0.7500000223779961  0.7499997898800318  1.0000
  Ta  Ta1       1.0  0.9999998597413232  0.9999999945532795  1.1880736341475613e-07  1.0000
  Se  Se1       1.0  0.2622220307198903  0.26222201970512526  0.7377779706068041  1.0000
  Se  Se2       1.0  0.7377779786714999  0.7377780549163176  0.2622221131642526  1.0000
  Se  Se3       1.0  0.7377779609102758  0.2622220050698019  0.2622220135721238  1.0000
  Se  Se4       1.0  0.26222205837183776  0.7377780296090515  0.7377779295719777  1.0000
  Se  Se5       1.0  0.26222202533200606  0.737777966648696  0.26222204747120426  1.0000
  Se  Se6       1.0  0.737778007454156  0.26222204805886234  0.7377779507908164  1.0000
