data_image0
_chemical_formula_structural       Bi2TaN6
_chemical_formula_sum              "Bi2 Ta1 N6"
_cell_length_a       5.631456543472941
_cell_length_b       5.631456939757496
_cell_length_c       5.631456999606419
_cell_angle_alpha    59.99999821458766
_cell_angle_beta     59.99999940576597
_cell_angle_gamma    60.00000031723249

_space_group_name_H-M_alt    "P 1"
_space_group_IT_number       1

loop_
  _space_group_symop_operation_xyz
  'x, y, z'

loop_
  _atom_site_type_symbol
  _atom_site_label
  _atom_site_symmetry_multiplicity
  _atom_site_fract_x
  _atom_site_fract_y
  _atom_site_fract_z
  _atom_site_occupancy
  Bi  Bi1       1.0  0.24999997965726975  0.250000090001306  0.24999992381843314  1.0000
  Bi  Bi2       1.0  0.7500000066012072  0.7499999133321671  0.7499999070977839  1.0000
  Ta  Ta1       1.0  2.2554918753806945e-08  2.265564741318675e-15  0.9999998963840917  1.0000
  N   N1        1.0  0.26184884868664615  0.26184894189131724  0.7381511770993265  1.0000
  N   N2        1.0  0.7381511276714061  0.7381510788407691  0.2618490158701095  1.0000
  N   N3        1.0  0.7381510837710834  0.26184893972278833  0.2618489271380415  1.0000
  N   N4        1.0  0.2618489086174036  0.7381511005827505  0.7381511379336089  1.0000
  N   N5        1.0  0.2618488881932044  0.7381510272594219  0.2618489400796831  1.0000
  N   N6        1.0  0.7381510437799436  0.26184899129783984  0.7381511412134233  1.0000
