data_image0
_chemical_formula_structural       Bi2TiSe6
_chemical_formula_sum              "Bi2 Ti1 Se6"
_cell_length_a       6.707468469575087
_cell_length_b       6.707468481484885
_cell_length_c       6.7074686341725895
_cell_angle_alpha    60.00000022691799
_cell_angle_beta     60.000000741581545
_cell_angle_gamma    59.99999884100661

_space_group_name_H-M_alt    "P 1"
_space_group_IT_number       1

loop_
  _space_group_symop_operation_xyz
  'x, y, z'

loop_
  _atom_site_type_symbol
  _atom_site_label
  _atom_site_symmetry_multiplicity
  _atom_site_fract_x
  _atom_site_fract_y
  _atom_site_fract_z
  _atom_site_occupancy
  Bi  Bi1       1.0  0.24999985198516053  0.2500000705903519  0.2499999589530525  1.0000
  Bi  Bi2       1.0  0.7500000571819394  0.7499999269240892  0.7500001070981319  1.0000
  Ti  Ti1       1.0  1.8050566081383367e-08  0.9999999561773903  0.9999999860502644  1.0000
  Se  Se1       1.0  0.2591120795045212  0.25911213376256725  0.7408879170865191  1.0000
  Se  Se2       1.0  0.740887927979852  0.7408878838372347  0.259112068891094  1.0000
  Se  Se3       1.0  0.7408879538041792  0.2591121429749782  0.259112045742182  1.0000
  Se  Se4       1.0  0.2591121092728833  0.740887878276707  0.7408879046496439  1.0000
  Se  Se5       1.0  0.2591121206745023  0.7408879195752167  0.2591120823552689  1.0000
  Se  Se6       1.0  0.7408878783067253  0.2591120925467595  0.7408879329759608  1.0000
