data_image0
_chemical_formula_structural       Bi2TaO6
_chemical_formula_sum              "Bi2 Ta1 O6"
_cell_length_a       5.515582401645451
_cell_length_b       5.515582257869804
_cell_length_c       5.515582615660586
_cell_angle_alpha    60.00000019095485
_cell_angle_beta     59.999999770163804
_cell_angle_gamma    60.00000102060124

_space_group_name_H-M_alt    "P 1"
_space_group_IT_number       1

loop_
  _space_group_symop_operation_xyz
  'x, y, z'

loop_
  _atom_site_type_symbol
  _atom_site_label
  _atom_site_symmetry_multiplicity
  _atom_site_fract_x
  _atom_site_fract_y
  _atom_site_fract_z
  _atom_site_occupancy
  Bi  Bi1       1.0  0.24999985293563973  0.25000014202680815  0.24999997487027367  1.0000
  Bi  Bi2       1.0  0.749999989322158  0.7499998065559627  0.7500000861980936  1.0000
  Ta  Ta1       1.0  0.9999999739053379  0.9999999777948199  0.9999999552542069  1.0000
  O   O1        1.0  0.25167488159114315  0.2516748478585282  0.7483251280064508  1.0000
  O   O2        1.0  0.7483252052497965  0.7483250829601045  0.25167484322200234  1.0000
  O   O3        1.0  0.7483251523263517  0.2516749966748629  0.25167476500089103  1.0000
  O   O4        1.0  0.25167486741287143  0.7483251228877844  0.7483252143021297  1.0000
  O   O5        1.0  0.25167490183668223  0.7483250917240822  0.25167479495878303  1.0000
  O   O6        1.0  0.7483251759734046  0.251674910151121  0.7483251742655339  1.0000
