data_image0
_chemical_formula_structural       Bi2TaTe6
_chemical_formula_sum              "Bi2 Ta1 Te6"
_cell_length_a       7.336528900519848
_cell_length_b       7.336528684275557
_cell_length_c       7.33652836001417
_cell_angle_alpha    60.000000993722246
_cell_angle_beta     60.00000168843113
_cell_angle_gamma    59.999999901710794

_space_group_name_H-M_alt    "P 1"
_space_group_IT_number       1

loop_
  _space_group_symop_operation_xyz
  'x, y, z'

loop_
  _atom_site_type_symbol
  _atom_site_label
  _atom_site_symmetry_multiplicity
  _atom_site_fract_x
  _atom_site_fract_y
  _atom_site_fract_z
  _atom_site_occupancy
  Bi  Bi1       1.0  0.2500000104809907  0.2499999855353671  0.24999995607412376  1.0000
  Bi  Bi2       1.0  0.7500000451008068  0.749999873137139  0.7500000148974204  1.0000
  Ta  Ta1       1.0  1.7320899529714749e-09  4.6742618482863666e-08  4.664085591051747e-08  1.0000
  Te  Te1       1.0  0.2631677616193991  0.26316781729282196  0.7368322122106035  1.0000
  Te  Te2       1.0  0.7368321638982462  0.7368321765994028  0.26316782160919794  1.0000
  Te  Te3       1.0  0.736832223642135  0.26316784083191985  0.26316775746254534  1.0000
  Te  Te4       1.0  0.2631678503000207  0.7368321280196157  0.7368321928566648  1.0000
  Te  Te5       1.0  0.26316780141460805  0.7368321909614568  0.2631678258649749  1.0000
  Te  Te6       1.0  0.7368321382817565  0.26316793981986525  0.736832173312193  1.0000
