data_image0
_chemical_formula_structural       Bi2TiN6
_chemical_formula_sum              "Bi2 Ti1 N6"
_cell_length_a       5.504799317873757
_cell_length_b       5.504799218208449
_cell_length_c       5.5047992995953905
_cell_angle_alpha    59.99999948717661
_cell_angle_beta     59.999999200721334
_cell_angle_gamma    59.999997941728374

_space_group_name_H-M_alt    "P 1"
_space_group_IT_number       1

loop_
  _space_group_symop_operation_xyz
  'x, y, z'

loop_
  _atom_site_type_symbol
  _atom_site_label
  _atom_site_symmetry_multiplicity
  _atom_site_fract_x
  _atom_site_fract_y
  _atom_site_fract_z
  _atom_site_occupancy
  Bi  Bi1       1.0  0.250000086782365  0.25000011754908835  0.2499998979250837  1.0000
  Bi  Bi2       1.0  0.7500000008197919  0.7499999922187346  0.7500000037531697  1.0000
  Ti  Ti1       1.0  0.9999999960592348  0.999999986650795  0.9999999868458253  1.0000
  N   N1        1.0  0.2631293791329349  0.2631293112194986  0.7368706566753775  1.0000
  N   N2        1.0  0.7368706877293738  0.7368706027599847  0.2631293205682301  1.0000
  N   N3        1.0  0.7368706419520707  0.2631293342645218  0.2631292929499903  1.0000
  N   N4        1.0  0.26312933950015444  0.7368706219874454  0.736870714945401  1.0000
  N   N5        1.0  0.2631293356731938  0.7368706716594785  0.2631293332431393  1.0000
  N   N6        1.0  0.7368705478886064  0.2631293580131179  0.7368707668174035  1.0000
