data_image0
_chemical_formula_structural       Bi2TlTe6
_chemical_formula_sum              "Bi2 Tl1 Te6"
_cell_length_a       7.483935000968983
_cell_length_b       7.483935313875918
_cell_length_c       7.483934952785941
_cell_angle_alpha    60.00000242342824
_cell_angle_beta     60.00000025282194
_cell_angle_gamma    59.999995876291926

_space_group_name_H-M_alt    "P 1"
_space_group_IT_number       1

loop_
  _space_group_symop_operation_xyz
  'x, y, z'

loop_
  _atom_site_type_symbol
  _atom_site_label
  _atom_site_symmetry_multiplicity
  _atom_site_fract_x
  _atom_site_fract_y
  _atom_site_fract_z
  _atom_site_occupancy
  Bi  Bi1       1.0  0.25000029023581327  0.24999974630106808  0.24999997316247305  1.0000
  Bi  Bi2       1.0  0.7499997893200101  0.7500000113305526  0.7500002810777625  1.0000
  Tl  Tl1       1.0  0.9999999509720355  0.9999998739896224  1.1424307971154493e-07  1.0000
  Te  Te1       1.0  0.28413080828029985  0.28413045893681593  0.7158693665451922  1.0000
  Te  Te2       1.0  0.7158691272154526  0.7158698141918257  0.2841303559019442  1.0000
  Te  Te3       1.0  0.7158691807741959  0.284130602346004  0.28413069374450795  1.0000
  Te  Te4       1.0  0.2841308428598892  0.715869336936948  0.7158693519856255  1.0000
  Te  Te5       1.0  0.2841309282808003  0.7158694180504532  0.2841303291920661  1.0000
  Te  Te6       1.0  0.7158690794374413  0.2841307356137972  0.7158695478231767  1.0000
