data_image0
_chemical_formula_structural       Bi2TiS6
_chemical_formula_sum              "Bi2 Ti1 S6"
_cell_length_a       6.381953125429365
_cell_length_b       6.381953445031069
_cell_length_c       6.381953659620818
_cell_angle_alpha    59.99999867546052
_cell_angle_beta     59.999998635580525
_cell_angle_gamma    59.99999870319802

_space_group_name_H-M_alt    "P 1"
_space_group_IT_number       1

loop_
  _space_group_symop_operation_xyz
  'x, y, z'

loop_
  _atom_site_type_symbol
  _atom_site_label
  _atom_site_symmetry_multiplicity
  _atom_site_fract_x
  _atom_site_fract_y
  _atom_site_fract_z
  _atom_site_occupancy
  Bi  Bi1       1.0  0.2499998708499463  0.24999982824864456  0.25000009945773377  1.0000
  Bi  Bi2       1.0  0.7499999816105579  0.7499997399829333  0.7500002964741694  1.0000
  Ti  Ti1       1.0  3.490704834068324e-08  3.838149984703317e-09  0.9999999821943195  1.0000
  S   S1        1.0  0.25973312520930086  0.2597334333786808  0.7402666776650351  1.0000
  S   S2        1.0  0.740266747435648  0.7402667527951264  0.25973321117333387  1.0000
  S   S3        1.0  0.740266852893732  0.2597333056811709  0.259733224350268  1.0000
  S   S4        1.0  0.25973325299068845  0.7402667941342463  0.740266686629579  1.0000
  S   S5        1.0  0.2597333199770712  0.7402668170314795  0.25973316971921956  1.0000
  S   S6        1.0  0.7402668054617941  0.2597333326798943  0.7402666548271233  1.0000
