data_image0
_chemical_formula_structural       Bi2VN6
_chemical_formula_sum              "Bi2 V1 N6"
_cell_length_a       5.5720350256673985
_cell_length_b       5.572034479608407
_cell_length_c       5.572034737604589
_cell_angle_alpha    60.0000009908993
_cell_angle_beta     60.00000074357858
_cell_angle_gamma    60.000000219182745

_space_group_name_H-M_alt    "P 1"
_space_group_IT_number       1

loop_
  _space_group_symop_operation_xyz
  'x, y, z'

loop_
  _atom_site_type_symbol
  _atom_site_label
  _atom_site_symmetry_multiplicity
  _atom_site_fract_x
  _atom_site_fract_y
  _atom_site_fract_z
  _atom_site_occupancy
  Bi  Bi1       1.0  0.2499999305770316  0.25000003312870006  0.25000000156047164  1.0000
  Bi  Bi2       1.0  0.7500000440326883  0.7499999455246387  0.7500000613472597  1.0000
  V   V1        1.0  3.669468376294528e-08  0.9999999956039564  0.9999999156529712  1.0000
  N   N1        1.0  0.2477867078023168  0.24778663770065984  0.7522133198241521  1.0000
  N   N2        1.0  0.7522133057001076  0.7522133299625723  0.2477866573452184  1.0000
  N   N3        1.0  0.7522133501787085  0.24778669589404184  0.24778659925150315  1.0000
  N   N4        1.0  0.24778658086928404  0.7522133574920086  0.7522134157665603  1.0000
  N   N5        1.0  0.2477866943391414  0.7522133302347646  0.24778661791817577  1.0000
  N   N6        1.0  0.7522134143424427  0.24778668138888962  0.7522133273696113  1.0000
