data_image0
_chemical_formula_structural       Bi2VO6
_chemical_formula_sum              "Bi2 V1 O6"
_cell_length_a       5.418693892205444
_cell_length_b       5.41869380006478
_cell_length_c       5.418693911368025
_cell_angle_alpha    59.99999828669137
_cell_angle_beta     59.99999775991648
_cell_angle_gamma    59.999999937897755

_space_group_name_H-M_alt    "P 1"
_space_group_IT_number       1

loop_
  _space_group_symop_operation_xyz
  'x, y, z'

loop_
  _atom_site_type_symbol
  _atom_site_label
  _atom_site_symmetry_multiplicity
  _atom_site_fract_x
  _atom_site_fract_y
  _atom_site_fract_z
  _atom_site_occupancy
  Bi  Bi1       1.0  0.2500000243461811  0.2499998269656655  0.24999999720288793  1.0000
  Bi  Bi2       1.0  0.7500000201593696  0.7500003171789947  0.7499996035981719  1.0000
  V   V1        1.0  0.9999999874506068  2.4862437676250877e-08  0.9999999753888461  1.0000
  O   O1        1.0  0.24462016487922963  0.24462018566381097  0.7553798426307656  1.0000
  O   O2        1.0  0.7553799237966289  0.7553798771128701  0.24462023075306788  1.0000
  O   O3        1.0  0.7553798452729421  0.2446199802776226  0.24462027245096055  1.0000
  O   O4        1.0  0.24462015125849682  0.7553798858597762  0.7553799213337057  1.0000
  O   O5        1.0  0.2446200807090155  0.7553798809674397  0.24462020121081676  1.0000
  O   O6        1.0  0.7553798645280059  0.24462003037439067  0.7553799531731901  1.0000
