data_image0
_chemical_formula_structural       Bi2VS6
_chemical_formula_sum              "Bi2 V1 S6"
_cell_length_a       6.40977194197917
_cell_length_b       6.409771816128064
_cell_length_c       6.409772048157938
_cell_angle_alpha    60.00000091797553
_cell_angle_beta     59.999999197095136
_cell_angle_gamma    60.000001153376026

_space_group_name_H-M_alt    "P 1"
_space_group_IT_number       1

loop_
  _space_group_symop_operation_xyz
  'x, y, z'

loop_
  _atom_site_type_symbol
  _atom_site_label
  _atom_site_symmetry_multiplicity
  _atom_site_fract_x
  _atom_site_fract_y
  _atom_site_fract_z
  _atom_site_occupancy
  Bi  Bi1       1.0  0.24999992837575863  0.24999996404897773  0.25000005510634155  1.0000
  Bi  Bi2       1.0  0.7500001495484366  0.7500000851323263  0.7499998850556322  1.0000
  V   V1        1.0  0.9999999622596797  2.6750449659348127e-08  1.6415761022062425e-08  1.0000
  S   S1        1.0  0.2523224565021387  0.2523225461475051  0.7476774822288813  1.0000
  S   S2        1.0  0.747677527018225  0.7476774781940936  0.2523224925929745  1.0000
  S   S3        1.0  0.7476775416086489  0.25232240504845527  0.252322586724009  1.0000
  S   S4        1.0  0.2523224534324387  0.7476774874516406  0.7476774451379984  1.0000
  S   S5        1.0  0.25232253863476567  0.7476774464340661  0.2523226200752921  1.0000
  S   S6        1.0  0.7476774350415307  0.25232255880007004  0.7476774347472798  1.0000
