data_image0
_chemical_formula_structural       Bi2WN6
_chemical_formula_sum              "Bi2 W1 N6"
_cell_length_a       5.649384876369791
_cell_length_b       5.6493849954609745
_cell_length_c       5.649384881023539
_cell_angle_alpha    59.99999901102599
_cell_angle_beta     60.000000479608204
_cell_angle_gamma    59.99999948187318

_space_group_name_H-M_alt    "P 1"
_space_group_IT_number       1

loop_
  _space_group_symop_operation_xyz
  'x, y, z'

loop_
  _atom_site_type_symbol
  _atom_site_label
  _atom_site_symmetry_multiplicity
  _atom_site_fract_x
  _atom_site_fract_y
  _atom_site_fract_z
  _atom_site_occupancy
  Bi  Bi1       1.0  0.2499999383174065  0.24999995784827989  0.2500000177877561  1.0000
  Bi  Bi2       1.0  0.7499999437380803  0.7500000513147735  0.7499999354874535  1.0000
  W   W1        1.0  0.9999999844951052  0.9999999913282964  0.9999999890769444  1.0000
  N   N1        1.0  0.24942805751687466  0.24942797272279865  0.7505720019981776  1.0000
  N   N2        1.0  0.7505719962508708  0.750571999585508  0.24942803961744833  1.0000
  N   N3        1.0  0.75057199040252  0.2494280208725681  0.24942806091112388  1.0000
  N   N4        1.0  0.249428071519714  0.750571988290481  0.7505719670504074  1.0000
  N   N5        1.0  0.24942801933445657  0.7505719900038689  0.24942802181445217  1.0000
  N   N6        1.0  0.7505719989211158  0.24942805818185065  0.7505719465154262  1.0000
