data_image0
_chemical_formula_structural       Bi2YN6
_chemical_formula_sum              "Bi2 Y1 N6"
_cell_length_a       5.636215139121264
_cell_length_b       5.636215697261028
_cell_length_c       5.636215505849353
_cell_angle_alpha    60.00000278000363
_cell_angle_beta     60.0000019508994
_cell_angle_gamma    60.00000206640002

_space_group_name_H-M_alt    "P 1"
_space_group_IT_number       1

loop_
  _space_group_symop_operation_xyz
  'x, y, z'

loop_
  _atom_site_type_symbol
  _atom_site_label
  _atom_site_symmetry_multiplicity
  _atom_site_fract_x
  _atom_site_fract_y
  _atom_site_fract_z
  _atom_site_occupancy
  Bi  Bi1       1.0  0.2500005646261241  0.24999982988277086  0.2499998645621574  1.0000
  Bi  Bi2       1.0  0.7500003621665255  0.7499997786561867  0.7499994532468344  1.0000
  Y   Y1        1.0  2.1693668865087238e-07  0.9999999760970916  0.9999999442906404  1.0000
  N   N1        1.0  0.2820013798275082  0.28200176882602884  0.7179983251338462  1.0000
  N   N2        1.0  0.7179981782448831  0.7179985654920807  0.28200215690974983  1.0000
  N   N3        1.0  0.717998267647913  0.2820012836947938  0.2820016596566342  1.0000
  N   N4        1.0  0.28200166007425703  0.7179983596120417  0.717998450795659  1.0000
  N   N5        1.0  0.282001176967106  0.7179983842604192  0.2820017140733742  1.0000
  N   N6        1.0  0.7179982011271085  0.28200204132333084  0.7179984645754109  1.0000
