data_image0
_chemical_formula_structural       Bi2YTe6
_chemical_formula_sum              "Bi2 Y1 Te6"
_cell_length_a       7.596934946468708
_cell_length_b       7.596934829300552
_cell_length_c       7.596935010951001
_cell_angle_alpha    59.99999923268977
_cell_angle_beta     59.9999991541914
_cell_angle_gamma    60.00000028630249

_space_group_name_H-M_alt    "P 1"
_space_group_IT_number       1

loop_
  _space_group_symop_operation_xyz
  'x, y, z'

loop_
  _atom_site_type_symbol
  _atom_site_label
  _atom_site_symmetry_multiplicity
  _atom_site_fract_x
  _atom_site_fract_y
  _atom_site_fract_z
  _atom_site_occupancy
  Bi  Bi1       1.0  0.2500000126404634  0.2499999800672421  0.2500000361268753  1.0000
  Bi  Bi2       1.0  0.7500000815074678  0.750000019197401  0.7499999431004438  1.0000
  Y   Y1        1.0  1.0976856394183433e-08  3.5467445546448e-08  0.9999998767375039  1.0000
  Te  Te1       1.0  0.27779173141693436  0.2777917400077197  0.722208268291216  1.0000
  Te  Te2       1.0  0.7222082353154918  0.7222082721541749  0.27779176029730857  1.0000
  Te  Te3       1.0  0.7222082774743049  0.2777917109890265  0.2777917979096332  1.0000
  Te  Te4       1.0  0.27779164060371603  0.72220832857953  0.7222082610475679  1.0000
  Te  Te5       1.0  0.27779172689014114  0.7222082049875547  0.2777917992206235  1.0000
  Te  Te6       1.0  0.7222082787026249  0.2777917088327864  0.7222082630574685  1.0000
