data_image0
_chemical_formula_structural       Bi2YS6
_chemical_formula_sum              "Bi2 Y1 S6"
_cell_length_a       6.620986490740599
_cell_length_b       6.620986400880511
_cell_length_c       6.6209864028679695
_cell_angle_alpha    59.9999999820397
_cell_angle_beta     60.000001148013105
_cell_angle_gamma    60.0000002289858

_space_group_name_H-M_alt    "P 1"
_space_group_IT_number       1

loop_
  _space_group_symop_operation_xyz
  'x, y, z'

loop_
  _atom_site_type_symbol
  _atom_site_label
  _atom_site_symmetry_multiplicity
  _atom_site_fract_x
  _atom_site_fract_y
  _atom_site_fract_z
  _atom_site_occupancy
  Bi  Bi1       1.0  0.25000002301956914  0.250000462472422  0.24999967529259318  1.0000
  Bi  Bi2       1.0  0.7500000043984784  0.7499998391412259  0.7500003186782824  1.0000
  Y   Y1        1.0  4.724311607932337e-09  0.9999998131709917  9.25626973282757e-08  1.0000
  S   S1        1.0  0.2733967401933041  0.2733969080304705  0.7266031542480216  1.0000
  S   S2        1.0  0.7266033880111857  0.7266031383118604  0.27339656656433076  1.0000
  S   S3        1.0  0.7266031938151017  0.27339683235978396  0.27339675200018776  1.0000
  S   S4        1.0  0.27339677806718876  0.7266029975568629  0.7266034210075245  1.0000
  S   S5        1.0  0.27339682468459736  0.7266031671433807  0.2733967047934805  1.0000
  S   S6        1.0  0.7266030461483263  0.27339684035331363  0.7266033181830668  1.0000
