data_image0
_chemical_formula_structural       Bi2YO6
_chemical_formula_sum              "Bi2 Y1 O6"
_cell_length_a       5.603506623001419
_cell_length_b       5.60350619841938
_cell_length_c       5.603506544619083
_cell_angle_alpha    60.00000056592628
_cell_angle_beta     59.99999996670758
_cell_angle_gamma    60.000000399022476

_space_group_name_H-M_alt    "P 1"
_space_group_IT_number       1

loop_
  _space_group_symop_operation_xyz
  'x, y, z'

loop_
  _atom_site_type_symbol
  _atom_site_label
  _atom_site_symmetry_multiplicity
  _atom_site_fract_x
  _atom_site_fract_y
  _atom_site_fract_z
  _atom_site_occupancy
  Bi  Bi1       1.0  0.25000027648305345  0.24999974957455076  0.24999993344544108  1.0000
  Bi  Bi2       1.0  0.7499998235536416  0.7500001645218586  0.7499999167688746  1.0000
  Y   Y1        1.0  0.9999999756254578  1.7485405750410927e-08  0.999999958829648  1.0000
  O   O1        1.0  0.2720053209689955  0.2720051051287752  0.7279947993947959  1.0000
  O   O2        1.0  0.7279947016762697  0.7279949051373821  0.2720052894893216  1.0000
  O   O3        1.0  0.727994681793473  0.272005063535469  0.27200531200389594  1.0000
  O   O4        1.0  0.2720052942277246  0.7279948702320259  0.7279947206581948  1.0000
  O   O5        1.0  0.27200528829933684  0.7279948886725071  0.27200517113059774  1.0000
  O   O6        1.0  0.7279946431333354  0.27200522213474204  0.7279949095200791  1.0000
