data_image0
_chemical_formula_structural       Bi2YSe6
_chemical_formula_sum              "Bi2 Y1 Se6"
_cell_length_a       7.002913766471682
_cell_length_b       7.002913810551261
_cell_length_c       7.002913683795863
_cell_angle_alpha    59.999999038014785
_cell_angle_beta     60.0000015138695
_cell_angle_gamma    59.99999940962726

_space_group_name_H-M_alt    "P 1"
_space_group_IT_number       1

loop_
  _space_group_symop_operation_xyz
  'x, y, z'

loop_
  _atom_site_type_symbol
  _atom_site_label
  _atom_site_symmetry_multiplicity
  _atom_site_fract_x
  _atom_site_fract_y
  _atom_site_fract_z
  _atom_site_occupancy
  Bi  Bi1       1.0  0.2499999922967129  0.2500000093964615  0.24999987239398386  1.0000
  Bi  Bi2       1.0  0.7500002073713482  0.7499998165715548  0.7500002489119602  1.0000
  Y   Y1        1.0  0.9999999795445964  1.5040604720303702e-07  6.211463338917865e-08  1.0000
  Se  Se1       1.0  0.2724518956841739  0.2724520940100367  0.727548066541194  1.0000
  Se  Se2       1.0  0.7275479642761342  0.7275479645626913  0.2724518855518456  1.0000
  Se  Se3       1.0  0.727548037454933  0.27245203713596433  0.27245182417273395  1.0000
  Se  Se4       1.0  0.27245188854661373  0.7275478727796225  0.7275480978294071  1.0000
  Se  Se5       1.0  0.2724519726504926  0.7275481293593635  0.2724519297496192  1.0000
  Se  Se6       1.0  0.7275480587939426  0.2724519292133619  0.7275480165680742  1.0000
