data_image0
_chemical_formula_structural       Bi2ZnTe6
_chemical_formula_sum              "Bi2 Zn1 Te6"
_cell_length_a       7.20754094524955
_cell_length_b       7.2075405880418195
_cell_length_c       7.207540719072476
_cell_angle_alpha    60.000000734043404
_cell_angle_beta     60.00000013736357
_cell_angle_gamma    59.99999971998831

_space_group_name_H-M_alt    "P 1"
_space_group_IT_number       1

loop_
  _space_group_symop_operation_xyz
  'x, y, z'

loop_
  _atom_site_type_symbol
  _atom_site_label
  _atom_site_symmetry_multiplicity
  _atom_site_fract_x
  _atom_site_fract_y
  _atom_site_fract_z
  _atom_site_occupancy
  Bi  Bi1       1.0  0.24999974177583853  0.25000030783584476  0.24999994139396647  1.0000
  Bi  Bi2       1.0  0.7500000062649111  0.7499999889173402  0.74999998147956  1.0000
  Zn  Zn1       1.0  0.9999999612920542  0.9999999575186281  8.221773259516283e-08  1.0000
  Te  Te1       1.0  0.26571961567510033  0.2657196977286356  0.7342803415249489  1.0000
  Te  Te2       1.0  0.7342805054128154  0.7342801912033746  0.2657196597827503  1.0000
  Te  Te3       1.0  0.7342804229995673  0.26571961771375435  0.26571964026204375  1.0000
  Te  Te4       1.0  0.26571973127931436  0.734280238932414  0.7342804327397543  1.0000
  Te  Te5       1.0  0.2657195970068777  0.7342803372973324  0.26571961675144895  1.0000
  Te  Te6       1.0  0.7342804156398097  0.26571966548475445  0.7342803013805517  1.0000
