data_image0
_chemical_formula_structural       Bi2ZnS6
_chemical_formula_sum              "Bi2 Zn1 S6"
_cell_length_a       6.308965984378261
_cell_length_b       6.308966445687909
_cell_length_c       6.308966110312308
_cell_angle_alpha    59.999999324678555
_cell_angle_beta     59.99999776075999
_cell_angle_gamma    59.99999906835794

_space_group_name_H-M_alt    "P 1"
_space_group_IT_number       1

loop_
  _space_group_symop_operation_xyz
  'x, y, z'

loop_
  _atom_site_type_symbol
  _atom_site_label
  _atom_site_symmetry_multiplicity
  _atom_site_fract_x
  _atom_site_fract_y
  _atom_site_fract_z
  _atom_site_occupancy
  Bi  Bi1       1.0  0.24999959961686985  0.24999987417022754  0.250000345055253  1.0000
  Bi  Bi2       1.0  0.750000226828592  0.7500000825932106  0.749999872399163  1.0000
  Zn  Zn1       1.0  1.721134734445484e-08  2.523659571791864e-08  0.999999950245204  1.0000
  S   S1        1.0  0.263646139065919  0.26364610947783224  0.7363538058664633  1.0000
  S   S2        1.0  0.7363539150700183  0.7363538725222002  0.2636461662459824  1.0000
  S   S3        1.0  0.7363540471507917  0.26364603898012456  0.2636460583290991  1.0000
  S   S4        1.0  0.2636460761097256  0.736353933313525  0.7363538285976456  1.0000
  S   S5        1.0  0.26364598612241413  0.7363539513003132  0.2636461280441654  1.0000
  S   S6        1.0  0.7363540012171701  0.26364611029205953  0.7363538408403776  1.0000
