data_image0
_chemical_formula_structural       Bi2ZnO6
_chemical_formula_sum              "Bi2 Zn1 O6"
_cell_length_a       5.354335380116673
_cell_length_b       5.354335892081609
_cell_length_c       5.3543356874526635
_cell_angle_alpha    59.999997964285654
_cell_angle_beta     59.999998451646285
_cell_angle_gamma    59.999999520486035

_space_group_name_H-M_alt    "P 1"
_space_group_IT_number       1

loop_
  _space_group_symop_operation_xyz
  'x, y, z'

loop_
  _atom_site_type_symbol
  _atom_site_label
  _atom_site_symmetry_multiplicity
  _atom_site_fract_x
  _atom_site_fract_y
  _atom_site_fract_z
  _atom_site_occupancy
  Bi  Bi1       1.0  0.25000008793485556  0.250000018669849  0.2499999441642227  1.0000
  Bi  Bi2       1.0  0.7500001975863498  0.7499998341328158  0.7500000157606993  1.0000
  Zn  Zn1       1.0  1.5405472400133761e-07  0.9999999130792209  0.9999998861242813  1.0000
  O   O1        1.0  0.25530938353025856  0.25530976788271637  0.7446904228134252  1.0000
  O   O2        1.0  0.7446904321796962  0.7446904074417988  0.25530957900621704  1.0000
  O   O3        1.0  0.7446903185156445  0.25530969980839147  0.2553095871234715  1.0000
  O   O4        1.0  0.25530950181397644  0.7446903840205643  0.7446904749429277  1.0000
  O   O5        1.0  0.2553095190148298  0.7446903984009658  0.2553096632973767  1.0000
  O   O6        1.0  0.7446903948547055  0.25530960536937247  0.7446904611312531  1.0000
