data_image0
_chemical_formula_structural       Br2BiO6
_chemical_formula_sum              "Br2 Bi1 O6"
_cell_length_a       5.949110033457672
_cell_length_b       5.949109538912756
_cell_length_c       5.949110017586117
_cell_angle_alpha    59.99999795574985
_cell_angle_beta     59.999999217995466
_cell_angle_gamma    59.99999742460145

_space_group_name_H-M_alt    "P 1"
_space_group_IT_number       1

loop_
  _space_group_symop_operation_xyz
  'x, y, z'

loop_
  _atom_site_type_symbol
  _atom_site_label
  _atom_site_symmetry_multiplicity
  _atom_site_fract_x
  _atom_site_fract_y
  _atom_site_fract_z
  _atom_site_occupancy
  Br  Br1       1.0  0.2500001051227453  0.2499999412419487  0.24999993283875027  1.0000
  Br  Br2       1.0  0.7499999865581557  0.7500000007742984  0.750000072746064  1.0000
  Bi  Bi1       1.0  2.73114309438915e-08  0.9999999588259415  0.999999981717458  1.0000
  O   O1        1.0  0.24603371409069139  0.24603372759355893  0.7539662959026838  1.0000
  O   O2        1.0  0.7539662779719697  0.7539663152991307  0.24603369728656457  1.0000
  O   O3        1.0  0.7539662966682585  0.24603376793732978  0.24603367764861975  1.0000
  O   O4        1.0  0.24603365986836287  0.7539663058359032  0.7539662842449033  1.0000
  O   O5        1.0  0.24603365855616227  0.7539662532604438  0.2460337950531363  1.0000
  O   O6        1.0  0.7539662486928008  0.24603375875170275  0.7539662963254015  1.0000
