data_image0
_chemical_formula_structural       Br2GaO6
_chemical_formula_sum              "Br2 Ga1 O6"
_cell_length_a       5.85480978765629
_cell_length_b       5.854809519118363
_cell_length_c       5.854810580369545
_cell_angle_alpha    59.99999955423972
_cell_angle_beta     59.99999787050919
_cell_angle_gamma    59.99999889306297

_space_group_name_H-M_alt    "P 1"
_space_group_IT_number       1

loop_
  _space_group_symop_operation_xyz
  'x, y, z'

loop_
  _atom_site_type_symbol
  _atom_site_label
  _atom_site_symmetry_multiplicity
  _atom_site_fract_x
  _atom_site_fract_y
  _atom_site_fract_z
  _atom_site_occupancy
  Br  Br1       1.0  0.24999991967278365  0.24999974737531463  0.25000044952536643  1.0000
  Br  Br2       1.0  0.7499997492832865  0.7500000286657024  0.750000063475262  1.0000
  Ga  Ga1       1.0  0.9999996983415468  4.4347455339514514e-07  0.999999597740509  1.0000
  O   O1        1.0  0.23758975874560587  0.23758959030626567  0.7624100851038745  1.0000
  O   O2        1.0  0.7624098213576777  0.762410363542923  0.23758984539995354  1.0000
  O   O3        1.0  0.7624100494620335  0.23758994565791275  0.23758987461858871  1.0000
  O   O4        1.0  0.2375898081573616  0.76241058972869  0.7624096775984215  1.0000
  O   O5        1.0  0.23759037804567598  0.7624095823752487  0.2375902291836583  1.0000
  O   O6        1.0  0.7624107956059241  0.23758978575286055  0.7624101094770527  1.0000
