data_image0
_chemical_formula_structural       Br2NO6
_chemical_formula_sum              "Br2 N1 O6"
_cell_length_a       5.46608215372329
_cell_length_b       5.466081711882323
_cell_length_c       5.46608213769476
_cell_angle_alpha    60.000002834021274
_cell_angle_beta     59.999997626099784
_cell_angle_gamma    60.000002235493234

_space_group_name_H-M_alt    "P 1"
_space_group_IT_number       1

loop_
  _space_group_symop_operation_xyz
  'x, y, z'

loop_
  _atom_site_type_symbol
  _atom_site_label
  _atom_site_symmetry_multiplicity
  _atom_site_fract_x
  _atom_site_fract_y
  _atom_site_fract_z
  _atom_site_occupancy
  Br  Br1       1.0  0.24999985687891366  0.2500014102759989  0.24999978564718758  1.0000
  Br  Br2       1.0  0.7500000221164096  0.7500013807508663  0.7499997073689144  1.0000
  N   N1        1.0  0.9999991692997289  7.74584645010222e-06  0.9999991786847371  1.0000
  O   O1        1.0  0.20947983055301198  0.20948140560687303  0.7905196577570518  1.0000
  O   O2        1.0  0.7905116532156748  0.7905129382573167  0.20948815583300257  1.0000
  O   O3        1.0  0.7905196891024522  0.20948158336823705  0.20948006464736946  1.0000
  O   O4        1.0  0.20948804345357122  0.7905130786648523  0.790511642676597  1.0000
  O   O5        1.0  0.20948527830433664  0.7905158025329015  0.2094853724575137  1.0000
  O   O6        1.0  0.7905166319597845  0.20948452604550308  0.7905165424817564  1.0000
