data_image0
_chemical_formula_structural       Br2SbO6
_chemical_formula_sum              "Br2 Sb1 O6"
_cell_length_a       5.853994062082212
_cell_length_b       5.853994027748656
_cell_length_c       5.853994022735862
_cell_angle_alpha    59.99999929205964
_cell_angle_beta     59.999999746161336
_cell_angle_gamma    59.999998864592406

_space_group_name_H-M_alt    "P 1"
_space_group_IT_number       1

loop_
  _space_group_symop_operation_xyz
  'x, y, z'

loop_
  _atom_site_type_symbol
  _atom_site_label
  _atom_site_symmetry_multiplicity
  _atom_site_fract_x
  _atom_site_fract_y
  _atom_site_fract_z
  _atom_site_occupancy
  Br  Br1       1.0  0.25000019731696144  0.24999995847725992  0.2500000869855263  1.0000
  Br  Br2       1.0  0.7500000290087786  0.7500000197903167  0.7499999765683251  1.0000
  Sb  Sb1       1.0  1.1376922509307377e-08  0.9999999895392367  1.662427467482924e-08  1.0000
  O   O1        1.0  0.24292970036841033  0.24292972219341968  0.7570701784069286  1.0000
  O   O2        1.0  0.7570702185241119  0.7570703795111646  0.2429297021191239  1.0000
  O   O3        1.0  0.7570702107075578  0.24292977243773597  0.24292964915583945  1.0000
  O   O4        1.0  0.24292976706260688  0.7570702413964383  0.7570703022383662  1.0000
  O   O5        1.0  0.24292957159505676  0.7570702907899503  0.24292980931126446  1.0000
  O   O6        1.0  0.7570702888028338  0.24292963726596803  0.7570702487829136  1.0000
