data_image0
_chemical_formula_structural       Br2YO6
_chemical_formula_sum              "Br2 Y1 O6"
_cell_length_a       5.772409432679845
_cell_length_b       5.772409782862422
_cell_length_c       5.772409550597233
_cell_angle_alpha    60.00000040040799
_cell_angle_beta     59.99999917068371
_cell_angle_gamma    59.99999766756446

_space_group_name_H-M_alt    "P 1"
_space_group_IT_number       1

loop_
  _space_group_symop_operation_xyz
  'x, y, z'

loop_
  _atom_site_type_symbol
  _atom_site_label
  _atom_site_symmetry_multiplicity
  _atom_site_fract_x
  _atom_site_fract_y
  _atom_site_fract_z
  _atom_site_occupancy
  Br  Br1       1.0  0.2499999513684853  0.25000001228040025  0.2500000654481681  1.0000
  Br  Br2       1.0  0.750000128320338  0.7499999583374783  0.7499999616309987  1.0000
  Y   Y1        1.0  9.395177001420343e-09  3.182583032953777e-08  0.999999878911525  1.0000
  O   O1        1.0  0.2820123142332397  0.2820124963651525  0.717987554174249  1.0000
  O   O2        1.0  0.7179875823290194  0.7179875315392271  0.2820124925154788  1.0000
  O   O3        1.0  0.7179875771181189  0.2820124499194796  0.28201230632317753  1.0000
  O   O4        1.0  0.282012276666485  0.7179876883144457  0.7179875922536029  1.0000
  O   O5        1.0  0.2820124717700514  0.717987561114126  0.28201247407746916  1.0000
  O   O6        1.0  0.7179876667202774  0.2820122631049329  0.7179877094049786  1.0000
