data_image0
_chemical_formula_structural       Ca2AsS6
_chemical_formula_sum              "Ca2 As1 S6"
_cell_length_a       6.510592531229003
_cell_length_b       6.510592278668697
_cell_length_c       6.510592449565316
_cell_angle_alpha    59.999999213264374
_cell_angle_beta     60.00000046434949
_cell_angle_gamma    59.99999955702375

_space_group_name_H-M_alt    "P 1"
_space_group_IT_number       1

loop_
  _space_group_symop_operation_xyz
  'x, y, z'

loop_
  _atom_site_type_symbol
  _atom_site_label
  _atom_site_symmetry_multiplicity
  _atom_site_fract_x
  _atom_site_fract_y
  _atom_site_fract_z
  _atom_site_occupancy
  Ca  Ca1       1.0  0.25000000085894425  0.2500000531177527  0.24999999556394029  1.0000
  Ca  Ca2       1.0  0.7499999941240237  0.749999982524462  0.7499999610638166  1.0000
  As  As1       1.0  0.9999999945901575  0.9999999736637963  7.423944711090721e-08  1.0000
  S   S1        1.0  0.25621023760324707  0.25621017737218954  0.7437898020484541  1.0000
  S   S2        1.0  0.7437897933706303  0.7437898620323402  0.2562102099646586  1.0000
  S   S3        1.0  0.7437897851516616  0.25621018756136366  0.2562102634750346  1.0000
  S   S4        1.0  0.2562102802394341  0.7437896900636295  0.7437898106832785  1.0000
  S   S5        1.0  0.2562101786817272  0.7437897386138942  0.25621018685702956  1.0000
  S   S6        1.0  0.7437897564116711  0.25621030643410714  0.7437897351102364  1.0000
