data_image0
_chemical_formula_structural       Ca2AsSe6
_chemical_formula_sum              "Ca2 As1 Se6"
_cell_length_a       6.789754955849338
_cell_length_b       6.789755057283347
_cell_length_c       6.789754965162242
_cell_angle_alpha    59.999999459394644
_cell_angle_beta     59.999999718612024
_cell_angle_gamma    59.999999559136086

_space_group_name_H-M_alt    "P 1"
_space_group_IT_number       1

loop_
  _space_group_symop_operation_xyz
  'x, y, z'

loop_
  _atom_site_type_symbol
  _atom_site_label
  _atom_site_symmetry_multiplicity
  _atom_site_fract_x
  _atom_site_fract_y
  _atom_site_fract_z
  _atom_site_occupancy
  Ca  Ca1       1.0  0.24999994259463104  0.24999999738633633  0.2500000390965176  1.0000
  Ca  Ca2       1.0  0.750000046548937  0.7500000246276431  0.7499999681077978  1.0000
  As  As1       1.0  0.9999999235708178  1.7316605143745988e-07  1.1511316343865269e-07  1.0000
  Se  Se1       1.0  0.26160194290413014  0.26160194635097656  0.7383980566078141  1.0000
  Se  Se2       1.0  0.7383980210745537  0.738397998099042  0.2616019857600453  1.0000
  Se  Se3       1.0  0.7383980908292759  0.2616019359854603  0.2616018786061446  1.0000
  Se  Se4       1.0  0.26160202802953525  0.7383979723882981  0.7383979673887117  1.0000
  Se  Se5       1.0  0.26160196267381497  0.7383980187986608  0.2616019560019476  1.0000
  Se  Se6       1.0  0.7383980441129362  0.2616019400818624  0.7383980179808312  1.0000
