data_image0
_chemical_formula_structural       Ca2BTe6
_chemical_formula_sum              "Ca2 B1 Te6"
_cell_length_a       7.088615447433404
_cell_length_b       7.08861527833453
_cell_length_c       7.0886155406507045
_cell_angle_alpha    59.99999968805763
_cell_angle_beta     60.00000161933618
_cell_angle_gamma    60.000002906947906

_space_group_name_H-M_alt    "P 1"
_space_group_IT_number       1

loop_
  _space_group_symop_operation_xyz
  'x, y, z'

loop_
  _atom_site_type_symbol
  _atom_site_label
  _atom_site_symmetry_multiplicity
  _atom_site_fract_x
  _atom_site_fract_y
  _atom_site_fract_z
  _atom_site_occupancy
  Ca  Ca1       1.0  0.2500000194002509  0.2500000449447181  0.25000002417215395  1.0000
  Ca  Ca2       1.0  0.7499999553651829  0.7500000035241464  0.7500000174822978  1.0000
  B   B1        1.0  0.9999999740356016  0.9999999948167095  3.673453456422252e-08  1.0000
  Te  Te1       1.0  0.2336964563926542  0.23369638133223405  0.7663035030530709  1.0000
  Te  Te2       1.0  0.766303583203368  0.7663035703818928  0.23369645722427942  1.0000
  Te  Te3       1.0  0.7663034763056511  0.23369648109651414  0.23369641037954716  1.0000
  Te  Te4       1.0  0.23369646655550025  0.7663035604612961  0.7663035505219705  1.0000
  Te  Te5       1.0  0.23369651198185043  0.7663034986165906  0.23369640739826206  1.0000
  Te  Te6       1.0  0.766303547539878  0.23369646173635336  0.7663036119538877  1.0000
