data_image0
_chemical_formula_structural       Ca2BiTe6
_chemical_formula_sum              "Ca2 Bi1 Te6"
_cell_length_a       7.6207430587006
_cell_length_b       7.620742966790107
_cell_length_c       7.620742989779031
_cell_angle_alpha    60.00000026053814
_cell_angle_beta     59.99999955444362
_cell_angle_gamma    60.00000086478717

_space_group_name_H-M_alt    "P 1"
_space_group_IT_number       1

loop_
  _space_group_symop_operation_xyz
  'x, y, z'

loop_
  _atom_site_type_symbol
  _atom_site_label
  _atom_site_symmetry_multiplicity
  _atom_site_fract_x
  _atom_site_fract_y
  _atom_site_fract_z
  _atom_site_occupancy
  Ca  Ca1       1.0  0.2500000163059136  0.24999995276132356  0.25000001672291605  1.0000
  Ca  Ca2       1.0  0.7499999969226565  0.7500000688166933  0.7499999472801857  1.0000
  Bi  Bi1       1.0  1.3896834406254455e-08  1.2856960193912587e-08  0.9999999603789425  1.0000
  Te  Te1       1.0  0.2761853964403754  0.27618532560224796  0.7238146565762499  1.0000
  Te  Te2       1.0  0.723814651469906  0.7238146782974495  0.2761853356669801  1.0000
  Te  Te3       1.0  0.7238146210684137  0.27618532917451294  0.2761853866758489  1.0000
  Te  Te4       1.0  0.2761853205173892  0.7238146618682231  0.7238146809045979  1.0000
  Te  Te5       1.0  0.27618534077755164  0.7238146475302375  0.27618536350852496  1.0000
  Te  Te6       1.0  0.723814640755117  0.27618531458433826  0.7238146605085365  1.0000
