data_image0
_chemical_formula_structural       Ca2BO6
_chemical_formula_sum              "Ca2 B1 O6"
_cell_length_a       4.950498624821251
_cell_length_b       4.950499292101437
_cell_length_c       4.950498688738883
_cell_angle_alpha    59.999999624746806
_cell_angle_beta     59.999999905637694
_cell_angle_gamma    59.99999748316687

_space_group_name_H-M_alt    "P 1"
_space_group_IT_number       1

loop_
  _space_group_symop_operation_xyz
  'x, y, z'

loop_
  _atom_site_type_symbol
  _atom_site_label
  _atom_site_symmetry_multiplicity
  _atom_site_fract_x
  _atom_site_fract_y
  _atom_site_fract_z
  _atom_site_occupancy
  Ca  Ca1       1.0  0.24999998721916045  0.2500000401967603  0.2499999958916321  1.0000
  Ca  Ca2       1.0  0.7500000516141903  0.7499999696773394  0.7500000666329822  1.0000
  B   B1        1.0  3.091264515506055e-08  0.9999999282545133  0.9999998567965435  1.0000
  O   O1        1.0  0.21928208864221196  0.21928199514910737  0.7807180081671188  1.0000
  O   O2        1.0  0.7807178866721337  0.7807180023550823  0.21928210442194462  1.0000
  O   O3        1.0  0.7807180140026512  0.21928199298266532  0.2192820077648813  1.0000
  O   O4        1.0  0.21928209772822715  0.7807179451459437  0.7807179249038121  1.0000
  O   O5        1.0  0.21928198798896245  0.7807180308020358  0.2192820484110952  1.0000
  O   O6        1.0  0.7807179149452587  0.21928209287526748  0.780718021121481  1.0000
