data_image0
_chemical_formula_structural       Ca2BS6
_chemical_formula_sum              "Ca2 B1 S6"
_cell_length_a       6.164908614019011
_cell_length_b       6.16490904295324
_cell_length_c       6.164908606606092
_cell_angle_alpha    60.000000368477906
_cell_angle_beta     60.00000010883399
_cell_angle_gamma    59.99999996276615

_space_group_name_H-M_alt    "P 1"
_space_group_IT_number       1

loop_
  _space_group_symop_operation_xyz
  'x, y, z'

loop_
  _atom_site_type_symbol
  _atom_site_label
  _atom_site_symmetry_multiplicity
  _atom_site_fract_x
  _atom_site_fract_y
  _atom_site_fract_z
  _atom_site_occupancy
  Ca  Ca1       1.0  0.24999998429200307  0.249999995028902  0.2500000159392435  1.0000
  Ca  Ca2       1.0  0.749999992891164  0.7499999493272034  0.7500000602886617  1.0000
  B   B1        1.0  6.054041601519826e-08  9.933194823194993e-08  0.9999999151975643  1.0000
  S   S1        1.0  0.23227820913880437  0.2322781888403224  0.7677218614801924  1.0000
  S   S2        1.0  0.767721737527426  0.7677217515425045  0.2322782757890901  1.0000
  S   S3        1.0  0.767721862867741  0.2322781526853019  0.23227823983317014  1.0000
  S   S4        1.0  0.23227827075977028  0.7677218055772751  0.767721697690553  1.0000
  S   S5        1.0  0.23227815497064663  0.7677217978258275  0.23227822888476315  1.0000
  S   S6        1.0  0.7677217949481676  0.23227823394239608  0.7677217102117102  1.0000
