data_image0
_chemical_formula_structural       Ca2BSe6
_chemical_formula_sum              "Ca2 B1 Se6"
_cell_length_a       6.482967005396691
_cell_length_b       6.482967301824635
_cell_length_c       6.482967035820482
_cell_angle_alpha    60.00000124035997
_cell_angle_beta     59.99999867850509
_cell_angle_gamma    60.0000010305033

_space_group_name_H-M_alt    "P 1"
_space_group_IT_number       1

loop_
  _space_group_symop_operation_xyz
  'x, y, z'

loop_
  _atom_site_type_symbol
  _atom_site_label
  _atom_site_symmetry_multiplicity
  _atom_site_fract_x
  _atom_site_fract_y
  _atom_site_fract_z
  _atom_site_occupancy
  Ca  Ca1       1.0  0.25000001732903515  0.2499998771041609  0.25000005839382533  1.0000
  Ca  Ca2       1.0  0.7499999612141067  0.7500000639331587  0.7499999672375515  1.0000
  B   B1        1.0  1.3634672625573578e-08  1.5680138083050133e-07  6.440482234136804e-08  1.0000
  Se  Se1       1.0  0.23807860928940613  0.23807856064351068  0.7619213748068139  1.0000
  Se  Se2       1.0  0.7619213369773129  0.7619213917288485  0.23807864741272217  1.0000
  Se  Se3       1.0  0.7619214202013275  0.2380785515333133  0.23807855882693152  1.0000
  Se  Se4       1.0  0.23807861837854716  0.7619213857256594  0.7619213245299851  1.0000
  Se  Se5       1.0  0.23807862906720123  0.761921361441465  0.238078646144304  1.0000
  Se  Se6       1.0  0.7619213922940247  0.23807863816022573  0.7619213904959886  1.0000
