data_image0
_chemical_formula_structural       Ca2BiSe6
_chemical_formula_sum              "Ca2 Bi1 Se6"
_cell_length_a       7.095876939376257
_cell_length_b       7.095876859482317
_cell_length_c       7.095876641943678
_cell_angle_alpha    60.00000114189646
_cell_angle_beta     60.000000622165295
_cell_angle_gamma    59.99999859688712

_space_group_name_H-M_alt    "P 1"
_space_group_IT_number       1

loop_
  _space_group_symop_operation_xyz
  'x, y, z'

loop_
  _atom_site_type_symbol
  _atom_site_label
  _atom_site_symmetry_multiplicity
  _atom_site_fract_x
  _atom_site_fract_y
  _atom_site_fract_z
  _atom_site_occupancy
  Ca  Ca1       1.0  0.24999990531018806  0.2500001394032448  0.250000003079581  1.0000
  Ca  Ca2       1.0  0.7500000487935873  0.7499998589873154  0.7500000167232527  1.0000
  Bi  Bi1       1.0  1.3790512168397e-09  9.838172005813207e-08  0.9999998458336978  1.0000
  Se  Se1       1.0  0.27634839095991387  0.27634851247438313  0.723651548088572  1.0000
  Se  Se2       1.0  0.723651588720718  0.7236514531222696  0.27634850632670815  1.0000
  Se  Se3       1.0  0.7236516077432601  0.27634843459915126  0.276348399215048  1.0000
  Se  Se4       1.0  0.2763484068830855  0.7236515189155351  0.7236516550425114  1.0000
  Se  Se5       1.0  0.27634843891821015  0.7236515307835608  0.27634847942018853  1.0000
  Se  Se6       1.0  0.7236516177213793  0.27634843826508054  0.7236515460637711  1.0000
