data_image0
_chemical_formula_structural       Ca2BiS6
_chemical_formula_sum              "Ca2 Bi1 S6"
_cell_length_a       6.705626741628835
_cell_length_b       6.705626233601012
_cell_length_c       6.7056266509810305
_cell_angle_alpha    59.999999170799214
_cell_angle_beta     60.000001383241255
_cell_angle_gamma    59.999999738064204

_space_group_name_H-M_alt    "P 1"
_space_group_IT_number       1

loop_
  _space_group_symop_operation_xyz
  'x, y, z'

loop_
  _atom_site_type_symbol
  _atom_site_label
  _atom_site_symmetry_multiplicity
  _atom_site_fract_x
  _atom_site_fract_y
  _atom_site_fract_z
  _atom_site_occupancy
  Ca  Ca1       1.0  0.25000005176056184  0.24999996633390975  0.24999999422607913  1.0000
  Ca  Ca2       1.0  0.7499999755324073  0.7499999939768001  0.7500000161176312  1.0000
  Bi  Bi1       1.0  6.2791354226594164e-09  1.8264440192212058e-09  1.682519942138908e-08  1.0000
  S   S1        1.0  0.2606004098406611  0.2606003460023715  0.7393996247065179  1.0000
  S   S2        1.0  0.7393996442222257  0.7393995649943585  0.2606004252436371  1.0000
  S   S3        1.0  0.7393996398992987  0.2606003718077484  0.2606003029290362  1.0000
  S   S4        1.0  0.26060032809698036  0.7393996579078213  0.7393996442004768  1.0000
  S   S5        1.0  0.26060033786811837  0.7393997131990127  0.26060028282056397  1.0000
  S   S6        1.0  0.7393995886601606  0.26060038409497455  0.7393997034487133  1.0000
