data_image0
_chemical_formula_structural       Ca2BiO6
_chemical_formula_sum              "Ca2 Bi1 O6"
_cell_length_a       5.625429219627791
_cell_length_b       5.625428790014018
_cell_length_c       5.625429389421766
_cell_angle_alpha    59.99999751932624
_cell_angle_beta     59.99999851640848
_cell_angle_gamma    59.99999951889913

_space_group_name_H-M_alt    "P 1"
_space_group_IT_number       1

loop_
  _space_group_symop_operation_xyz
  'x, y, z'

loop_
  _atom_site_type_symbol
  _atom_site_label
  _atom_site_symmetry_multiplicity
  _atom_site_fract_x
  _atom_site_fract_y
  _atom_site_fract_z
  _atom_site_occupancy
  Ca  Ca1       1.0  0.2499999496713494  0.24999994967966033  0.2500001127605932  1.0000
  Ca  Ca2       1.0  0.750000053033346  0.7499999143537328  0.750000016962336  1.0000
  Bi  Bi1       1.0  8.536449593400763e-08  0.9999997931699626  6.251041086555151e-08  1.0000
  O   O1        1.0  0.2678839826482101  0.2678840236276721  0.732116042537498  1.0000
  O   O2        1.0  0.7321159784164238  0.7321162301170565  0.2678838153794831  1.0000
  O   O3        1.0  0.7321160366514526  0.26788402804489814  0.26788399707608923  1.0000
  O   O4        1.0  0.2678839454413457  0.7321159840352597  0.732116060041197  1.0000
  O   O5        1.0  0.26788395977609464  0.732116101787621  0.26788400222991143  1.0000
  O   O6        1.0  0.7321160083821593  0.2678839952017092  0.7321159162968209  1.0000
