data_image0
_chemical_formula_structural       Ca2GaS6
_chemical_formula_sum              "Ca2 Ga1 S6"
_cell_length_a       6.316165974524669
_cell_length_b       6.316166798735705
_cell_length_c       6.316166516053415
_cell_angle_alpha    59.99999587563655
_cell_angle_beta     59.99999831504024
_cell_angle_gamma    59.99999980814702

_space_group_name_H-M_alt    "P 1"
_space_group_IT_number       1

loop_
  _space_group_symop_operation_xyz
  'x, y, z'

loop_
  _atom_site_type_symbol
  _atom_site_label
  _atom_site_symmetry_multiplicity
  _atom_site_fract_x
  _atom_site_fract_y
  _atom_site_fract_z
  _atom_site_occupancy
  Ca  Ca1       1.0  0.24999994772269027  0.2500000470136902  0.24999998028044096  1.0000
  Ca  Ca2       1.0  0.7499999944307985  0.7499998463034071  0.7499999840805058  1.0000
  Ga  Ga1       1.0  0.9999999621439527  3.878127610891542e-09  1.0656004089751149e-08  1.0000
  S   S1        1.0  0.2565757755841496  0.2565757635728376  0.7434242382427672  1.0000
  S   S2        1.0  0.7434241291536289  0.7434243023209057  0.2565758564425564  1.0000
  S   S3        1.0  0.7434242213541837  0.25657578199794956  0.25657576307954627  1.0000
  S   S4        1.0  0.2565758204422938  0.7434241908207387  0.7434243507781696  1.0000
  S   S5        1.0  0.2565758460663238  0.7434241792735208  0.25657575414282724  1.0000
  S   S6        1.0  0.7434242970903988  0.2565758788639763  0.7434241064682385  1.0000
