data_image0
_chemical_formula_structural       Ca2IrSe6
_chemical_formula_sum              "Ca2 Ir1 Se6"
_cell_length_a       6.7403784759939835
_cell_length_b       6.740378523627338
_cell_length_c       6.740378791001996
_cell_angle_alpha    60.00000206222481
_cell_angle_beta     59.99999955333559
_cell_angle_gamma    60.00000229278413

_space_group_name_H-M_alt    "P 1"
_space_group_IT_number       1

loop_
  _space_group_symop_operation_xyz
  'x, y, z'

loop_
  _atom_site_type_symbol
  _atom_site_label
  _atom_site_symmetry_multiplicity
  _atom_site_fract_x
  _atom_site_fract_y
  _atom_site_fract_z
  _atom_site_occupancy
  Ca  Ca1       1.0  0.2499999854480037  0.24999994870183087  0.24999998418483074  1.0000
  Ca  Ca2       1.0  0.7499999644047453  0.7500000223570992  0.7500000933229215  1.0000
  Ir  Ir1       1.0  0.9999999746329405  0.9999999527573026  1.9985319453265246e-08  1.0000
  Se  Se1       1.0  0.258073073004785  0.2580731158283368  0.7419268948735155  1.0000
  Se  Se2       1.0  0.7419268669671485  0.7419268643157246  0.2580731058850795  1.0000
  Se  Se3       1.0  0.7419269450922956  0.2580731124493687  0.25807307132398877  1.0000
  Se  Se4       1.0  0.2580731443684236  0.7419269639971164  0.7419268614320624  1.0000
  Se  Se5       1.0  0.2580731715024102  0.7419269693023821  0.25807302614314037  1.0000
  Se  Se6       1.0  0.7419268677081196  0.2580730471822177  0.7419269424321964  1.0000
