data_image0
_chemical_formula_structural       Ca2NO6
_chemical_formula_sum              "Ca2 N1 O6"
_cell_length_a       5.249018877255825
_cell_length_b       5.249019003852705
_cell_length_c       5.249019102968618
_cell_angle_alpha    59.99999938374502
_cell_angle_beta     60.00000037128908
_cell_angle_gamma    60.00000669163834

_space_group_name_H-M_alt    "P 1"
_space_group_IT_number       1

loop_
  _space_group_symop_operation_xyz
  'x, y, z'

loop_
  _atom_site_type_symbol
  _atom_site_label
  _atom_site_symmetry_multiplicity
  _atom_site_fract_x
  _atom_site_fract_y
  _atom_site_fract_z
  _atom_site_occupancy
  Ca  Ca1       1.0  0.2500002419536197  0.24999970272024263  0.24999945734471815  1.0000
  Ca  Ca2       1.0  0.7500002661511376  0.7499996821483812  0.7499995951343793  1.0000
  N   N1        1.0  0.9999997400413582  0.999999981333718  0.999999563966867  1.0000
  O   O1        1.0  0.2112977560216937  0.21129768948152425  0.7887027806066188  1.0000
  O   O2        1.0  0.7887019530183428  0.7887023767057559  0.21129820919170245  1.0000
  O   O3        1.0  0.788702287492356  0.21129779721110184  0.211297960751437  1.0000
  O   O4        1.0  0.21129832140085728  0.7887018396521199  0.7887020450710213  1.0000
  O   O5        1.0  0.21129754740807452  0.7887026718264977  0.21129794665878365  1.0000
  O   O6        1.0  0.7887019128818975  0.21129813401157785  0.7887023918990663  1.0000
