data_image0
_chemical_formula_structural       Ca2PS6
_chemical_formula_sum              "Ca2 P1 S6"
_cell_length_a       6.374975153205855
_cell_length_b       6.3749752760461735
_cell_length_c       6.3749744863845486
_cell_angle_alpha    60.00000131606626
_cell_angle_beta     60.0000027085105
_cell_angle_gamma    59.999998412411685

_space_group_name_H-M_alt    "P 1"
_space_group_IT_number       1

loop_
  _space_group_symop_operation_xyz
  'x, y, z'

loop_
  _atom_site_type_symbol
  _atom_site_label
  _atom_site_symmetry_multiplicity
  _atom_site_fract_x
  _atom_site_fract_y
  _atom_site_fract_z
  _atom_site_occupancy
  Ca  Ca1       1.0  0.24999998876572105  0.2500000861577251  0.24999995379352333  1.0000
  Ca  Ca2       1.0  0.750000040161994  0.7500000260108945  0.7499998653848807  1.0000
  P   P1        1.0  0.9999999436675946  0.9999999462070827  0.9999998778070515  1.0000
  S   S1        1.0  0.242171851472047  0.24217184907050524  0.7578281297118084  1.0000
  S   S2        1.0  0.7578282284861342  0.7578280882711049  0.24217187371830154  1.0000
  S   S3        1.0  0.7578280326332656  0.24217192337082077  0.2421718895417531  1.0000
  S   S4        1.0  0.2421717101620517  0.7578282810142436  0.7578282728701224  1.0000
  S   S5        1.0  0.2421718887876823  0.7578280883221576  0.24217186323519307  1.0000
  S   S6        1.0  0.7578283207995123  0.24217173182771629  0.7578282594669783  1.0000
