data_image0
_chemical_formula_structural       Ca2RhSe6
_chemical_formula_sum              "Ca2 Rh1 Se6"
_cell_length_a       6.698064221436742
_cell_length_b       6.6980638341295515
_cell_length_c       6.698064287245163
_cell_angle_alpha    60.00000133651128
_cell_angle_beta     59.99999725401208
_cell_angle_gamma    60.00000265710387

_space_group_name_H-M_alt    "P 1"
_space_group_IT_number       1

loop_
  _space_group_symop_operation_xyz
  'x, y, z'

loop_
  _atom_site_type_symbol
  _atom_site_label
  _atom_site_symmetry_multiplicity
  _atom_site_fract_x
  _atom_site_fract_y
  _atom_site_fract_z
  _atom_site_occupancy
  Ca  Ca1       1.0  0.25000001121552773  0.2500000293592585  0.24999996492819324  1.0000
  Ca  Ca2       1.0  0.7499999873633947  0.749999983852947  0.7500000222924891  1.0000
  Rh  Rh1       1.0  1.1562595537514963e-08  0.9999999963429873  0.999999963201898  1.0000
  Se  Se1       1.0  0.25756998451365737  0.2575700921734128  0.7424299792425066  1.0000
  Se  Se2       1.0  0.742430028379585  0.7424298936112103  0.2575700891832381  1.0000
  Se  Se3       1.0  0.7424299385974673  0.2575700384958811  0.2575700149661278  1.0000
  Se  Se4       1.0  0.2575701096110067  0.7424299034045972  0.7424299099401753  1.0000
  Se  Se5       1.0  0.25757002056007006  0.7424300457168116  0.25757001921652173  1.0000
  Se  Se6       1.0  0.7424299115682791  0.25757001686505027  0.7424300377563361  1.0000
