data_image0
_chemical_formula_structural       Ca2RuSe6
_chemical_formula_sum              "Ca2 Ru1 Se6"
_cell_length_a       6.71769480056907
_cell_length_b       6.717694509817345
_cell_length_c       6.7176942972859965
_cell_angle_alpha    60.00000210962016
_cell_angle_beta     60.00000171629566
_cell_angle_gamma    59.99999927351782

_space_group_name_H-M_alt    "P 1"
_space_group_IT_number       1

loop_
  _space_group_symop_operation_xyz
  'x, y, z'

loop_
  _atom_site_type_symbol
  _atom_site_label
  _atom_site_symmetry_multiplicity
  _atom_site_fract_x
  _atom_site_fract_y
  _atom_site_fract_z
  _atom_site_occupancy
  Ca  Ca1       1.0  0.24999999173326753  0.25000000087239466  0.24999999255912614  1.0000
  Ca  Ca2       1.0  0.7499999762067071  0.7500000099098341  0.7499999943680851  1.0000
  Ru  Ru1       1.0  1.5887119333775805e-08  0.9999999781220511  7.295989628019128e-08  1.0000
  Se  Se1       1.0  0.2578043178398465  0.2578043359768615  0.7421956562189399  1.0000
  Se  Se2       1.0  0.742195710592114  0.742195627403142  0.25780432714060225  1.0000
  Se  Se3       1.0  0.742195643241614  0.2578043741649697  0.25780428394779153  1.0000
  Se  Se4       1.0  0.25780427938150546  0.7421956694341841  0.7421956973205374  1.0000
  Se  Se5       1.0  0.2578043251325651  0.7421956877262438  0.2578043256521823  1.0000
  Se  Se6       1.0  0.7421957330061547  0.2578043102938466  0.7421956463744207  1.0000
