data_image0
_chemical_formula_structural       Ca2RuO6
_chemical_formula_sum              "Ca2 Ru1 O6"
_cell_length_a       5.476116514314639
_cell_length_b       5.476116676590724
_cell_length_c       5.476116284115099
_cell_angle_alpha    60.000002342594456
_cell_angle_beta     60.00000285905814
_cell_angle_gamma    60.00000167742016

_space_group_name_H-M_alt    "P 1"
_space_group_IT_number       1

loop_
  _space_group_symop_operation_xyz
  'x, y, z'

loop_
  _atom_site_type_symbol
  _atom_site_label
  _atom_site_symmetry_multiplicity
  _atom_site_fract_x
  _atom_site_fract_y
  _atom_site_fract_z
  _atom_site_occupancy
  Ca  Ca1       1.0  0.24999995069488937  0.24999996586824294  0.25000000388940097  1.0000
  Ca  Ca2       1.0  0.7499999683762196  0.749999991538598  0.7499999649910679  1.0000
  Ru  Ru1       1.0  2.9158785875617293e-08  0.9999999821078347  0.9999998975827701  1.0000
  O   O1        1.0  0.24177341644834113  0.24177338894331532  0.758226617445439  1.0000
  O   O2        1.0  0.758226559065606  0.7582265572809205  0.2417735333294241  1.0000
  O   O3        1.0  0.7582266285154178  0.24177328711929433  0.24177332730829626  1.0000
  O   O4        1.0  0.24177344111861618  0.7582266993623143  0.7582266722766998  1.0000
  O   O5        1.0  0.2417733255444274  0.758226706866536  0.24177323386050603  1.0000
  O   O6        1.0  0.7582266611703027  0.24177338920458866  0.758226723171596  1.0000
