data_image0
_chemical_formula_structural       Ca2RhO6
_chemical_formula_sum              "Ca2 Rh1 O6"
_cell_length_a       5.494202726366548
_cell_length_b       5.494202200147429
_cell_length_c       5.4942028068788
_cell_angle_alpha    59.99999938360758
_cell_angle_beta     59.99999891029621
_cell_angle_gamma    59.99999830194325

_space_group_name_H-M_alt    "P 1"
_space_group_IT_number       1

loop_
  _space_group_symop_operation_xyz
  'x, y, z'

loop_
  _atom_site_type_symbol
  _atom_site_label
  _atom_site_symmetry_multiplicity
  _atom_site_fract_x
  _atom_site_fract_y
  _atom_site_fract_z
  _atom_site_occupancy
  Ca  Ca1       1.0  0.24999979756874693  0.24999999942357878  0.2500001145727089  1.0000
  Ca  Ca2       1.0  0.7500001194800051  0.7500000562288622  0.7499998239451607  1.0000
  Rh  Rh1       1.0  2.4262009571960773e-08  1.60499432283293e-07  0.9999999658624912  1.0000
  O   O1        1.0  0.24841474560088872  0.2484147247764909  0.7515852826853431  1.0000
  O   O2        1.0  0.7515851716228561  0.7515850277103676  0.24841501299914454  1.0000
  O   O3        1.0  0.7515853157898006  0.24841464635183982  0.24841479846643869  1.0000
  O   O4        1.0  0.24841486972287405  0.7515852911551881  0.7515850539715705  1.0000
  O   O5        1.0  0.24841468943633443  0.751585254850487  0.24841481214127403  1.0000
  O   O6        1.0  0.7515852885608707  0.2484148008019547  0.7515851050028698  1.0000
