data_image0
_chemical_formula_structural       Ca2SbO6
_chemical_formula_sum              "Ca2 Sb1 O6"
_cell_length_a       5.493518267339679
_cell_length_b       5.493518317825971
_cell_length_c       5.493518735103072
_cell_angle_alpha    59.99999679669818
_cell_angle_beta     59.999997779404346
_cell_angle_gamma    59.999999482984265

_space_group_name_H-M_alt    "P 1"
_space_group_IT_number       1

loop_
  _space_group_symop_operation_xyz
  'x, y, z'

loop_
  _atom_site_type_symbol
  _atom_site_label
  _atom_site_symmetry_multiplicity
  _atom_site_fract_x
  _atom_site_fract_y
  _atom_site_fract_z
  _atom_site_occupancy
  Ca  Ca1       1.0  0.25000007795088924  0.2499999049777698  0.24999999606045525  1.0000
  Ca  Ca2       1.0  0.7500000044613719  0.749999986924533  0.749999892247996  1.0000
  Sb  Sb1       1.0  0.9999999773887537  0.9999999732467653  0.999999931845568  1.0000
  O   O1        1.0  0.25770045408591125  0.25770048443830434  0.7422995259841821  1.0000
  O   O2        1.0  0.7422994352216776  0.7422995769011509  0.2577005743939878  1.0000
  O   O3        1.0  0.7422995041018777  0.2577003914835972  0.25770043181708135  1.0000
  O   O4        1.0  0.2577005181374839  0.742299643102625  0.7422995918075697  1.0000
  O   O5        1.0  0.25770045138899467  0.7422996769708289  0.257700356225674  1.0000
  O   O6        1.0  0.742299504160412  0.2577004378750982  0.7422996788173704  1.0000
