data_image0
_chemical_formula_structural       Ca2SbTe6
_chemical_formula_sum              "Ca2 Sb1 Te6"
_cell_length_a       7.533871422910159
_cell_length_b       7.533871413517563
_cell_length_c       7.533871534889317
_cell_angle_alpha    59.999998999672634
_cell_angle_beta     59.99999921559253
_cell_angle_gamma    59.999999795444516

_space_group_name_H-M_alt    "P 1"
_space_group_IT_number       1

loop_
  _space_group_symop_operation_xyz
  'x, y, z'

loop_
  _atom_site_type_symbol
  _atom_site_label
  _atom_site_symmetry_multiplicity
  _atom_site_fract_x
  _atom_site_fract_y
  _atom_site_fract_z
  _atom_site_occupancy
  Ca  Ca1       1.0  0.24999997797638107  0.250000023716246  0.24999997814660124  1.0000
  Ca  Ca2       1.0  0.7500000373783583  0.7500000044970297  0.750000011609444  1.0000
  Sb  Sb1       1.0  1.343817097248713e-08  0.9999999918717428  2.6546496702740224e-08  1.0000
  Te  Te1       1.0  0.27076375085301657  0.2707638220317177  0.7292362166625439  1.0000
  Te  Te2       1.0  0.7292362214007696  0.7292362159354665  0.27076377516629685  1.0000
  Te  Te3       1.0  0.729236214388779  0.270763774920625  0.2707637944208686  1.0000
  Te  Te4       1.0  0.270763774323418  0.7292361768870337  0.7292361937657045  1.0000
  Te  Te5       1.0  0.27076380756131707  0.7292362145735128  0.2707637787302491  1.0000
  Te  Te6       1.0  0.7292362028553984  0.27076377787543154  0.7292362287222961  1.0000
