data_image0
_chemical_formula_structural       Ca2SbS6
_chemical_formula_sum              "Ca2 Sb1 S6"
_cell_length_a       6.64484318801452
_cell_length_b       6.644843787866937
_cell_length_c       6.6448432641173305
_cell_angle_alpha    60.00000253234904
_cell_angle_beta     60.00000080578122
_cell_angle_gamma    60.000001999317

_space_group_name_H-M_alt    "P 1"
_space_group_IT_number       1

loop_
  _space_group_symop_operation_xyz
  'x, y, z'

loop_
  _atom_site_type_symbol
  _atom_site_label
  _atom_site_symmetry_multiplicity
  _atom_site_fract_x
  _atom_site_fract_y
  _atom_site_fract_z
  _atom_site_occupancy
  Ca  Ca1       1.0  0.2500000112722769  0.24999994749196516  0.25000005400802605  1.0000
  Ca  Ca2       1.0  0.7500000061153139  0.7500000194183605  0.7499999940981672  1.0000
  Sb  Sb1       1.0  2.443376226472329e-08  0.9999999944705477  1.1616814764477717e-08  1.0000
  S   S1        1.0  0.25967121579928487  0.2596711553549336  0.7403288220005783  1.0000
  S   S2        1.0  0.7403287973749468  0.7403288502615564  0.2596711607015678  1.0000
  S   S3        1.0  0.7403288121850061  0.2596711462329545  0.25967120526027265  1.0000
  S   S4        1.0  0.25967113857219054  0.7403287911869615  0.7403288307092663  1.0000
  S   S5        1.0  0.25967116987696476  0.7403288416692438  0.259671202713981  1.0000
  S   S6        1.0  0.7403288160535666  0.25967125610478  0.7403287369967632  1.0000
