data_image0
_chemical_formula_structural       Ca2SbSe6
_chemical_formula_sum              "Ca2 Sb1 Se6"
_cell_length_a       6.950111327505016
_cell_length_b       6.950111453471871
_cell_length_c       6.9501114016813155
_cell_angle_alpha    59.999999587711905
_cell_angle_beta     59.99999978336183
_cell_angle_gamma    60.00000000031448

_space_group_name_H-M_alt    "P 1"
_space_group_IT_number       1

loop_
  _space_group_symop_operation_xyz
  'x, y, z'

loop_
  _atom_site_type_symbol
  _atom_site_label
  _atom_site_symmetry_multiplicity
  _atom_site_fract_x
  _atom_site_fract_y
  _atom_site_fract_z
  _atom_site_occupancy
  Ca  Ca1       1.0  0.24999999091525052  0.24999999472342396  0.2500000334104272  1.0000
  Ca  Ca2       1.0  0.7499999577757427  0.7500000141275808  0.7499999977751247  1.0000
  Sb  Sb1       1.0  0.9999999973480627  2.2908529156528604e-08  4.023060897490899e-08  1.0000
  Se  Se1       1.0  0.26474668031109516  0.26474661826472345  0.7352533379143832  1.0000
  Se  Se2       1.0  0.7352533451245329  0.735253344769222  0.26474667492972986  1.0000
  Se  Se3       1.0  0.7352533443873532  0.2647466638926234  0.264746660902135  1.0000
  Se  Se4       1.0  0.264746687190019  0.7352533255742407  0.7352533385322979  1.0000
  Se  Se5       1.0  0.2647466465920348  0.7352533258062214  0.2647466342894251  1.0000
  Se  Se6       1.0  0.7352533490043577  0.2647466918557567  0.7352532899025184  1.0000
