data_image0
_chemical_formula_structural       Ca2TlTe6
_chemical_formula_sum              "Ca2 Tl1 Te6"
_cell_length_a       7.520335208730857
_cell_length_b       7.5203350797311455
_cell_length_c       7.5203350689710895
_cell_angle_alpha    59.9999996362611
_cell_angle_beta     60.00000022986368
_cell_angle_gamma    60.00000027937282

_space_group_name_H-M_alt    "P 1"
_space_group_IT_number       1

loop_
  _space_group_symop_operation_xyz
  'x, y, z'

loop_
  _atom_site_type_symbol
  _atom_site_label
  _atom_site_symmetry_multiplicity
  _atom_site_fract_x
  _atom_site_fract_y
  _atom_site_fract_z
  _atom_site_occupancy
  Ca  Ca1       1.0  0.2500000300367179  0.24999992157006173  0.25000003938273874  1.0000
  Ca  Ca2       1.0  0.74999998191088  0.7500000708827609  0.7499999845886367  1.0000
  Tl  Tl1       1.0  0.9999999982623021  3.7457283135119096e-08  2.6021230750601776e-08  1.0000
  Te  Te1       1.0  0.2777555828679099  0.27775555702079857  0.7222444125648827  1.0000
  Te  Te2       1.0  0.7222444598975601  0.722244402860474  0.2777555098942769  1.0000
  Te  Te3       1.0  0.7222444051517773  0.2777555678082031  0.27775560606589556  1.0000
  Te  Te4       1.0  0.2777556079746788  0.7222444165017322  0.7222443376146315  1.0000
  Te  Te5       1.0  0.27775554582102235  0.7222444146694054  0.2777556547640519  1.0000
  Te  Te6       1.0  0.7222443851821223  0.27775560872638966  0.7222444301107198  1.0000
