data_image0
_chemical_formula_structural       Ca2TaTe6
_chemical_formula_sum              "Ca2 Ta1 Te6"
_cell_length_a       7.40134209444262
_cell_length_b       7.401342231930367
_cell_length_c       7.401342142925546
_cell_angle_alpha    59.99999897880037
_cell_angle_beta     59.99999966385077
_cell_angle_gamma    60.00000049127303

_space_group_name_H-M_alt    "P 1"
_space_group_IT_number       1

loop_
  _space_group_symop_operation_xyz
  'x, y, z'

loop_
  _atom_site_type_symbol
  _atom_site_label
  _atom_site_symmetry_multiplicity
  _atom_site_fract_x
  _atom_site_fract_y
  _atom_site_fract_z
  _atom_site_occupancy
  Ca  Ca1       1.0  0.2500000135528658  0.24999997815872066  0.2500000023909542  1.0000
  Ca  Ca2       1.0  0.7499999695066816  0.7499999841189756  0.7500000719716652  1.0000
  Ta  Ta1       1.0  0.9999999759356916  3.474996915469991e-08  7.031912208002583e-08  1.0000
  Te  Te1       1.0  0.26252915791170994  0.2625291732674394  0.73747083636718  1.0000
  Te  Te2       1.0  0.7374708507235583  0.7374708386530735  0.2625291098620481  1.0000
  Te  Te3       1.0  0.7374708024784904  0.26252919425987126  0.2625291652946138  1.0000
  Te  Te4       1.0  0.2625292235236442  0.7374707796011505  0.7374707872276083  1.0000
  Te  Te5       1.0  0.26252920341779495  0.737470841633829  0.26252914322897725  1.0000
  Te  Te6       1.0  0.737470804476612  0.26252918187000723  0.7374708097389763  1.0000
