data_image0
_chemical_formula_structural       Ca2TlO6
_chemical_formula_sum              "Ca2 Tl1 O6"
_cell_length_a       5.494987723655031
_cell_length_b       5.494987890716371
_cell_length_c       5.494987999757989
_cell_angle_alpha    60.00000040044451
_cell_angle_beta     59.999998367762146
_cell_angle_gamma    60.00000224155716

_space_group_name_H-M_alt    "P 1"
_space_group_IT_number       1

loop_
  _space_group_symop_operation_xyz
  'x, y, z'

loop_
  _atom_site_type_symbol
  _atom_site_label
  _atom_site_symmetry_multiplicity
  _atom_site_fract_x
  _atom_site_fract_y
  _atom_site_fract_z
  _atom_site_occupancy
  Ca  Ca1       1.0  0.2499999327110579  0.25000003656602654  0.24999999195903216  1.0000
  Ca  Ca2       1.0  0.749999992777696  0.7499999670523277  0.7500000062927561  1.0000
  Tl  Tl1       1.0  0.9999999796855016  7.355172330837265e-08  4.4290015691277373e-07  1.0000
  O   O1        1.0  0.27751890944617913  0.27751900830526083  0.7224809943119735  1.0000
  O   O2        1.0  0.7224810618903201  0.7224810153726531  0.27751888909335387  1.0000
  O   O3        1.0  0.7224811051300393  0.2775189323304111  0.277518893643295  1.0000
  O   O4        1.0  0.27751908358365096  0.7224809687613103  0.7224809350871714  1.0000
  O   O5        1.0  0.2775189493418584  0.7224809991419372  0.27751892884625606  1.0000
  O   O6        1.0  0.7224809814531227  0.2775190200782951  0.7224809006253832  1.0000
