data_image0
_chemical_formula_structural       Ca2TaS6
_chemical_formula_sum              "Ca2 Ta1 S6"
_cell_length_a       6.434749859880685
_cell_length_b       6.434749536734291
_cell_length_c       6.434749390831434
_cell_angle_alpha    60.000002399938445
_cell_angle_beta     60.000001576999146
_cell_angle_gamma    60.00000131162935

_space_group_name_H-M_alt    "P 1"
_space_group_IT_number       1

loop_
  _space_group_symop_operation_xyz
  'x, y, z'

loop_
  _atom_site_type_symbol
  _atom_site_label
  _atom_site_symmetry_multiplicity
  _atom_site_fract_x
  _atom_site_fract_y
  _atom_site_fract_z
  _atom_site_occupancy
  Ca  Ca1       1.0  0.2500000669320116  0.24999995247606452  0.25000000187372373  1.0000
  Ca  Ca2       1.0  0.7500000258423449  0.7499999354647013  0.7500000758366333  1.0000
  Ta  Ta1       1.0  0.9999999950333085  9.516646821793731e-09  0.9999999744140914  1.0000
  S   S1        1.0  0.26122432836168363  0.26122437323052455  0.7387756429145257  1.0000
  S   S2        1.0  0.7387757102859777  0.7387756555566191  0.2612242640029021  1.0000
  S   S3        1.0  0.7387756901831283  0.2612242727169573  0.2612243170385798  1.0000
  S   S4        1.0  0.2612242630916493  0.7387757161002685  0.7387757318074145  1.0000
  S   S5        1.0  0.26122432063177176  0.7387756847262693  0.26122429078864073  1.0000
  S   S6        1.0  0.7387756440069533  0.26122436690082873  0.7387757038757616  1.0000
