data_image0
_chemical_formula_structural       Ca2TlS6
_chemical_formula_sum              "Ca2 Tl1 S6"
_cell_length_a       6.609654311674085
_cell_length_b       6.609654336007822
_cell_length_c       6.609654244659676
_cell_angle_alpha    60.00000063656121
_cell_angle_beta     60.00000005628955
_cell_angle_gamma    59.9999997303636

_space_group_name_H-M_alt    "P 1"
_space_group_IT_number       1

loop_
  _space_group_symop_operation_xyz
  'x, y, z'

loop_
  _atom_site_type_symbol
  _atom_site_label
  _atom_site_symmetry_multiplicity
  _atom_site_fract_x
  _atom_site_fract_y
  _atom_site_fract_z
  _atom_site_occupancy
  Ca  Ca1       1.0  0.24999999832060435  0.2500000277471167  0.250000007606386  1.0000
  Ca  Ca2       1.0  0.7499999481291616  0.7500000350642978  0.7499999674441958  1.0000
  Tl  Tl1       1.0  0.9999999956036898  1.389722671282373e-07  0.9999998812721147  1.0000
  S   S1        1.0  0.2720216726701476  0.27202161721418894  0.7279783586866694  1.0000
  S   S2        1.0  0.7279783063397273  0.7279782955071767  0.2720217023617739  1.0000
  S   S3        1.0  0.7279783403545729  0.2720216464614049  0.27202168327971693  1.0000
  S   S4        1.0  0.2720217133520162  0.7279782884955229  0.7279782839144348  1.0000
  S   S5        1.0  0.272021700192217  0.7279783056170663  0.27202172528992974  1.0000
  S   S6        1.0  0.7279783308912817  0.27202165528135186  0.7279783673318514  1.0000
