data_image0
_chemical_formula_structural       Ca2TaO6
_chemical_formula_sum              "Ca2 Ta1 O6"
_cell_length_a       5.491229825704068
_cell_length_b       5.491230116367325
_cell_length_c       5.491230179466671
_cell_angle_alpha    60.000001036476455
_cell_angle_beta     60.000002200276974
_cell_angle_gamma    60.00000286961742

_space_group_name_H-M_alt    "P 1"
_space_group_IT_number       1

loop_
  _space_group_symop_operation_xyz
  'x, y, z'

loop_
  _atom_site_type_symbol
  _atom_site_label
  _atom_site_symmetry_multiplicity
  _atom_site_fract_x
  _atom_site_fract_y
  _atom_site_fract_z
  _atom_site_occupancy
  Ca  Ca1       1.0  0.25000000517177484  0.250000137713732  0.24999991761285453  1.0000
  Ca  Ca2       1.0  0.7500000970877786  0.7499998845446483  0.7499998962228425  1.0000
  Ta  Ta1       1.0  0.9999999975364054  0.9999999821570785  0.9999999974056588  1.0000
  O   O1        1.0  0.25129372790947024  0.25129376722575514  0.7487062397716706  1.0000
  O   O2        1.0  0.7487062864147993  0.7487062349593372  0.2512937610075554  1.0000
  O   O3        1.0  0.7487062341504447  0.2512937824783008  0.2512937081248377  1.0000
  O   O4        1.0  0.2512936816369567  0.7487063512983363  0.7487063125487594  1.0000
  O   O5        1.0  0.25129377687152393  0.7487061707921312  0.2512937935670502  1.0000
  O   O6        1.0  0.7487062068910533  0.2512936328904594  0.7487064055142055  1.0000
