data_image0
_chemical_formula_structural       Ca2TaSe6
_chemical_formula_sum              "Ca2 Ta1 Se6"
_cell_length_a       6.827234712446937
_cell_length_b       6.827234892161138
_cell_length_c       6.827234841491294
_cell_angle_alpha    59.99999967097529
_cell_angle_beta     60.00000025243708
_cell_angle_gamma    60.00000013033783

_space_group_name_H-M_alt    "P 1"
_space_group_IT_number       1

loop_
  _space_group_symop_operation_xyz
  'x, y, z'

loop_
  _atom_site_type_symbol
  _atom_site_label
  _atom_site_symmetry_multiplicity
  _atom_site_fract_x
  _atom_site_fract_y
  _atom_site_fract_z
  _atom_site_occupancy
  Ca  Ca1       1.0  0.249999988659783  0.2500000080860894  0.25000000648478854  1.0000
  Ca  Ca2       1.0  0.7500000111494827  0.7500000206704468  0.7499999971984879  1.0000
  Ta  Ta1       1.0  0.9999999649425528  6.45807794615397e-08  4.3827207036077e-08  1.0000
  Se  Se1       1.0  0.26076336068767475  0.2607633516661993  0.7392366529903968  1.0000
  Se  Se2       1.0  0.7392366111899966  0.7392366340364843  0.2607633334556167  1.0000
  Se  Se3       1.0  0.739236688433204  0.26076330817958554  0.2607633423922317  1.0000
  Se  Se4       1.0  0.2607633856591456  0.739236609354497  0.7392366182424134  1.0000
  Se  Se5       1.0  0.26076334680134666  0.7392366624932957  0.26076334105303084  1.0000
  Se  Se6       1.0  0.7392366391872139  0.26076335191195654  0.7392366547454126  1.0000
