data_image0
_chemical_formula_structural       Cd2AsO6
_chemical_formula_sum              "Cd2 As1 O6"
_cell_length_a       5.3944963395183025
_cell_length_b       5.394496978130284
_cell_length_c       5.394496951223895
_cell_angle_alpha    60.000004032458605
_cell_angle_beta     60.000001799621444
_cell_angle_gamma    60.00000427311592

_space_group_name_H-M_alt    "P 1"
_space_group_IT_number       1

loop_
  _space_group_symop_operation_xyz
  'x, y, z'

loop_
  _atom_site_type_symbol
  _atom_site_label
  _atom_site_symmetry_multiplicity
  _atom_site_fract_x
  _atom_site_fract_y
  _atom_site_fract_z
  _atom_site_occupancy
  Cd  Cd1       1.0  0.24999994073592466  0.25000002079665806  0.24999998779053034  1.0000
  Cd  Cd2       1.0  0.7500000144239365  0.7499999352498383  0.7500000123981845  1.0000
  As  As1       1.0  2.9232707415406292e-08  0.9999999636742444  0.9999999145669578  1.0000
  O   O1        1.0  0.23753205767716676  0.23753210728939325  0.7624680583974488  1.0000
  O   O2        1.0  0.7624678674709389  0.7624679259493381  0.23753229636418458  1.0000
  O   O3        1.0  0.7624680506770226  0.2375320853883789  0.23753174002444696  1.0000
  O   O4        1.0  0.23753195589595383  0.762468018231488  0.7624680086642719  1.0000
  O   O5        1.0  0.23753195414896472  0.7624678904389535  0.23753196435762444  1.0000
  O   O6        1.0  0.7624680580703111  0.2375320292817876  0.7624679494608823  1.0000
