data_image0
_chemical_formula_structural       Cd2AsSe6
_chemical_formula_sum              "Cd2 As1 Se6"
_cell_length_a       6.760491743366148
_cell_length_b       6.760491744787977
_cell_length_c       6.760491866986328
_cell_angle_alpha    60.000000134175906
_cell_angle_beta     60.00000014945202
_cell_angle_gamma    59.99999977603867

_space_group_name_H-M_alt    "P 1"
_space_group_IT_number       1

loop_
  _space_group_symop_operation_xyz
  'x, y, z'

loop_
  _atom_site_type_symbol
  _atom_site_label
  _atom_site_symmetry_multiplicity
  _atom_site_fract_x
  _atom_site_fract_y
  _atom_site_fract_z
  _atom_site_occupancy
  Cd  Cd1       1.0  0.24999996617997763  0.2500000146884893  0.25000004144115506  1.0000
  Cd  Cd2       1.0  0.7499999860630107  0.7500000223260151  0.7499999804929794  1.0000
  As  As1       1.0  7.078932961756623e-08  0.9999999003608453  0.9999999611743491  1.0000
  Se  Se1       1.0  0.2643141215344262  0.2643141438270513  0.7356859506101302  1.0000
  Se  Se2       1.0  0.735685887540743  0.7356857790553316  0.2643142257044712  1.0000
  Se  Se3       1.0  0.7356858077871884  0.2643141933729041  0.26431411589326503  1.0000
  Se  Se4       1.0  0.2643141690221293  0.7356859287877862  0.7356858068091432  1.0000
  Se  Se5       1.0  0.26431414050342816  0.7356858754939616  0.26431405958239806  1.0000
  Se  Se6       1.0  0.7356858488333488  0.26431412709974345  0.7356858367639276  1.0000
