data_image0
_chemical_formula_structural       Cd2AsS6
_chemical_formula_sum              "Cd2 As1 S6"
_cell_length_a       6.529652105159052
_cell_length_b       6.529652436782433
_cell_length_c       6.529652224221074
_cell_angle_alpha    59.9999996915115
_cell_angle_beta     60.00000102419785
_cell_angle_gamma    60.00000149127881

_space_group_name_H-M_alt    "P 1"
_space_group_IT_number       1

loop_
  _space_group_symop_operation_xyz
  'x, y, z'

loop_
  _atom_site_type_symbol
  _atom_site_label
  _atom_site_symmetry_multiplicity
  _atom_site_fract_x
  _atom_site_fract_y
  _atom_site_fract_z
  _atom_site_occupancy
  Cd  Cd1       1.0  0.24999999690529537  0.2500000175819487  0.25000001279962436  1.0000
  Cd  Cd2       1.0  0.7500000330869049  0.749999994600195  0.7499999436773565  1.0000
  As  As1       1.0  0.9999999778506286  0.9999999868703346  8.502442406212059e-08  1.0000
  S   S1        1.0  0.25408422312874424  0.2540842155378854  0.7459159458843166  1.0000
  S   S2        1.0  0.7459157777477816  0.745915777887588  0.25408437911074083  1.0000
  S   S3        1.0  0.7459156681921643  0.25408422445152573  0.25408420294842476  1.0000
  S   S4        1.0  0.25408415932641054  0.745915864632936  0.7459156539778427  1.0000
  S   S5        1.0  0.2540842896525889  0.7459157253281271  0.25408417346290363  1.0000
  S   S6        1.0  0.7459158403719849  0.2540841724383794  0.7459156462470489  1.0000
