data_image0
_chemical_formula_structural       Cd2BSe6
_chemical_formula_sum              "Cd2 B1 Se6"
_cell_length_a       6.4708967886737945
_cell_length_b       6.47089814591274
_cell_length_c       6.470896881458131
_cell_angle_alpha    60.000001197278316
_cell_angle_beta     59.99999272406288
_cell_angle_gamma    59.99999873921315

_space_group_name_H-M_alt    "P 1"
_space_group_IT_number       1

loop_
  _space_group_symop_operation_xyz
  'x, y, z'

loop_
  _atom_site_type_symbol
  _atom_site_label
  _atom_site_symmetry_multiplicity
  _atom_site_fract_x
  _atom_site_fract_y
  _atom_site_fract_z
  _atom_site_occupancy
  Cd  Cd1       1.0  0.2499998949902987  0.2499999378258403  0.24999990768497882  1.0000
  Cd  Cd2       1.0  0.750000127941665  0.7500001655190943  0.7499997149846979  1.0000
  B   B1        1.0  3.2346801492785172e-09  5.791652448119625e-07  0.9999991246460602  1.0000
  Se  Se1       1.0  0.23295543680461994  0.2329559710415716  0.7670442328792484  1.0000
  Se  Se2       1.0  0.767044892545865  0.7670442837190886  0.23295532004750868  1.0000
  Se  Se3       1.0  0.7670440941561542  0.23295542146129017  0.2329561479563668  1.0000
  Se  Se4       1.0  0.2329558438181876  0.7670440213324332  0.7670446464296469  1.0000
  Se  Se5       1.0  0.23295576486870842  0.7670440735616658  0.23295622300707436  1.0000
  Se  Se6       1.0  0.7670441966064976  0.23295557175061235  0.7670445495466894  1.0000
