data_image0
_chemical_formula_structural       Cd2BiTe6
_chemical_formula_sum              "Cd2 Bi1 Te6"
_cell_length_a       7.682040128801764
_cell_length_b       7.682040201159711
_cell_length_c       7.682040170329171
_cell_angle_alpha    59.9999996472323
_cell_angle_beta     60.000000635625526
_cell_angle_gamma    59.99999721602448

_space_group_name_H-M_alt    "P 1"
_space_group_IT_number       1

loop_
  _space_group_symop_operation_xyz
  'x, y, z'

loop_
  _atom_site_type_symbol
  _atom_site_label
  _atom_site_symmetry_multiplicity
  _atom_site_fract_x
  _atom_site_fract_y
  _atom_site_fract_z
  _atom_site_occupancy
  Cd  Cd1       1.0  0.25000000941640926  0.2500000199388444  0.2499999969871707  1.0000
  Cd  Cd2       1.0  0.7499999839919769  0.7499999896674939  0.7500000455611823  1.0000
  Bi  Bi1       1.0  6.843228295065188e-08  0.99999985332473  1.2503617149818136e-07  1.0000
  Te  Te1       1.0  0.2835680558887867  0.28356798703474184  0.7164320078385094  1.0000
  Te  Te2       1.0  0.7164321019350345  0.7164320975035209  0.28356792935527736  1.0000
  Te  Te3       1.0  0.7164320341372838  0.28356794930344026  0.2835679944419432  1.0000
  Te  Te4       1.0  0.28356803373149736  0.7164318865245901  0.7164321081792675  1.0000
  Te  Te5       1.0  0.28356785084085545  0.7164320863377396  0.2835678597152792  1.0000
  Te  Te6       1.0  0.7164318525231389  0.28356813052714036  0.7164319378437395  1.0000
