data_image0
_chemical_formula_structural       Cd2BTe6
_chemical_formula_sum              "Cd2 B1 Te6"
_cell_length_a       7.414936155050785
_cell_length_b       7.41493637841108
_cell_length_c       7.414936341342571
_cell_angle_alpha    59.999999036441245
_cell_angle_beta     60.0000000965711
_cell_angle_gamma    60.0000000006924

_space_group_name_H-M_alt    "P 1"
_space_group_IT_number       1

loop_
  _space_group_symop_operation_xyz
  'x, y, z'

loop_
  _atom_site_type_symbol
  _atom_site_label
  _atom_site_symmetry_multiplicity
  _atom_site_fract_x
  _atom_site_fract_y
  _atom_site_fract_z
  _atom_site_occupancy
  Cd  Cd1       1.0  0.2500000021560499  0.2500000051383731  0.24999999048746932  1.0000
  Cd  Cd2       1.0  0.7499999888038892  0.7499999889874907  0.7500000299213422  1.0000
  B   B1        1.0  0.9999999904837021  0.9999999818310054  3.272345572953274e-08  1.0000
  Te  Te1       1.0  0.2179758698273915  0.21797584792581318  0.7820241365648878  1.0000
  Te  Te2       1.0  0.782024114258456  0.7820241528069581  0.21797585565630137  1.0000
  Te  Te3       1.0  0.7820241531530783  0.21797586718557604  0.2179758350419643  1.0000
  Te  Te4       1.0  0.21797586354082754  0.7820241385023753  0.782024155929786  1.0000
  Te  Te5       1.0  0.21797587278898925  0.7820241510016377  0.21797582454915423  1.0000
  Te  Te6       1.0  0.78202414160815  0.21797586624840135  0.7820241456063843  1.0000
