data_image0
_chemical_formula_structural       Cd2BS6
_chemical_formula_sum              "Cd2 B1 S6"
_cell_length_a       6.290164786701752
_cell_length_b       6.290164908585618
_cell_length_c       6.290165494111239
_cell_angle_alpha    59.99999940536825
_cell_angle_beta     60.00000155084595
_cell_angle_gamma    60.00000184377842

_space_group_name_H-M_alt    "P 1"
_space_group_IT_number       1

loop_
  _space_group_symop_operation_xyz
  'x, y, z'

loop_
  _atom_site_type_symbol
  _atom_site_label
  _atom_site_symmetry_multiplicity
  _atom_site_fract_x
  _atom_site_fract_y
  _atom_site_fract_z
  _atom_site_occupancy
  Cd  Cd1       1.0  0.2500000916607282  0.2499999900815238  0.25000000127672195  1.0000
  Cd  Cd2       1.0  0.7500000404358426  0.7499999799799608  0.7499998634600895  1.0000
  B   B1        1.0  1.1320405824423249e-07  0.9999999357463912  0.9999999691656454  1.0000
  S   S1        1.0  0.2267440070749356  0.22674409643031282  0.77325602606521  1.0000
  S   S2        1.0  0.7732559375551155  0.773255885313646  0.22674426995680763  1.0000
  S   S3        1.0  0.7732556675957801  0.22674421678502035  0.22674412914139322  1.0000
  S   S4        1.0  0.22674408225975845  0.7732559032015496  0.7732558835490451  1.0000
  S   S5        1.0  0.22674408762784332  0.773255970735732  0.22674397976814512  1.0000
  S   S6        1.0  0.7732559600254268  0.22674399932575004  0.7732558031872178  1.0000
