data_image0
_chemical_formula_structural       Cd2GaO6
_chemical_formula_sum              "Cd2 Ga1 O6"
_cell_length_a       5.233215963338957
_cell_length_b       5.233215779678071
_cell_length_c       5.233216100994787
_cell_angle_alpha    59.999999766889445
_cell_angle_beta     59.99999934260386
_cell_angle_gamma    59.999995565940544

_space_group_name_H-M_alt    "P 1"
_space_group_IT_number       1

loop_
  _space_group_symop_operation_xyz
  'x, y, z'

loop_
  _atom_site_type_symbol
  _atom_site_label
  _atom_site_symmetry_multiplicity
  _atom_site_fract_x
  _atom_site_fract_y
  _atom_site_fract_z
  _atom_site_occupancy
  Cd  Cd1       1.0  0.2499997704152425  0.24999989499567152  0.250000283739858  1.0000
  Cd  Cd2       1.0  0.7500000767308499  0.7500001951787899  0.7499996439416257  1.0000
  Ga  Ga1       1.0  0.9999999457518642  0.9999999906386833  0.9999999687459886  1.0000
  O   O1        1.0  0.2597125479393927  0.2597125453820976  0.7402873940370011  1.0000
  O   O2        1.0  0.7402875078667115  0.740287402032265  0.25971278159253663  1.0000
  O   O3        1.0  0.7402875639491621  0.2597124319830149  0.2597125244999814  1.0000
  O   O4        1.0  0.25971237330320285  0.7402878313758249  0.7402874377819416  1.0000
  O   O5        1.0  0.2597123868471765  0.740287569211396  0.2597125005115956  1.0000
  O   O6        1.0  0.7402877865298135  0.25971219097660203  0.7402874863737918  1.0000
