data_image0
_chemical_formula_structural       Cd2GaSe6
_chemical_formula_sum              "Cd2 Ga1 Se6"
_cell_length_a       6.787097336202052
_cell_length_b       6.787096886624617
_cell_length_c       6.787096882491664
_cell_angle_alpha    60.00000164219667
_cell_angle_beta     60.00000171239046
_cell_angle_gamma    59.999999964608975

_space_group_name_H-M_alt    "P 1"
_space_group_IT_number       1

loop_
  _space_group_symop_operation_xyz
  'x, y, z'

loop_
  _atom_site_type_symbol
  _atom_site_label
  _atom_site_symmetry_multiplicity
  _atom_site_fract_x
  _atom_site_fract_y
  _atom_site_fract_z
  _atom_site_occupancy
  Cd  Cd1       1.0  0.25000002954838385  0.24999995917616272  0.25000002378334485  1.0000
  Cd  Cd2       1.0  0.7499999740523534  0.7500000579804356  0.74999995296419  1.0000
  Ga  Ga1       1.0  5.3822934999392427e-08  3.2481351219090764e-08  0.9999999774752332  1.0000
  Se  Se1       1.0  0.2653477897273031  0.26534777028000545  0.7346522100943782  1.0000
  Se  Se2       1.0  0.7346521525759365  0.734652160259657  0.2653478317700682  1.0000
  Se  Se3       1.0  0.7346522254349199  0.2653477815172284  0.2653478106497343  1.0000
  Se  Se4       1.0  0.26534778579670465  0.7346521923309023  0.734652197197046  1.0000
  Se  Se5       1.0  0.26534778398875625  0.7346522405611237  0.26534781674051133  1.0000
  Se  Se6       1.0  0.7346522107957878  0.2653477928361507  0.7346521931293823  1.0000
