data_image0
_chemical_formula_structural       Cd2GaS6
_chemical_formula_sum              "Cd2 Ga1 S6"
_cell_length_a       6.400709798204482
_cell_length_b       6.4007092286216585
_cell_length_c       6.400709620454752
_cell_angle_alpha    60.000004219421136
_cell_angle_beta     60.000003597902435
_cell_angle_gamma    60.00000305576069

_space_group_name_H-M_alt    "P 1"
_space_group_IT_number       1

loop_
  _space_group_symop_operation_xyz
  'x, y, z'

loop_
  _atom_site_type_symbol
  _atom_site_label
  _atom_site_symmetry_multiplicity
  _atom_site_fract_x
  _atom_site_fract_y
  _atom_site_fract_z
  _atom_site_occupancy
  Cd  Cd1       1.0  0.2500001197097927  0.24999992810467264  0.24999998510588287  1.0000
  Cd  Cd2       1.0  0.7500000512734234  0.7500001612639907  0.7499996864216351  1.0000
  Ga  Ga1       1.0  0.9999999588170735  1.5307611680640285e-08  0.9999999895027557  1.0000
  S   S1        1.0  0.25822815956177303  0.25822830817001885  0.7417718334727114  1.0000
  S   S2        1.0  0.7417717667501706  0.7417717142278452  0.25822826884534616  1.0000
  S   S3        1.0  0.7417717341511041  0.25822825754700746  0.25822827287758177  1.0000
  S   S4        1.0  0.2582283067082971  0.7417716863993343  0.7417717598357234  1.0000
  S   S5        1.0  0.25822814941451355  0.7417717240361912  0.2582283528415001  1.0000
  S   S6        1.0  0.7417717225048786  0.2582282179967006  0.741771849664177  1.0000
