data_image0
_chemical_formula_structural       Cd2IrO6
_chemical_formula_sum              "Cd2 Ir1 O6"
_cell_length_a       5.47228852213291
_cell_length_b       5.472288273590975
_cell_length_c       5.472288590249742
_cell_angle_alpha    59.99999962461392
_cell_angle_beta     59.999997770403404
_cell_angle_gamma    60.00000119750028

_space_group_name_H-M_alt    "P 1"
_space_group_IT_number       1

loop_
  _space_group_symop_operation_xyz
  'x, y, z'

loop_
  _atom_site_type_symbol
  _atom_site_label
  _atom_site_symmetry_multiplicity
  _atom_site_fract_x
  _atom_site_fract_y
  _atom_site_fract_z
  _atom_site_occupancy
  Cd  Cd1       1.0  0.24999989895120323  0.24999992102655533  0.2500000775830759  1.0000
  Cd  Cd2       1.0  0.749999942643935  0.7499999309360824  0.7500000990214155  1.0000
  Ir  Ir1       1.0  2.863393618762785e-07  0.9999995904303952  9.570357250461597e-07  1.0000
  O   O1        1.0  0.24153655022963244  0.24153642263024122  0.75846352032463  1.0000
  O   O2        1.0  0.7584636017566215  0.7584637135692583  0.24153646312704516  1.0000
  O   O3        1.0  0.7584636553683349  0.24153635494815534  0.24153636877867837  1.0000
  O   O4        1.0  0.24153670145386724  0.7584632933487147  0.7584633285973016  1.0000
  O   O5        1.0  0.24153621224197794  0.7584637955401069  0.2415362132119952  1.0000
  O   O6        1.0  0.7584631502203504  0.2415369494185879  0.7584630017492308  1.0000
