data_image0
_chemical_formula_structural       Cd2IrSe6
_chemical_formula_sum              "Cd2 Ir1 Se6"
_cell_length_a       6.72159404265937
_cell_length_b       6.721594076869366
_cell_length_c       6.7215939580895006
_cell_angle_alpha    60.00000035715877
_cell_angle_beta     60.000001118299394
_cell_angle_gamma    59.99999959836932

_space_group_name_H-M_alt    "P 1"
_space_group_IT_number       1

loop_
  _space_group_symop_operation_xyz
  'x, y, z'

loop_
  _atom_site_type_symbol
  _atom_site_label
  _atom_site_symmetry_multiplicity
  _atom_site_fract_x
  _atom_site_fract_y
  _atom_site_fract_z
  _atom_site_occupancy
  Cd  Cd1       1.0  0.2499999964602837  0.2500000267469635  0.24999998497213366  1.0000
  Cd  Cd2       1.0  0.7500000152029429  0.7499999873135462  0.7500000033464511  1.0000
  Ir  Ir1       1.0  0.9999999728083941  1.4576838794246011e-08  0.9999999542364011  1.0000
  Se  Se1       1.0  0.2593431507547316  0.2593432106911894  0.7406568383445669  1.0000
  Se  Se2       1.0  0.7406568713022043  0.7406568288787873  0.25934313648565654  1.0000
  Se  Se3       1.0  0.7406567831172582  0.25934318362062875  0.25934320743436373  1.0000
  Se  Se4       1.0  0.2593432156364574  0.7406567867093662  0.7406568225939149  1.0000
  Se  Se5       1.0  0.2593431916793698  0.7406568019818394  0.25934321885871914  1.0000
  Se  Se6       1.0  0.7406568065711855  0.25934316470394614  0.7406568206819564  1.0000
