data_image0
_chemical_formula_structural       Cd2IrS6
_chemical_formula_sum              "Cd2 Ir1 S6"
_cell_length_a       6.330009434804151
_cell_length_b       6.330009403465202
_cell_length_c       6.330009024310392
_cell_angle_alpha    60.000000846114105
_cell_angle_beta     59.99999936338541
_cell_angle_gamma    60.00000056119877

_space_group_name_H-M_alt    "P 1"
_space_group_IT_number       1

loop_
  _space_group_symop_operation_xyz
  'x, y, z'

loop_
  _atom_site_type_symbol
  _atom_site_label
  _atom_site_symmetry_multiplicity
  _atom_site_fract_x
  _atom_site_fract_y
  _atom_site_fract_z
  _atom_site_occupancy
  Cd  Cd1       1.0  0.2500000519602928  0.24999997207429903  0.24999999445936472  1.0000
  Cd  Cd2       1.0  0.7499999469297501  0.7499999684631207  0.7500000885897524  1.0000
  Ir  Ir1       1.0  4.997343525652451e-08  0.9999998664972043  1.3023216872285236e-07  1.0000
  S   S1        1.0  0.2571098248458147  0.25710990222273994  0.7428901597689781  1.0000
  S   S2        1.0  0.7428901371719365  0.7428901544040672  0.2571098315389638  1.0000
  S   S3        1.0  0.7428900807998455  0.25710993361386486  0.2571098418893585  1.0000
  S   S4        1.0  0.25710996179431245  0.7428901384915281  0.7428899671100762  1.0000
  S   S5        1.0  0.25710991785427056  0.7428901086799594  0.25710987978850847  1.0000
  S   S6        1.0  0.7428900721899379  0.25710991312003156  0.742890116499389  1.0000
