data_image0
_chemical_formula_structural       Cd2PSe6
_chemical_formula_sum              "Cd2 P1 Se6"
_cell_length_a       6.578174744310345
_cell_length_b       6.578174421292814
_cell_length_c       6.578174596326054
_cell_angle_alpha    60.00000026451864
_cell_angle_beta     60.00000025774982
_cell_angle_gamma    60.000000199019276

_space_group_name_H-M_alt    "P 1"
_space_group_IT_number       1

loop_
  _space_group_symop_operation_xyz
  'x, y, z'

loop_
  _atom_site_type_symbol
  _atom_site_label
  _atom_site_symmetry_multiplicity
  _atom_site_fract_x
  _atom_site_fract_y
  _atom_site_fract_z
  _atom_site_occupancy
  Cd  Cd1       1.0  0.2500000294811923  0.25000001340285205  0.2499999770406288  1.0000
  Cd  Cd2       1.0  0.7499999897362735  0.7500000308994  0.749999972968688  1.0000
  P   P1        1.0  0.9999999659212419  7.4473230854185115e-09  0.9999999874726822  1.0000
  Se  Se1       1.0  0.24781854521846922  0.24781849857337315  0.7521814829358437  1.0000
  Se  Se2       1.0  0.7521814510212818  0.7521814619464866  0.24781855389745439  1.0000
  Se  Se3       1.0  0.7521814967553826  0.24781849216983354  0.2478185551789765  1.0000
  Se  Se4       1.0  0.24781852260510104  0.7521814832446746  0.7521814991309166  1.0000
  Se  Se5       1.0  0.2478185077266494  0.7521815037001108  0.24781850454026055  1.0000
  Se  Se6       1.0  0.7521814816681193  0.24781850895101484  0.7521814807665034  1.0000
