data_image0
_chemical_formula_structural       Cd2PS6
_chemical_formula_sum              "Cd2 P1 S6"
_cell_length_a       6.442486385867377
_cell_length_b       6.442486400468
_cell_length_c       6.442486315290762
_cell_angle_alpha    60.00000072340362
_cell_angle_beta     60.000000706535715
_cell_angle_gamma    60.0000015992371

_space_group_name_H-M_alt    "P 1"
_space_group_IT_number       1

loop_
  _space_group_symop_operation_xyz
  'x, y, z'

loop_
  _atom_site_type_symbol
  _atom_site_label
  _atom_site_symmetry_multiplicity
  _atom_site_fract_x
  _atom_site_fract_y
  _atom_site_fract_z
  _atom_site_occupancy
  Cd  Cd1       1.0  0.2500000039721632  0.24999993274381735  0.25000000370645964  1.0000
  Cd  Cd2       1.0  0.7500000029330319  0.7500000187525282  0.7499999394988771  1.0000
  P   P1        1.0  0.9999999190007228  4.942713664692717e-08  0.9999999536982394  1.0000
  S   S1        1.0  0.23838286259212868  0.23838287187374488  0.7616171423943653  1.0000
  S   S2        1.0  0.7616171396225464  0.7616171689716575  0.23838286403101538  1.0000
  S   S3        1.0  0.7616171472495871  0.23838285117064553  0.2383827994916223  1.0000
  S   S4        1.0  0.23838277861902468  0.7616172143883249  0.7616172420631805  1.0000
  S   S5        1.0  0.2383828579437401  0.7616171430334391  0.23838278246144182  1.0000
  S   S6        1.0  0.7616172627474737  0.2383827628378581  0.7616172880917698  1.0000
