data_image0
_chemical_formula_structural       Cd2RuSe6
_chemical_formula_sum              "Cd2 Ru1 Se6"
_cell_length_a       6.730300512728461
_cell_length_b       6.730300816684757
_cell_length_c       6.730300617773419
_cell_angle_alpha    60.00000118879372
_cell_angle_beta     60.000001047705496
_cell_angle_gamma    60.00000224862269

_space_group_name_H-M_alt    "P 1"
_space_group_IT_number       1

loop_
  _space_group_symop_operation_xyz
  'x, y, z'

loop_
  _atom_site_type_symbol
  _atom_site_label
  _atom_site_symmetry_multiplicity
  _atom_site_fract_x
  _atom_site_fract_y
  _atom_site_fract_z
  _atom_site_occupancy
  Cd  Cd1       1.0  0.24999999025314715  0.24999999310828777  0.25000002521096376  1.0000
  Cd  Cd2       1.0  0.7500000203058568  0.7499999902433492  0.750000029056446  1.0000
  Ru  Ru1       1.0  0.9999999853736581  0.9999999872617669  4.4884459679833995e-08  1.0000
  Se  Se1       1.0  0.25770684626534446  0.2577069498680583  0.7422931146363337  1.0000
  Se  Se2       1.0  0.7422931595272164  0.742293073518025  0.2577068893090843  1.0000
  Se  Se3       1.0  0.7422930821453203  0.25770687103630946  0.2577068988422692  1.0000
  Se  Se4       1.0  0.2577068651923771  0.7422931887447244  0.7422930552145777  1.0000
  Se  Se5       1.0  0.2577069191857297  0.7422931376760943  0.2577068212461615  1.0000
  Se  Se6       1.0  0.7422931349936467  0.25770680746084457  0.7422931218537171  1.0000
