data_image0
_chemical_formula_structural       Cd2RuO6
_chemical_formula_sum              "Cd2 Ru1 O6"
_cell_length_a       5.472347336633326
_cell_length_b       5.472347415960256
_cell_length_c       5.472347223212409
_cell_angle_alpha    59.999999318776666
_cell_angle_beta     59.9999987639597
_cell_angle_gamma    60.000001114653564

_space_group_name_H-M_alt    "P 1"
_space_group_IT_number       1

loop_
  _space_group_symop_operation_xyz
  'x, y, z'

loop_
  _atom_site_type_symbol
  _atom_site_label
  _atom_site_symmetry_multiplicity
  _atom_site_fract_x
  _atom_site_fract_y
  _atom_site_fract_z
  _atom_site_occupancy
  Cd  Cd1       1.0  0.250000045947102  0.2499999614225652  0.2500000199677313  1.0000
  Cd  Cd2       1.0  0.749999959699918  0.7499999312669801  0.7500000523794705  1.0000
  Ru  Ru1       1.0  1.999259135104856e-08  0.9999999843335694  1.549906901135341e-07  1.0000
  O   O1        1.0  0.23978017210434785  0.2397801588128707  0.7602198051977579  1.0000
  O   O2        1.0  0.7602197321717418  0.7602198860648398  0.23978010286074958  1.0000
  O   O3        1.0  0.7602198266867559  0.2397802759454628  0.23978020131480737  1.0000
  O   O4        1.0  0.2397802679010809  0.760219710742657  0.7602197430153077  1.0000
  O   O5        1.0  0.2397802296541012  0.7602197670940815  0.2397801960771584  1.0000
  O   O6        1.0  0.7602196984287596  0.23978032030679194  0.7602197720122218  1.0000
