data_image0
_chemical_formula_structural       Cd2RhO6
_chemical_formula_sum              "Cd2 Rh1 O6"
_cell_length_a       5.457048102472036
_cell_length_b       5.457048316657574
_cell_length_c       5.45704844550404
_cell_angle_alpha    59.99999746406351
_cell_angle_beta     59.999996381879015
_cell_angle_gamma    59.99999935090116

_space_group_name_H-M_alt    "P 1"
_space_group_IT_number       1

loop_
  _space_group_symop_operation_xyz
  'x, y, z'

loop_
  _atom_site_type_symbol
  _atom_site_label
  _atom_site_symmetry_multiplicity
  _atom_site_fract_x
  _atom_site_fract_y
  _atom_site_fract_z
  _atom_site_occupancy
  Cd  Cd1       1.0  0.24999996545749817  0.25000001611633416  0.2500000574606955  1.0000
  Cd  Cd2       1.0  0.7500000749290093  0.7499999316435435  0.7500000168470723  1.0000
  Rh  Rh1       1.0  1.0135438185499647e-07  0.9999999371585984  0.9999999642510776  1.0000
  O   O1        1.0  0.2476720504120357  0.24767216601045378  0.7523278589603385  1.0000
  O   O2        1.0  0.7523279522058319  0.7523278760115291  0.2476720679886875  1.0000
  O   O3        1.0  0.7523278227291095  0.24767224914693073  0.24767205550075613  1.0000
  O   O4        1.0  0.24767210225751585  0.7523279432455493  0.7523279193732932  1.0000
  O   O5        1.0  0.24767214700073492  0.7523278134463404  0.24767211588824684  1.0000
  O   O6        1.0  0.752327888812789  0.24767207820514295  0.7523279282879601  1.0000
