data_image0
_chemical_formula_structural       Cd2RhS6
_chemical_formula_sum              "Cd2 Rh1 S6"
_cell_length_a       6.2906119357802766
_cell_length_b       6.29061192333854
_cell_length_c       6.2906121605022545
_cell_angle_alpha    59.99999652578381
_cell_angle_beta     59.99999791973563
_cell_angle_gamma    59.999998227896626

_space_group_name_H-M_alt    "P 1"
_space_group_IT_number       1

loop_
  _space_group_symop_operation_xyz
  'x, y, z'

loop_
  _atom_site_type_symbol
  _atom_site_label
  _atom_site_symmetry_multiplicity
  _atom_site_fract_x
  _atom_site_fract_y
  _atom_site_fract_z
  _atom_site_occupancy
  Cd  Cd1       1.0  0.2500000212974057  0.24999990906103078  0.2500000717965083  1.0000
  Cd  Cd2       1.0  0.7500000699491779  0.7500000834732645  0.7499999547324321  1.0000
  Rh  Rh1       1.0  0.9999999846280644  6.814293087678675e-08  0.999999875054936  1.0000
  S   S1        1.0  0.2587160021899515  0.25871603877374577  0.7412839924030111  1.0000
  S   S2        1.0  0.741283993882506  0.7412840355320641  0.25871601698217817  1.0000
  S   S3        1.0  0.7412839486985007  0.25871594274243687  0.258716066197923  1.0000
  S   S4        1.0  0.25871603699355095  0.7412839699672856  0.7412839926130964  1.0000
  S   S5        1.0  0.25871591388019677  0.7412839999814052  0.2587160072213474  1.0000
  S   S6        1.0  0.7412840475959942  0.25871596334877917  0.7412840145423143  1.0000
