data_image0
_chemical_formula_structural       Cd2SbO6
_chemical_formula_sum              "Cd2 Sb1 O6"
_cell_length_a       5.506023973893593
_cell_length_b       5.5060245844298
_cell_length_c       5.506024333477682
_cell_angle_alpha    59.999994144639345
_cell_angle_beta     59.999993412332636
_cell_angle_gamma    59.99999396668342

_space_group_name_H-M_alt    "P 1"
_space_group_IT_number       1

loop_
  _space_group_symop_operation_xyz
  'x, y, z'

loop_
  _atom_site_type_symbol
  _atom_site_label
  _atom_site_symmetry_multiplicity
  _atom_site_fract_x
  _atom_site_fract_y
  _atom_site_fract_z
  _atom_site_occupancy
  Cd  Cd1       1.0  0.25000006167429284  0.2500000233838009  0.24999993033822984  1.0000
  Cd  Cd2       1.0  0.750000042183482  0.7500000456833115  0.7499998819332097  1.0000
  Sb  Sb1       1.0  0.9999999980518812  0.9999999555125496  4.319590440819748e-08  1.0000
  O   O1        1.0  0.25502338055805046  0.25502350810334723  0.7449765595565248  1.0000
  O   O2        1.0  0.7449765844619496  0.7449766566117783  0.2550234014432687  1.0000
  O   O3        1.0  0.7449765663297928  0.2550233652041492  0.25502353264750927  1.0000
  O   O4        1.0  0.25502345654572367  0.7449765881955859  0.7449765740975454  1.0000
  O   O5        1.0  0.25502340848923233  0.7449764896569654  0.25502346037457346  1.0000
  O   O6        1.0  0.7449765125596595  0.25502334140229765  0.744976627688181  1.0000
