data_image0
_chemical_formula_structural       Cd2SbS6
_chemical_formula_sum              "Cd2 Sb1 S6"
_cell_length_a       6.718214620736091
_cell_length_b       6.718214774350443
_cell_length_c       6.718214840179662
_cell_angle_alpha    60.000000299193054
_cell_angle_beta     60.00000156421563
_cell_angle_gamma    60.00000007932536

_space_group_name_H-M_alt    "P 1"
_space_group_IT_number       1

loop_
  _space_group_symop_operation_xyz
  'x, y, z'

loop_
  _atom_site_type_symbol
  _atom_site_label
  _atom_site_symmetry_multiplicity
  _atom_site_fract_x
  _atom_site_fract_y
  _atom_site_fract_z
  _atom_site_occupancy
  Cd  Cd1       1.0  0.2500000396105863  0.2500000547732421  0.24999994110741638  1.0000
  Cd  Cd2       1.0  0.750000052220191  0.7499999619643616  0.7499999414323159  1.0000
  Sb  Sb1       1.0  0.9999999656068924  3.099136246544526e-08  2.551672247677395e-08  1.0000
  S   S1        1.0  0.25808522608148926  0.25808524207939726  0.7419147931059641  1.0000
  S   S2        1.0  0.7419147251236717  0.7419147582510153  0.25808531382225336  1.0000
  S   S3        1.0  0.7419147534134295  0.2580852680663339  0.25808520965722653  1.0000
  S   S4        1.0  0.258085288001382  0.741914688511567  0.7419147341243014  1.0000
  S   S5        1.0  0.25808520647449196  0.7419147190963532  0.25808528296714167  1.0000
  S   S6        1.0  0.7419147281507311  0.25808527941103837  0.7419147706459474  1.0000
