data_image0
_chemical_formula_structural       Cd2SbSe6
_chemical_formula_sum              "Cd2 Sb1 Se6"
_cell_length_a       6.965015340695898
_cell_length_b       6.9650152822328435
_cell_length_c       6.965015290431852
_cell_angle_alpha    60.00000068254399
_cell_angle_beta     60.00000044757938
_cell_angle_gamma    60.00000017652881

_space_group_name_H-M_alt    "P 1"
_space_group_IT_number       1

loop_
  _space_group_symop_operation_xyz
  'x, y, z'

loop_
  _atom_site_type_symbol
  _atom_site_label
  _atom_site_symmetry_multiplicity
  _atom_site_fract_x
  _atom_site_fract_y
  _atom_site_fract_z
  _atom_site_occupancy
  Cd  Cd1       1.0  0.2500000065477628  0.24999998772830082  0.2500000239713101  1.0000
  Cd  Cd2       1.0  0.7499999845265755  0.7499999790107165  0.7500000657661623  1.0000
  Sb  Sb1       1.0  0.9999999884122496  0.999999970106795  0.9999999590033554  1.0000
  Se  Se1       1.0  0.26752416468701856  0.2675241616517886  0.7324758228563476  1.0000
  Se  Se2       1.0  0.7324758490772452  0.7324758613567895  0.2675241283348372  1.0000
  Se  Se3       1.0  0.7324758506005721  0.2675241892973091  0.26752412684745297  1.0000
  Se  Se4       1.0  0.26752413514673123  0.7324758829471358  0.7324758582424366  1.0000
  Se  Se5       1.0  0.2675241672323187  0.732475828516983  0.26752414928730933  1.0000
  Se  Se6       1.0  0.7324758603148922  0.2675241382220338  0.7324758676553401  1.0000
