data_image0
_chemical_formula_structural       Cd2SbTe6
_chemical_formula_sum              "Cd2 Sb1 Te6"
_cell_length_a       7.545359586379087
_cell_length_b       7.545359704027291
_cell_length_c       7.545359445750769
_cell_angle_alpha    60.000000426591946
_cell_angle_beta     60.00000051014307
_cell_angle_gamma    59.999998919753224

_space_group_name_H-M_alt    "P 1"
_space_group_IT_number       1

loop_
  _space_group_symop_operation_xyz
  'x, y, z'

loop_
  _atom_site_type_symbol
  _atom_site_label
  _atom_site_symmetry_multiplicity
  _atom_site_fract_x
  _atom_site_fract_y
  _atom_site_fract_z
  _atom_site_occupancy
  Cd  Cd1       1.0  0.24999999832199624  0.24999999318813418  0.2500000473902851  1.0000
  Cd  Cd2       1.0  0.7500000123249179  0.7500000055352236  0.7499999561665593  1.0000
  Sb  Sb1       1.0  1.2041172376888486e-08  3.733305389582471e-08  0.9999999448305747  1.0000
  Te  Te1       1.0  0.2762213330431452  0.27622133002164373  0.7237786487810004  1.0000
  Te  Te2       1.0  0.723778513193814  0.7237785696879655  0.2762214825117427  1.0000
  Te  Te3       1.0  0.7237785855354679  0.27622144353424444  0.2762214162137381  1.0000
  Te  Te4       1.0  0.2762214788273376  0.7237786006380477  0.7237785231821962  1.0000
  Te  Te5       1.0  0.27622145650211627  0.7237785634592846  0.2762214253672875  1.0000
  Te  Te6       1.0  0.7237786068873304  0.27622145149583466  0.7237785596062247  1.0000
