data_image0
_chemical_formula_structural       Cd2TaO6
_chemical_formula_sum              "Cd2 Ta1 O6"
_cell_length_a       5.4921668285187915
_cell_length_b       5.492166088115703
_cell_length_c       5.492166050375349
_cell_angle_alpha    60.000006198396925
_cell_angle_beta     60.00000048056396
_cell_angle_gamma    59.99999898410638

_space_group_name_H-M_alt    "P 1"
_space_group_IT_number       1

loop_
  _space_group_symop_operation_xyz
  'x, y, z'

loop_
  _atom_site_type_symbol
  _atom_site_label
  _atom_site_symmetry_multiplicity
  _atom_site_fract_x
  _atom_site_fract_y
  _atom_site_fract_z
  _atom_site_occupancy
  Cd  Cd1       1.0  0.24999990824961923  0.2500000163556913  0.2500000127755883  1.0000
  Cd  Cd2       1.0  0.7499999428716192  0.7500001137366346  0.7499998951098245  1.0000
  Ta  Ta1       1.0  0.9999999266474271  2.4529854464569535e-08  2.3380051611709085e-07  1.0000
  O   O1        1.0  0.25337035141397196  0.2533701853886075  0.7466297986368755  1.0000
  O   O2        1.0  0.7466297028615623  0.7466298019846855  0.25337024290066534  1.0000
  O   O3        1.0  0.746629914936724  0.2533700757346762  0.25337026049615813  1.0000
  O   O4        1.0  0.253370367489334  0.7466297443897283  0.7466296722972146  1.0000
  O   O5        1.0  0.25337019010852385  0.7466297968204803  0.2533702602494698  1.0000
  O   O6        1.0  0.7466297089026868  0.25337028421217456  0.7466296555038899  1.0000
