data_image0
_chemical_formula_structural       Cd2TlSe6
_chemical_formula_sum              "Cd2 Tl1 Se6"
_cell_length_a       7.083001536087814
_cell_length_b       7.08299904683186
_cell_length_c       7.083003360385059
_cell_angle_alpha    59.99998026144862
_cell_angle_beta     60.00000153261257
_cell_angle_gamma    59.99997446250541

_space_group_name_H-M_alt    "P 1"
_space_group_IT_number       1

loop_
  _space_group_symop_operation_xyz
  'x, y, z'

loop_
  _atom_site_type_symbol
  _atom_site_label
  _atom_site_symmetry_multiplicity
  _atom_site_fract_x
  _atom_site_fract_y
  _atom_site_fract_z
  _atom_site_occupancy
  Cd  Cd1       1.0  0.24999991066201235  0.24999957406786727  0.25000017854195994  1.0000
  Cd  Cd2       1.0  0.7499998073851087  0.7500008386632602  0.7499995964097098  1.0000
  Tl  Tl1       1.0  1.1671909122939387e-07  0.9999999775212569  0.9999996931030273  1.0000
  Se  Se1       1.0  0.30846063517697436  0.30846146662054036  0.6915388477774422  1.0000
  Se  Se2       1.0  0.6915393224706775  0.6915386919279113  0.3084606845713235  1.0000
  Se  Se3       1.0  0.6915391754516697  0.3084611904839453  0.3084607378437773  1.0000
  Se  Se4       1.0  0.3084615782663674  0.6915379150219535  0.6915397234990088  1.0000
  Se  Se5       1.0  0.30846137091558595  0.6915384500044885  0.30846117867095585  1.0000
  Se  Se6       1.0  0.6915380783734362  0.3084618935612999  0.6915393963306348  1.0000
