data_image0
_chemical_formula_structural       Cd2TlS6
_chemical_formula_sum              "Cd2 Tl1 S6"
_cell_length_a       6.668664154668872
_cell_length_b       6.668664038457639
_cell_length_c       6.668663920075965
_cell_angle_alpha    60.00000009599668
_cell_angle_beta     60.00000142929247
_cell_angle_gamma    59.99999938620475

_space_group_name_H-M_alt    "P 1"
_space_group_IT_number       1

loop_
  _space_group_symop_operation_xyz
  'x, y, z'

loop_
  _atom_site_type_symbol
  _atom_site_label
  _atom_site_symmetry_multiplicity
  _atom_site_fract_x
  _atom_site_fract_y
  _atom_site_fract_z
  _atom_site_occupancy
  Cd  Cd1       1.0  0.24999990036258288  0.2500000281102441  0.25000001283832674  1.0000
  Cd  Cd2       1.0  0.749999961798905  0.7499999723001395  0.749999917688626  1.0000
  Tl  Tl1       1.0  0.9999999775770977  2.571193913342961e-08  0.9999999998550322  1.0000
  S   S1        1.0  0.2746523098045634  0.2746523268844326  0.7253477291613949  1.0000
  S   S2        1.0  0.7253477749563573  0.7253475927169963  0.2746524378782238  1.0000
  S   S3        1.0  0.7253477309516282  0.2746522774890682  0.27465230617092046  1.0000
  S   S4        1.0  0.27465236610404203  0.7253476935362402  0.7253476040767706  1.0000
  S   S5        1.0  0.27465223677335704  0.7253477350662874  0.27465232789177846  1.0000
  S   S6        1.0  0.7253477345256162  0.27465235349931394  0.7253476449465934  1.0000
