data_image0
_chemical_formula_structural       Cd2TaSe6
_chemical_formula_sum              "Cd2 Ta1 Se6"
_cell_length_a       6.8307189422522105
_cell_length_b       6.830719194329115
_cell_length_c       6.830719127858338
_cell_angle_alpha    59.99999881208781
_cell_angle_beta     59.999998784874755
_cell_angle_gamma    60.00000056874442

_space_group_name_H-M_alt    "P 1"
_space_group_IT_number       1

loop_
  _space_group_symop_operation_xyz
  'x, y, z'

loop_
  _atom_site_type_symbol
  _atom_site_label
  _atom_site_symmetry_multiplicity
  _atom_site_fract_x
  _atom_site_fract_y
  _atom_site_fract_z
  _atom_site_occupancy
  Cd  Cd1       1.0  0.24999998616121005  0.2500000191682856  0.25000002844525804  1.0000
  Cd  Cd2       1.0  0.7500000212706421  0.7499999857850389  0.7499999931798473  1.0000
  Ta  Ta1       1.0  0.9999999955790866  0.9999999067642346  1.662089707356562e-08  1.0000
  Se  Se1       1.0  0.26078948968030563  0.26078954101363533  0.7392104916153172  1.0000
  Se  Se2       1.0  0.7392105162309942  0.739210514143563  0.2607895144519751  1.0000
  Se  Se3       1.0  0.7392104547757024  0.26078953995091053  0.26078948472947067  1.0000
  Se  Se4       1.0  0.26078951464585215  0.7392105080343064  0.7392104831457222  1.0000
  Se  Se5       1.0  0.26078952160640106  0.7392104815841086  0.26078953474106226  1.0000
  Se  Se6       1.0  0.739210493782591  0.26078951978322573  0.7392104422432019  1.0000
