data_image0
_chemical_formula_structural       Cd2TaTe6
_chemical_formula_sum              "Cd2 Ta1 Te6"
_cell_length_a       7.3656026762470175
_cell_length_b       7.36560291077495
_cell_length_c       7.365602570849942
_cell_angle_alpha    59.99999882136958
_cell_angle_beta     59.99999892576293
_cell_angle_gamma    59.99999735422439

_space_group_name_H-M_alt    "P 1"
_space_group_IT_number       1

loop_
  _space_group_symop_operation_xyz
  'x, y, z'

loop_
  _atom_site_type_symbol
  _atom_site_label
  _atom_site_symmetry_multiplicity
  _atom_site_fract_x
  _atom_site_fract_y
  _atom_site_fract_z
  _atom_site_occupancy
  Cd  Cd1       1.0  0.2499999724564661  0.24999996538755542  0.250000054890112  1.0000
  Cd  Cd2       1.0  0.7499999677392906  0.7500000225346862  0.7500000247082141  1.0000
  Ta  Ta1       1.0  2.20754343270637e-08  0.9999999384767768  1.1340258543941444e-07  1.0000
  Te  Te1       1.0  0.26433467231214935  0.2643346134873492  0.7356652602408443  1.0000
  Te  Te2       1.0  0.7356653443528244  0.7356653378535206  0.2643346174868277  1.0000
  Te  Te3       1.0  0.7356653879180627  0.2643346763284351  0.2643346156757777  1.0000
  Te  Te4       1.0  0.26433460195207864  0.7356653648030775  0.7356653798968266  1.0000
  Te  Te5       1.0  0.26433470206186044  0.735665349896711  0.2643346326302591  1.0000
  Te  Te6       1.0  0.735665341916772  0.26433473114175476  0.7356652819930674  1.0000
