data_image0
_chemical_formula_structural       Cd2TlO6
_chemical_formula_sum              "Cd2 Tl1 O6"
_cell_length_a       5.529666702844638
_cell_length_b       5.5296666950828115
_cell_length_c       5.529666465035467
_cell_angle_alpha    60.000001095981624
_cell_angle_beta     60.000001152083435
_cell_angle_gamma    59.99999984593585

_space_group_name_H-M_alt    "P 1"
_space_group_IT_number       1

loop_
  _space_group_symop_operation_xyz
  'x, y, z'

loop_
  _atom_site_type_symbol
  _atom_site_label
  _atom_site_symmetry_multiplicity
  _atom_site_fract_x
  _atom_site_fract_y
  _atom_site_fract_z
  _atom_site_occupancy
  Cd  Cd1       1.0  0.24999992990689598  0.24999997518667708  0.2500000351067448  1.0000
  Cd  Cd2       1.0  0.7500000024629228  0.7499999388492014  0.7499999579444119  1.0000
  Tl  Tl1       1.0  0.9999999377342531  0.9999999800662427  4.109975231275224e-08  1.0000
  O   O1        1.0  0.27607985776042865  0.276079925146091  0.7239200811689847  1.0000
  O   O2        1.0  0.7239201607282078  0.7239201815827802  0.2760798213038041  1.0000
  O   O3        1.0  0.7239201433896256  0.27607983704254846  0.2760798774789168  1.0000
  O   O4        1.0  0.27607993749515886  0.7239200637041563  0.7239201691239752  1.0000
  O   O5        1.0  0.27607978821105716  0.7239202019903676  0.2760799159638266  1.0000
  O   O6        1.0  0.7239202596389361  0.27607989809391725  0.7239200456792431  1.0000
