data_image0
_chemical_formula_structural       Cd2TlTe6
_chemical_formula_sum              "Cd2 Tl1 Te6"
_cell_length_a       7.882291281132284
_cell_length_b       7.882291433872887
_cell_length_c       7.882292424899699
_cell_angle_alpha    59.9999987069439
_cell_angle_beta     59.99999645002016
_cell_angle_gamma    59.99999250601666

_space_group_name_H-M_alt    "P 1"
_space_group_IT_number       1

loop_
  _space_group_symop_operation_xyz
  'x, y, z'

loop_
  _atom_site_type_symbol
  _atom_site_label
  _atom_site_symmetry_multiplicity
  _atom_site_fract_x
  _atom_site_fract_y
  _atom_site_fract_z
  _atom_site_occupancy
  Cd  Cd1       1.0  0.2499999979858973  0.25000003891747935  0.250000048641662  1.0000
  Cd  Cd2       1.0  0.7499999974664752  0.7500000095407195  0.7500001102384656  1.0000
  Tl  Tl1       1.0  0.999999982954017  0.999999972031724  0.9999998931031502  1.0000
  Te  Te1       1.0  0.30009986164095365  0.3000998321301866  0.6999001732461217  1.0000
  Te  Te2       1.0  0.6999001639681571  0.6999002225431769  0.3000997885660845  1.0000
  Te  Te3       1.0  0.6998999112833384  0.30010002052064755  0.30009959947745835  1.0000
  Te  Te4       1.0  0.3001001286527415  0.6998998461437616  0.6999003616377512  1.0000
  Te  Te5       1.0  0.30009999949460586  0.6999000339284308  0.3000996689990457  1.0000
  Te  Te6       1.0  0.6998999463126198  0.3001000316214898  0.6999003399624885  1.0000
