data_image0
_chemical_formula_structural       Cd2TaS6
_chemical_formula_sum              "Cd2 Ta1 S6"
_cell_length_a       6.413048157441805
_cell_length_b       6.413048497178681
_cell_length_c       6.413048138436562
_cell_angle_alpha    59.99999829644463
_cell_angle_beta     60.00000129055248
_cell_angle_gamma    59.99999942104153

_space_group_name_H-M_alt    "P 1"
_space_group_IT_number       1

loop_
  _space_group_symop_operation_xyz
  'x, y, z'

loop_
  _atom_site_type_symbol
  _atom_site_label
  _atom_site_symmetry_multiplicity
  _atom_site_fract_x
  _atom_site_fract_y
  _atom_site_fract_z
  _atom_site_occupancy
  Cd  Cd1       1.0  0.2500000321124596  0.24999996190871637  0.2500000173614086  1.0000
  Cd  Cd2       1.0  0.749999928574212  0.7500000595152402  0.750000025681444  1.0000
  Ta  Ta1       1.0  0.9999999737001001  5.729311085941938e-08  0.9999998831475342  1.0000
  S   S1        1.0  0.26260534287513854  0.2626053928938304  0.7373946588590043  1.0000
  S   S2        1.0  0.7373945604841622  0.7373946762743809  0.26260540456861325  1.0000
  S   S3        1.0  0.737394615820244  0.2626053953031231  0.2626052956637182  1.0000
  S   S4        1.0  0.2626053719838766  0.7373946203915267  0.7373946478037721  1.0000
  S   S5        1.0  0.26260537888586405  0.7373946473892274  0.26260533031044103  1.0000
  S   S6        1.0  0.737394800069819  0.2626052269824205  0.7373947005138793  1.0000
