data_image0
_chemical_formula_structural       Cl2AsO6
_chemical_formula_sum              "Cl2 As1 O6"
_cell_length_a       5.970946817247394
_cell_length_b       5.970946646852834
_cell_length_c       5.97094751668179
_cell_angle_alpha    59.99999444722675
_cell_angle_beta     59.99999645577863
_cell_angle_gamma    59.999998547360676

_space_group_name_H-M_alt    "P 1"
_space_group_IT_number       1

loop_
  _space_group_symop_operation_xyz
  'x, y, z'

loop_
  _atom_site_type_symbol
  _atom_site_label
  _atom_site_symmetry_multiplicity
  _atom_site_fract_x
  _atom_site_fract_y
  _atom_site_fract_z
  _atom_site_occupancy
  Cl  Cl1       1.0  0.24999998744946555  0.2500001566627859  0.24999997937819876  1.0000
  Cl  Cl2       1.0  0.7500001161093632  0.7499999448878691  0.7499999194816804  1.0000
  As  As1       1.0  3.029837038530745e-08  0.9999999323112653  6.971750132604949e-09  1.0000
  O   O1        1.0  0.21740028709850737  0.21740046211667452  0.7825996453831624  1.0000
  O   O2        1.0  0.7825995898864324  0.7825995881546286  0.21740045437005154  1.0000
  O   O3        1.0  0.7825995869105258  0.21740035293853313  0.21740034091610783  1.0000
  O   O4        1.0  0.21740031406515223  0.7825995209318245  0.7825997060844534  1.0000
  O   O5        1.0  0.2174003956632862  0.7825995837728039  0.2174003266240503  1.0000
  O   O6        1.0  0.7825996729318603  0.21740039060507424  0.7825996449301786  1.0000
