data_image0
_chemical_formula_structural       Cl2BiO6
_chemical_formula_sum              "Cl2 Bi1 O6"
_cell_length_a       5.963795150575567
_cell_length_b       5.963795588685994
_cell_length_c       5.963795021338961
_cell_angle_alpha    60.00000081998816
_cell_angle_beta     60.00000114204578
_cell_angle_gamma    60.00000194621443

_space_group_name_H-M_alt    "P 1"
_space_group_IT_number       1

loop_
  _space_group_symop_operation_xyz
  'x, y, z'

loop_
  _atom_site_type_symbol
  _atom_site_label
  _atom_site_symmetry_multiplicity
  _atom_site_fract_x
  _atom_site_fract_y
  _atom_site_fract_z
  _atom_site_occupancy
  Cl  Cl1       1.0  0.2500000173888355  0.24999996826005844  0.2500000688647855  1.0000
  Cl  Cl2       1.0  0.7499999360323074  0.7500000382663372  0.7500000067649212  1.0000
  Bi  Bi1       1.0  0.9999999605716241  3.696539647613643e-08  2.6383258789728434e-08  1.0000
  O   O1        1.0  0.24497793526547124  0.24497786003459024  0.755022127109862  1.0000
  O   O2        1.0  0.7550220825195415  0.7550221218482103  0.24497782805262863  1.0000
  O   O3        1.0  0.7550220830896979  0.24497793364427448  0.24497788622521902  1.0000
  O   O4        1.0  0.2449779314873414  0.7550220810966557  0.7550220993853786  1.0000
  O   O5        1.0  0.24497795212041057  0.7550220707269463  0.2449778960349157  1.0000
  O   O6        1.0  0.7550220817211707  0.24497791526311932  0.7550220909652744  1.0000
