data_image0
_chemical_formula_structural       Cl2NO6
_chemical_formula_sum              "Cl2 N1 O6"
_cell_length_a       5.485301185015785
_cell_length_b       5.485300939659818
_cell_length_c       5.485300446379341
_cell_angle_alpha    60.0000021485551
_cell_angle_beta     60.00000464212029
_cell_angle_gamma    60.00000029486384

_space_group_name_H-M_alt    "P 1"
_space_group_IT_number       1

loop_
  _space_group_symop_operation_xyz
  'x, y, z'

loop_
  _atom_site_type_symbol
  _atom_site_label
  _atom_site_symmetry_multiplicity
  _atom_site_fract_x
  _atom_site_fract_y
  _atom_site_fract_z
  _atom_site_occupancy
  Cl  Cl1       1.0  0.24999991459368281  0.24999983487347535  0.2499994617098132  1.0000
  Cl  Cl2       1.0  0.7500001067376006  0.7500001208665994  0.749999328448672  1.0000
  N   N1        1.0  8.54801942622355e-08  0.9999999330167282  0.9999989388492677  1.0000
  O   O1        1.0  0.20292087620605478  0.2029209612098121  0.7970794218840181  1.0000
  O   O2        1.0  0.7970791730421283  0.7970791128673741  0.20292119294687963  1.0000
  O   O3        1.0  0.7970790320825354  0.20292104133792233  0.20292122292587955  1.0000
  O   O4        1.0  0.20292074233391663  0.7970791309814129  0.7970794637923205  1.0000
  O   O5        1.0  0.20292105865813456  0.7970789806735682  0.20292123177130533  1.0000
  O   O6        1.0  0.797079110816928  0.20292089691932458  0.7970793756119461  1.0000
