data_image0
_chemical_formula_structural       Cl2SbO6
_chemical_formula_sum              "Cl2 Sb1 O6"
_cell_length_a       5.872439245974712
_cell_length_b       5.872438633613356
_cell_length_c       5.872439217217156
_cell_angle_alpha    60.00000048482608
_cell_angle_beta     59.99999876234901
_cell_angle_gamma    59.999999822751384

_space_group_name_H-M_alt    "P 1"
_space_group_IT_number       1

loop_
  _space_group_symop_operation_xyz
  'x, y, z'

loop_
  _atom_site_type_symbol
  _atom_site_label
  _atom_site_symmetry_multiplicity
  _atom_site_fract_x
  _atom_site_fract_y
  _atom_site_fract_z
  _atom_site_occupancy
  Cl  Cl1       1.0  0.25000003317332065  0.24999996236526317  0.2500000903910988  1.0000
  Cl  Cl2       1.0  0.749999904078738  0.7500000310008936  0.7500001215457623  1.0000
  Sb  Sb1       1.0  8.87731093911613e-09  5.0053955349267625e-08  9.700375957131641e-09  1.0000
  O   O1        1.0  0.24164971690882653  0.24164987939179064  0.758350136839007  1.0000
  O   O2        1.0  0.7583503885117077  0.7583501285734233  0.24164966187167497  1.0000
  O   O3        1.0  0.7583501474172285  0.241649852888616  0.24164968275577675  1.0000
  O   O4        1.0  0.24164977676589575  0.7583501383919505  0.758350357957007  1.0000
  O   O5        1.0  0.24164978513907953  0.7583501469324592  0.24164968598305092  1.0000
  O   O6        1.0  0.7583502992894114  0.24164975883927128  0.7583502764925857  1.0000
