data_image0
_chemical_formula_structural       Cl2YO6
_chemical_formula_sum              "Cl2 Y1 O6"
_cell_length_a       5.689599517853977
_cell_length_b       5.689599497136914
_cell_length_c       5.689599072194948
_cell_angle_alpha    59.999999851852074
_cell_angle_beta     60.00000002711678
_cell_angle_gamma    59.99999833890604

_space_group_name_H-M_alt    "P 1"
_space_group_IT_number       1

loop_
  _space_group_symop_operation_xyz
  'x, y, z'

loop_
  _atom_site_type_symbol
  _atom_site_label
  _atom_site_symmetry_multiplicity
  _atom_site_fract_x
  _atom_site_fract_y
  _atom_site_fract_z
  _atom_site_occupancy
  Cl  Cl1       1.0  0.2499999375525841  0.2500000900995332  0.24999999815877677  1.0000
  Cl  Cl2       1.0  0.750000022705215  0.7499999689341805  0.749999987407018  1.0000
  Y   Y1        1.0  3.589421359285188e-08  6.888329528552333e-08  0.9999999142169749  1.0000
  O   O1        1.0  0.2875745037496067  0.28757449413122643  0.7124254894098686  1.0000
  O   O2        1.0  0.7124254997853503  0.7124254594249405  0.28757453077130785  1.0000
  O   O3        1.0  0.7124255023073595  0.2875744673256734  0.28757455641469304  1.0000
  O   O4        1.0  0.2875744595297402  0.7124255443507741  0.7124254854343539  1.0000
  O   O5        1.0  0.287574487888252  0.7124254861165198  0.2875745733863503  1.0000
  O   O6        1.0  0.7124255262654876  0.28757447820266163  0.7124254484070787  1.0000
