data_image0
_chemical_formula_structural       Co2AsN6
_chemical_formula_sum              "Co2 As1 N6"
_cell_length_a       4.814326857341368
_cell_length_b       4.814326774121105
_cell_length_c       4.814326873812894
_cell_angle_alpha    59.999997998462646
_cell_angle_beta     59.999997841680994
_cell_angle_gamma    59.999998828039956

_space_group_name_H-M_alt    "P 1"
_space_group_IT_number       1

loop_
  _space_group_symop_operation_xyz
  'x, y, z'

loop_
  _atom_site_type_symbol
  _atom_site_label
  _atom_site_symmetry_multiplicity
  _atom_site_fract_x
  _atom_site_fract_y
  _atom_site_fract_z
  _atom_site_occupancy
  Co  Co1       1.0  0.24999999569767  0.24999956587192063  0.2500006746299514  1.0000
  Co  Co2       1.0  0.750000444646834  0.7499999009082859  0.7499999409551142  1.0000
  As  As1       1.0  0.9999999825082333  0.999999994912082  4.8678247037658096e-08  1.0000
  N   N1        1.0  0.2803633915710494  0.2803636746509235  0.7196362741092389  1.0000
  N   N2        1.0  0.719636305792755  0.7196365604048419  0.28036357482891233  1.0000
  N   N3        1.0  0.7196363353534587  0.2803635285005407  0.28036357713525123  1.0000
  N   N4        1.0  0.2803632920390007  0.7196369380554761  0.7196360684875647  1.0000
  N   N5        1.0  0.2803633930296502  0.7196364247931095  0.2803636856550129  1.0000
  N   N6        1.0  0.7196368697491148  0.2803634235809209  0.7196361445390625  1.0000
