data_image0
_chemical_formula_structural       Co2AsS6
_chemical_formula_sum              "Co2 As1 S6"
_cell_length_a       6.38731831760473
_cell_length_b       6.387318441251235
_cell_length_c       6.387318568628631
_cell_angle_alpha    59.99999692155546
_cell_angle_beta     59.99999813535433
_cell_angle_gamma    59.999998584886306

_space_group_name_H-M_alt    "P 1"
_space_group_IT_number       1

loop_
  _space_group_symop_operation_xyz
  'x, y, z'

loop_
  _atom_site_type_symbol
  _atom_site_label
  _atom_site_symmetry_multiplicity
  _atom_site_fract_x
  _atom_site_fract_y
  _atom_site_fract_z
  _atom_site_occupancy
  Co  Co1       1.0  0.25000023303493324  0.24999991128514792  0.24999988238776924  1.0000
  Co  Co2       1.0  0.7500001600444224  0.7500001307703527  0.7499999499451624  1.0000
  As  As1       1.0  7.264105705303088e-08  0.9999999827428285  2.3972929787205286e-08  1.0000
  S   S1        1.0  0.2600723155269784  0.26007230108659984  0.739927665691301  1.0000
  S   S2        1.0  0.7399276566635403  0.7399277237117367  0.26007212425906623  1.0000
  S   S3        1.0  0.7399275673638981  0.2600723116123324  0.2600724190932246  1.0000
  S   S4        1.0  0.260072301437346  0.7399275732111735  0.7399276960674842  1.0000
  S   S5        1.0  0.2600722045065962  0.7399277962658501  0.2600724328823049  1.0000
  S   S6        1.0  0.7399274970243306  0.2600722649642813  0.7399278092208319  1.0000
