data_image0
_chemical_formula_structural       Co2AsSe6
_chemical_formula_sum              "Co2 As1 Se6"
_cell_length_a       6.482800951233165
_cell_length_b       6.482801403752221
_cell_length_c       6.4828012994101964
_cell_angle_alpha    60.00000177655405
_cell_angle_beta     59.99999976161644
_cell_angle_gamma    60.000000013974294

_space_group_name_H-M_alt    "P 1"
_space_group_IT_number       1

loop_
  _space_group_symop_operation_xyz
  'x, y, z'

loop_
  _atom_site_type_symbol
  _atom_site_label
  _atom_site_symmetry_multiplicity
  _atom_site_fract_x
  _atom_site_fract_y
  _atom_site_fract_z
  _atom_site_occupancy
  Co  Co1       1.0  0.24999636509353731  0.24999894736496767  0.25000646149288525  1.0000
  Co  Co2       1.0  0.7500024227825652  0.7499951833579365  0.7500014534738113  1.0000
  As  As1       1.0  0.9999998731011801  2.0970359833974887e-07  0.9999996855674939  1.0000
  Se  Se1       1.0  0.29347993485905616  0.2934833095966611  0.7065166517585785  1.0000
  Se  Se2       1.0  0.706519517237532  0.7065179926113767  0.2934813464055154  1.0000
  Se  Se3       1.0  0.7065191637843848  0.29348262411868925  0.29348015128794314  1.0000
  Se  Se4       1.0  0.29348088731411853  0.7065204879636294  0.7065166810016525  1.0000
  Se  Se5       1.0  0.29348097573746984  0.7065182798175035  0.2934814643626728  1.0000
  Se  Se6       1.0  0.7065208738397375  0.2934829902737194  0.7065161115932634  1.0000
