data_image0
_chemical_formula_structural       Co2AsO6
_chemical_formula_sum              "Co2 As1 O6"
_cell_length_a       5.209826863639503
_cell_length_b       5.209825852426423
_cell_length_c       5.20982727885398
_cell_angle_alpha    60.00000039208782
_cell_angle_beta     59.999992684477085
_cell_angle_gamma    59.99999959528558

_space_group_name_H-M_alt    "P 1"
_space_group_IT_number       1

loop_
  _space_group_symop_operation_xyz
  'x, y, z'

loop_
  _atom_site_type_symbol
  _atom_site_label
  _atom_site_symmetry_multiplicity
  _atom_site_fract_x
  _atom_site_fract_y
  _atom_site_fract_z
  _atom_site_occupancy
  Co  Co1       1.0  0.2500011752095245  0.24999924504066404  0.24999876633341586  1.0000
  Co  Co2       1.0  0.7500001037976166  0.7500013248494124  0.7499983341245636  1.0000
  As  As1       1.0  0.9999999445441246  7.992843885968022e-08  0.9999999954415236  1.0000
  O   O1        1.0  0.2444531314349283  0.24445219586474498  0.7555479020228567  1.0000
  O   O2        1.0  0.7555468509306773  0.7555475629870408  0.2444530661878878  1.0000
  O   O3        1.0  0.7555472336279396  0.244452320154083  0.24445309345523178  1.0000
  O   O4        1.0  0.24445266626665593  0.7555471142822211  0.7555477250200433  1.0000
  O   O5        1.0  0.24445206382946438  0.7555474313333992  0.24445330018153075  1.0000
  O   O6        1.0  0.7555469038060396  0.24445257905781825  0.7555478269684688  1.0000
