data_image0
_chemical_formula_structural       Co2BTe6
_chemical_formula_sum              "Co2 B1 Te6"
_cell_length_a       7.11342170252843
_cell_length_b       7.113421738803997
_cell_length_c       7.113421671347201
_cell_angle_alpha    59.999999949400944
_cell_angle_beta     59.99999973360456
_cell_angle_gamma    60.00000059513862

_space_group_name_H-M_alt    "P 1"
_space_group_IT_number       1

loop_
  _space_group_symop_operation_xyz
  'x, y, z'

loop_
  _atom_site_type_symbol
  _atom_site_label
  _atom_site_symmetry_multiplicity
  _atom_site_fract_x
  _atom_site_fract_y
  _atom_site_fract_z
  _atom_site_occupancy
  Co  Co1       1.0  0.250000000529264  0.2500000200073142  0.2499999902801309  1.0000
  Co  Co2       1.0  0.749999993325188  0.7499999825437315  0.750000016522387  1.0000
  B   B1        1.0  0.9999999947532123  0.9999999913913098  1.3956705080368007e-08  1.0000
  Te  Te1       1.0  0.22677281553813264  0.22677282395739504  0.7732271787334369  1.0000
  Te  Te2       1.0  0.7732271892037658  0.7732271751501748  0.22677282012971606  1.0000
  Te  Te3       1.0  0.7732271708815128  0.22677283514394403  0.2267728058145176  1.0000
  Te  Te4       1.0  0.2267728322371155  0.7732271639636258  0.7732271798023381  1.0000
  Te  Te5       1.0  0.22677283785383678  0.7732271636490997  0.22677281811085814  1.0000
  Te  Te6       1.0  0.7732271618213156  0.22677284578889811  0.7732271753088675  1.0000
