data_image0
_chemical_formula_structural       Co2BS6
_chemical_formula_sum              "Co2 B1 S6"
_cell_length_a       6.177812521192747
_cell_length_b       6.177812231139716
_cell_length_c       6.177812198395024
_cell_angle_alpha    60.00000066822035
_cell_angle_beta     60.000000966708754
_cell_angle_gamma    60.00000003409129

_space_group_name_H-M_alt    "P 1"
_space_group_IT_number       1

loop_
  _space_group_symop_operation_xyz
  'x, y, z'

loop_
  _atom_site_type_symbol
  _atom_site_label
  _atom_site_symmetry_multiplicity
  _atom_site_fract_x
  _atom_site_fract_y
  _atom_site_fract_z
  _atom_site_occupancy
  Co  Co1       1.0  0.24999987263808196  0.24999995889443719  0.24999991551127762  1.0000
  Co  Co2       1.0  0.750000032004426  0.7500000194225693  0.7499997772900514  1.0000
  B   B1        1.0  4.2328677877684126e-08  1.9824900020736126e-09  3.743552097595914e-09  1.0000
  S   S1        1.0  0.2296429369704077  0.22964299427778867  0.7703571070104072  1.0000
  S   S2        1.0  0.7703570650730726  0.7703570058466086  0.2296430538816414  1.0000
  S   S3        1.0  0.7703571318263968  0.22964287299053812  0.22964306752135924  1.0000
  S   S4        1.0  0.22964298878407124  0.7703570517992533  0.770357029668401  1.0000
  S   S5        1.0  0.2296429207714719  0.770357088853897  0.22964298607192968  1.0000
  S   S6        1.0  0.7703570400932505  0.22964301237747006  0.7703569975546759  1.0000
