data_image0
_chemical_formula_structural       Co2BO6
_chemical_formula_sum              "Co2 B1 O6"
_cell_length_a       4.666878904756259
_cell_length_b       4.666879161687846
_cell_length_c       4.666879450486527
_cell_angle_alpha    59.999998774096326
_cell_angle_beta     59.9999987452613
_cell_angle_gamma    59.99999924006569

_space_group_name_H-M_alt    "P 1"
_space_group_IT_number       1

loop_
  _space_group_symop_operation_xyz
  'x, y, z'

loop_
  _atom_site_type_symbol
  _atom_site_label
  _atom_site_symmetry_multiplicity
  _atom_site_fract_x
  _atom_site_fract_y
  _atom_site_fract_z
  _atom_site_occupancy
  Co  Co1       1.0  0.2500004544480405  0.2499995612661402  0.2500005353413872  1.0000
  Co  Co2       1.0  0.7500000826662279  0.7499997571509659  0.7500009768630883  1.0000
  B   B1        1.0  3.406484321787226e-08  0.9999999868783305  1.2880777736641127e-07  1.0000
  O   O1        1.0  0.242890091325778  0.24289039031862036  0.7571094353933999  1.0000
  O   O2        1.0  0.7571096498140636  0.7571099279696801  0.24288986638739302  1.0000
  O   O3        1.0  0.7571096097016626  0.24289049574052338  0.24288987910735196  1.0000
  O   O4        1.0  0.24289008170017481  0.7571100088754789  0.7571094486600076  1.0000
  O   O5        1.0  0.24289044892326223  0.7571098018446337  0.24288990875980027  1.0000
  O   O6        1.0  0.7571095782859028  0.24289013329092615  0.7571097736904178  1.0000
