data_image0
_chemical_formula_structural       Co2GaTe6
_chemical_formula_sum              "Co2 Ga1 Te6"
_cell_length_a       7.207945206802577
_cell_length_b       7.20794515298538
_cell_length_c       7.2079453671426235
_cell_angle_alpha    59.999999078961665
_cell_angle_beta     59.99999994359848
_cell_angle_gamma    59.99999932020886

_space_group_name_H-M_alt    "P 1"
_space_group_IT_number       1

loop_
  _space_group_symop_operation_xyz
  'x, y, z'

loop_
  _atom_site_type_symbol
  _atom_site_label
  _atom_site_symmetry_multiplicity
  _atom_site_fract_x
  _atom_site_fract_y
  _atom_site_fract_z
  _atom_site_occupancy
  Co  Co1       1.0  0.24999993379372026  0.2499999671968809  0.2500000393108779  1.0000
  Co  Co2       1.0  0.749999971416191  0.7500000018410562  0.7499998509909114  1.0000
  Ga  Ga1       1.0  0.9999999961491441  0.9999999779109258  2.6843544073777806e-08  1.0000
  Te  Te1       1.0  0.27091214026475324  0.27091208527015564  0.7290878641741851  1.0000
  Te  Te2       1.0  0.7290879544483588  0.7290878871661001  0.27091214194260527  1.0000
  Te  Te3       1.0  0.7290879220793536  0.27091208524918226  0.2709121252244499  1.0000
  Te  Te4       1.0  0.27091212889433575  0.7290879126744667  0.72908790666665  1.0000
  Te  Te5       1.0  0.2709120460199983  0.7290879356188977  0.2709121289937625  1.0000
  Te  Te6       1.0  0.7290879067135013  0.27091214556356946  0.7290879145500964  1.0000
