data_image0
_chemical_formula_structural       Co2GaS6
_chemical_formula_sum              "Co2 Ga1 S6"
_cell_length_a       6.265638345835458
_cell_length_b       6.2656380729061825
_cell_length_c       6.265638044888019
_cell_angle_alpha    59.999999289601554
_cell_angle_beta     59.99999959531036
_cell_angle_gamma    59.99999880452225

_space_group_name_H-M_alt    "P 1"
_space_group_IT_number       1

loop_
  _space_group_symop_operation_xyz
  'x, y, z'

loop_
  _atom_site_type_symbol
  _atom_site_label
  _atom_site_symmetry_multiplicity
  _atom_site_fract_x
  _atom_site_fract_y
  _atom_site_fract_z
  _atom_site_occupancy
  Co  Co1       1.0  0.24999985133227962  0.25000010839234227  0.25000016597999264  1.0000
  Co  Co2       1.0  0.7500001409814027  0.749999824773577  0.7499999024311136  1.0000
  Ga  Ga1       1.0  1.2526632325061755e-08  8.405214215436404e-08  0.9999999229824923  1.0000
  S   S1        1.0  0.26381390223659  0.26381408856776867  0.7361859694035725  1.0000
  S   S2        1.0  0.7361859437046891  0.7361858856468712  0.26381418837753  1.0000
  S   S3        1.0  0.7361859444507325  0.26381404775757084  0.2638139787050553  1.0000
  S   S4        1.0  0.26381400182527764  0.7361860124639122  0.7361859598207325  1.0000
  S   S5        1.0  0.2638140055357123  0.7361858473521296  0.2638140651860692  1.0000
  S   S6        1.0  0.7361862015232514  0.26381409949669665  0.7361858427267466  1.0000
