data_image0
_chemical_formula_structural       Co2GaSe6
_chemical_formula_sum              "Co2 Ga1 Se6"
_cell_length_a       6.471672145368776
_cell_length_b       6.471672773455085
_cell_length_c       6.471672611997546
_cell_angle_alpha    60.00000608893728
_cell_angle_beta     60.00000197087496
_cell_angle_gamma    59.99999887572862

_space_group_name_H-M_alt    "P 1"
_space_group_IT_number       1

loop_
  _space_group_symop_operation_xyz
  'x, y, z'

loop_
  _atom_site_type_symbol
  _atom_site_label
  _atom_site_symmetry_multiplicity
  _atom_site_fract_x
  _atom_site_fract_y
  _atom_site_fract_z
  _atom_site_occupancy
  Co  Co1       1.0  0.2500041079061749  0.24999641305031955  0.25000038411941256  1.0000
  Co  Co2       1.0  0.7499999808259927  0.7499987923414804  0.750001842600026  1.0000
  Ga  Ga1       1.0  0.9999999623670511  1.021933931765667e-07  0.9999999306350864  1.0000
  Se  Se1       1.0  0.2863014938045563  0.286301543100216  0.713698319720206  1.0000
  Se  Se2       1.0  0.7136965798577947  0.7137003597440148  0.2863009451562679  1.0000
  Se  Se3       1.0  0.713697076302839  0.2863022310082057  0.28630086258621484  1.0000
  Se  Se4       1.0  0.2863016166355577  0.7136996018145496  0.7136973380680434  1.0000
  Se  Se5       1.0  0.28630215181730484  0.7136991764657368  0.2863007991464537  1.0000
  Se  Se6       1.0  0.713697032721014  0.2863017650035942  0.7136995869608734  1.0000
