data_image0
_chemical_formula_structural       Co2GaO6
_chemical_formula_sum              "Co2 Ga1 O6"
_cell_length_a       4.966839470846748
_cell_length_b       4.9668398092111605
_cell_length_c       4.966839469713237
_cell_angle_alpha    59.99999843593409
_cell_angle_beta     59.99999609556808
_cell_angle_gamma    59.99999946559957

_space_group_name_H-M_alt    "P 1"
_space_group_IT_number       1

loop_
  _space_group_symop_operation_xyz
  'x, y, z'

loop_
  _atom_site_type_symbol
  _atom_site_label
  _atom_site_symmetry_multiplicity
  _atom_site_fract_x
  _atom_site_fract_y
  _atom_site_fract_z
  _atom_site_occupancy
  Co  Co1       1.0  0.24999894295021022  0.2500018923114597  0.24999964529372998  1.0000
  Co  Co2       1.0  0.7499998022975667  0.7499999857679591  0.7500011383358189  1.0000
  Ga  Ga1       1.0  0.9999999391074227  6.411192515977549e-08  4.671079245896619e-08  1.0000
  O   O1        1.0  0.2619689734649508  0.26196923949228607  0.738030918527937  1.0000
  O   O2        1.0  0.7380314524068973  0.7380304143964961  0.26196857452316036  1.0000
  O   O3        1.0  0.7380310790111877  0.2619694349326536  0.2619688195580694  1.0000
  O   O4        1.0  0.26196916531524495  0.7380301079931592  0.7380315304607564  1.0000
  O   O5        1.0  0.26196953491308184  0.738030220233033  0.26196871203794386  1.0000
  O   O6        1.0  0.7380311037748136  0.2619686766418605  0.7380306383614194  1.0000
