data_image0
_chemical_formula_structural       Co2IrO6
_chemical_formula_sum              "Co2 Ir1 O6"
_cell_length_a       5.231841470418316
_cell_length_b       5.231841350187455
_cell_length_c       5.231841337046731
_cell_angle_alpha    60.000001769448005
_cell_angle_beta     59.99999971996231
_cell_angle_gamma    59.99999986538509

_space_group_name_H-M_alt    "P 1"
_space_group_IT_number       1

loop_
  _space_group_symop_operation_xyz
  'x, y, z'

loop_
  _atom_site_type_symbol
  _atom_site_label
  _atom_site_symmetry_multiplicity
  _atom_site_fract_x
  _atom_site_fract_y
  _atom_site_fract_z
  _atom_site_occupancy
  Co  Co1       1.0  0.24999971351626107  0.24999955587342257  0.2500005004473087  1.0000
  Co  Co2       1.0  0.7499999095163933  0.7500002407347399  0.7500000111016162  1.0000
  Ir  Ir1       1.0  5.595689773362652e-08  0.9999999976590557  0.9999999827488876  1.0000
  O   O1        1.0  0.24999277564288938  0.2499925236533197  0.7500073500687761  1.0000
  O   O2        1.0  0.7500072604853388  0.7500075234358637  0.24999271118672847  1.0000
  O   O3        1.0  0.750007388738893  0.24999287964114375  0.24999240200796782  1.0000
  O   O4        1.0  0.24999257412769438  0.7500074600660557  0.7500072762430218  1.0000
  O   O5        1.0  0.2499926635371594  0.750007427316345  0.2499926925259041  1.0000
  O   O6        1.0  0.7500076602705945  0.2499924254744627  0.7500070028397382  1.0000
