data_image0
_chemical_formula_structural       Co2IrSe6
_chemical_formula_sum              "Co2 Ir1 Se6"
_cell_length_a       6.619273206769012
_cell_length_b       6.619272996339865
_cell_length_c       6.619273255013099
_cell_angle_alpha    59.99999863224409
_cell_angle_beta     59.99999972590206
_cell_angle_gamma    59.99999879245374

_space_group_name_H-M_alt    "P 1"
_space_group_IT_number       1

loop_
  _space_group_symop_operation_xyz
  'x, y, z'

loop_
  _atom_site_type_symbol
  _atom_site_label
  _atom_site_symmetry_multiplicity
  _atom_site_fract_x
  _atom_site_fract_y
  _atom_site_fract_z
  _atom_site_occupancy
  Co  Co1       1.0  0.24999969598046135  0.24999990784623638  0.2500001242329686  1.0000
  Co  Co2       1.0  0.749999991401078  0.7500001898070043  0.7499999673217863  1.0000
  Ir  Ir1       1.0  2.3430530435913572e-09  2.9604336219463553e-08  0.9999999492792884  1.0000
  Se  Se1       1.0  0.2631408221151287  0.26314068579052136  0.7368592783112492  1.0000
  Se  Se2       1.0  0.7368592375604134  0.7368592212848052  0.2631407344713804  1.0000
  Se  Se3       1.0  0.7368593976421036  0.2631407139733604  0.2631407820433308  1.0000
  Se  Se4       1.0  0.2631407265600122  0.7368592245565733  0.7368592854790191  1.0000
  Se  Se5       1.0  0.26314072253042997  0.7368593470183672  0.26314075156099626  1.0000
  Se  Se6       1.0  0.7368594028507314  0.2631406821748462  0.7368591219876841  1.0000
