data_image0
_chemical_formula_structural       Co2MoO6
_chemical_formula_sum              "Co2 Mo1 O6"
_cell_length_a       5.298446965414509
_cell_length_b       5.298446720998252
_cell_length_c       5.298446951945214
_cell_angle_alpha    59.999999031440105
_cell_angle_beta     59.999999809318844
_cell_angle_gamma    60.00000124401962

_space_group_name_H-M_alt    "P 1"
_space_group_IT_number       1

loop_
  _space_group_symop_operation_xyz
  'x, y, z'

loop_
  _atom_site_type_symbol
  _atom_site_label
  _atom_site_symmetry_multiplicity
  _atom_site_fract_x
  _atom_site_fract_y
  _atom_site_fract_z
  _atom_site_occupancy
  Co  Co1       1.0  0.2500000812096293  0.2499998183947526  0.25000010040400555  1.0000
  Co  Co2       1.0  0.7500000601766343  0.7500003520527851  0.7499999841381387  1.0000
  Mo  Mo1       1.0  1.741186974381719e-08  3.929578636860584e-08  0.9999999188004981  1.0000
  O   O1        1.0  0.25337736505086284  0.25337733612524005  0.7466225984666646  1.0000
  O   O2        1.0  0.7466226341320948  0.7466226725161131  0.253377309682108  1.0000
  O   O3        1.0  0.74662264571792  0.2533772423239508  0.25337741783446305  1.0000
  O   O4        1.0  0.2533772932372968  0.7466227247100978  0.7466225714293604  1.0000
  O   O5        1.0  0.25337734300795395  0.7466226383368255  0.25337731357658005  1.0000
  O   O6        1.0  0.7466225774590194  0.2533771553334597  0.7466227697259006  1.0000
