data_image0
_chemical_formula_structural       Co2MoS6
_chemical_formula_sum              "Co2 Mo1 S6"
_cell_length_a       6.364735839343902
_cell_length_b       6.364735626847654
_cell_length_c       6.364735691730055
_cell_angle_alpha    59.99999997279689
_cell_angle_beta     60.0000004632076
_cell_angle_gamma    59.99999979927052

_space_group_name_H-M_alt    "P 1"
_space_group_IT_number       1

loop_
  _space_group_symop_operation_xyz
  'x, y, z'

loop_
  _atom_site_type_symbol
  _atom_site_label
  _atom_site_symmetry_multiplicity
  _atom_site_fract_x
  _atom_site_fract_y
  _atom_site_fract_z
  _atom_site_occupancy
  Co  Co1       1.0  0.25000014142791865  0.2499999522909382  0.24999995851508677  1.0000
  Co  Co2       1.0  0.7499999244373177  0.7500000011928132  0.7499997217943228  1.0000
  Mo  Mo1       1.0  4.473285890584762e-08  0.999999969211733  0.9999999600334037  1.0000
  S   S1        1.0  0.25667946004104464  0.25667944416599764  0.7433205664902247  1.0000
  S   S2        1.0  0.7433204209187345  0.7433206286222905  0.2566796886688627  1.0000
  S   S3        1.0  0.7433205139670839  0.25667939843710824  0.25667948285397096  1.0000
  S   S4        1.0  0.256679544201084  0.7433205781378451  0.7433205746918738  1.0000
  S   S5        1.0  0.25667937626093135  0.7433205258376551  0.25667949026495746  1.0000
  S   S6        1.0  0.7433205785692136  0.2566795103895652  0.7433205498448368  1.0000
