data_image0
_chemical_formula_structural       Co2NO6
_chemical_formula_sum              "Co2 N1 O6"
_cell_length_a       5.797545918994578
_cell_length_b       5.955171759575896
_cell_length_c       6.476060003092069
_cell_angle_alpha    32.854160446435316
_cell_angle_beta     63.644829040237816
_cell_angle_gamma    68.12100537584652

_space_group_name_H-M_alt    "P 1"
_space_group_IT_number       1

loop_
  _space_group_symop_operation_xyz
  'x, y, z'

loop_
  _atom_site_type_symbol
  _atom_site_label
  _atom_site_symmetry_multiplicity
  _atom_site_fract_x
  _atom_site_fract_y
  _atom_site_fract_z
  _atom_site_occupancy
  Co  Co1       1.0  0.32836603396161057  0.13650222866054873  0.17393936639739951  1.0000
  Co  Co2       1.0  0.46588959635914695  0.07374724088108464  0.610228627298998  1.0000
  N   N1        1.0  0.9195777352819459  0.14668263060173517  0.06891501137070255  1.0000
  O   O1        1.0  0.1598775183433805  0.19151538361835269  0.8959476554201108  1.0000
  O   O2        1.0  0.6660600257063959  0.804173146704772  0.9480632215094659  1.0000
  O   O3        1.0  0.8718124300792679  0.06472683558263959  0.33879425690844217  1.0000
  O   O4        1.0  0.31881582330951924  0.7733486557289179  0.7021230333371218  1.0000
  O   O5        1.0  0.5164208375449577  0.6146547299769676  0.29853773246447607  1.0000
  O   O6        1.0  0.7532021333292086  0.19466793933743723  0.9634798417386703  1.0000
