data_image0
_chemical_formula_structural       Co2NO6
_chemical_formula_sum              "Co2 N1 O6"
_cell_length_a       4.658213906819502
_cell_length_b       4.658213818182296
_cell_length_c       4.658213725633108
_cell_angle_alpha    59.99999794192385
_cell_angle_beta     59.9999973318867
_cell_angle_gamma    59.9999988414005

_space_group_name_H-M_alt    "P 1"
_space_group_IT_number       1

loop_
  _space_group_symop_operation_xyz
  'x, y, z'

loop_
  _atom_site_type_symbol
  _atom_site_label
  _atom_site_symmetry_multiplicity
  _atom_site_fract_x
  _atom_site_fract_y
  _atom_site_fract_z
  _atom_site_occupancy
  Co  Co1       1.0  0.24999986015777226  0.2499999031698363  0.2500007534464473  1.0000
  Co  Co2       1.0  0.7500002082101932  0.7500004588360198  0.7499997685412775  1.0000
  N   N1        1.0  0.9999998899981369  3.523148547533154e-07  3.0238258610251237e-06  1.0000
  O   O1        1.0  0.2415840514061394  0.24158390453008327  0.7584161846776956  1.0000
  O   O2        1.0  0.7584157628780521  0.7584158290932216  0.24158441359645388  1.0000
  O   O3        1.0  0.7584170305328669  0.24158288954801327  0.24158315631732827  1.0000
  O   O4        1.0  0.2415854206069844  0.7584146670847437  0.7584145350324194  1.0000
  O   O5        1.0  0.24158296948074412  0.7584168023053957  0.2415834521273987  1.0000
  O   O6        1.0  0.7584147605291666  0.2415852055895209  0.7584147841847064  1.0000
