data_image0
_chemical_formula_structural       Co2PS6
_chemical_formula_sum              "Co2 P1 S6"
_cell_length_a       6.353945003372252
_cell_length_b       6.353944812197255
_cell_length_c       6.353944850822803
_cell_angle_alpha    60.000000333819656
_cell_angle_beta     60.000000557123585
_cell_angle_gamma    59.999999681675845

_space_group_name_H-M_alt    "P 1"
_space_group_IT_number       1

loop_
  _space_group_symop_operation_xyz
  'x, y, z'

loop_
  _atom_site_type_symbol
  _atom_site_label
  _atom_site_symmetry_multiplicity
  _atom_site_fract_x
  _atom_site_fract_y
  _atom_site_fract_z
  _atom_site_occupancy
  Co  Co1       1.0  0.25000007541882574  0.24999996617258416  0.24999992697911821  1.0000
  Co  Co2       1.0  0.7500000569484736  0.750000231981247  0.7499999317857747  1.0000
  P   P1        1.0  0.9999999691972742  2.6985484801417694e-08  0.9999999751535883  1.0000
  S   S1        1.0  0.24277270459558248  0.24277259949756474  0.7572273782730694  1.0000
  S   S2        1.0  0.7572274103201626  0.7572272748304468  0.24277264168755658  1.0000
  S   S3        1.0  0.7572273201243255  0.24277252977447755  0.2427726845743119  1.0000
  S   S4        1.0  0.24277254290205494  0.7572274023795726  0.7572273332669757  1.0000
  S   S5        1.0  0.24277259573007434  0.7572274874657009  0.24277268266890686  1.0000
  S   S6        1.0  0.7572273085240346  0.24277250636945882  0.7572274426743304  1.0000
