data_image0
_chemical_formula_structural       Co2PO6
_chemical_formula_sum              "Co2 P1 O6"
_cell_length_a       4.547961265575496
_cell_length_b       4.547961422437289
_cell_length_c       4.547961228819045
_cell_angle_alpha    59.99999636982625
_cell_angle_beta     60.000000026566305
_cell_angle_gamma    59.99999973896947

_space_group_name_H-M_alt    "P 1"
_space_group_IT_number       1

loop_
  _space_group_symop_operation_xyz
  'x, y, z'

loop_
  _atom_site_type_symbol
  _atom_site_label
  _atom_site_symmetry_multiplicity
  _atom_site_fract_x
  _atom_site_fract_y
  _atom_site_fract_z
  _atom_site_occupancy
  Co  Co1       1.0  0.24999997205838365  0.25000046018253275  0.24999978612821835  1.0000
  Co  Co2       1.0  0.750000249780531  0.7499996408995722  0.7500000460145319  1.0000
  P   P1        1.0  0.9999999499383946  5.1166118484920176e-08  0.9999999906525919  1.0000
  O   O1        1.0  0.26514947072563044  0.2651492038156668  0.7348507051810251  1.0000
  O   O2        1.0  0.734850413821427  0.73485074376808  0.26514934817017716  1.0000
  O   O3        1.0  0.734850654189556  0.2651492491592161  0.2651494598794086  1.0000
  O   O4        1.0  0.265149264798165  0.7348508007567659  0.7348505668623021  1.0000
  O   O5        1.0  0.26514930458549657  0.7348506467295491  0.2651493551007877  1.0000
  O   O6        1.0  0.734850611247233  0.26514943550187675  0.7348506460667581  1.0000
