data_image0
_chemical_formula_structural       Co2PSe6
_chemical_formula_sum              "Co2 P1 Se6"
_cell_length_a       6.606908709044739
_cell_length_b       6.606908807448152
_cell_length_c       6.6069087956804005
_cell_angle_alpha    59.999998657455095
_cell_angle_beta     59.999999038421564
_cell_angle_gamma    59.9999992982016

_space_group_name_H-M_alt    "P 1"
_space_group_IT_number       1

loop_
  _space_group_symop_operation_xyz
  'x, y, z'

loop_
  _atom_site_type_symbol
  _atom_site_label
  _atom_site_symmetry_multiplicity
  _atom_site_fract_x
  _atom_site_fract_y
  _atom_site_fract_z
  _atom_site_occupancy
  Co  Co1       1.0  0.2500001329401786  0.25000023074798033  0.24999970586086726  1.0000
  Co  Co2       1.0  0.7499998801337392  0.7499998469414103  0.7500004019769951  1.0000
  P   P1        1.0  0.9999999801572037  1.8537330193859468e-09  5.288797853476141e-08  1.0000
  Se  Se1       1.0  0.24991562565951436  0.24991561383880664  0.7500843999642602  1.0000
  Se  Se2       1.0  0.7500844244890756  0.7500843526265725  0.24991540439566795  1.0000
  Se  Se3       1.0  0.7500843201255583  0.2499157482671172  0.24991552782608487  1.0000
  Se  Se4       1.0  0.2499157252039483  0.750084195953456  0.7500844853159481  1.0000
  Se  Se5       1.0  0.2499157183964002  0.7500843030038603  0.24991555558768538  1.0000
  Se  Se6       1.0  0.7500841923225319  0.24991570424365583  0.7500844751833577  1.0000
