data_image0
_chemical_formula_structural       Co2RuSe6
_chemical_formula_sum              "Co2 Ru1 Se6"
_cell_length_a       6.668843345703186
_cell_length_b       6.668843263418654
_cell_length_c       6.668843559036667
_cell_angle_alpha    59.9999992249563
_cell_angle_beta     60.00000049519988
_cell_angle_gamma    59.999999950574974

_space_group_name_H-M_alt    "P 1"
_space_group_IT_number       1

loop_
  _space_group_symop_operation_xyz
  'x, y, z'

loop_
  _atom_site_type_symbol
  _atom_site_label
  _atom_site_symmetry_multiplicity
  _atom_site_fract_x
  _atom_site_fract_y
  _atom_site_fract_z
  _atom_site_occupancy
  Co  Co1       1.0  0.24999995522440915  0.2500000521868474  0.24999981616795566  1.0000
  Co  Co2       1.0  0.7500000080061859  0.7500000775902825  0.7500002355551748  1.0000
  Ru  Ru1       1.0  0.9999999516234387  0.9999999944904465  0.9999999909548082  1.0000
  Se  Se1       1.0  0.2587033231737118  0.25870330701891886  0.7412967029325106  1.0000
  Se  Se2       1.0  0.7412967577139722  0.741296615231709  0.2587031373090556  1.0000
  Se  Se3       1.0  0.741296686718527  0.25870339721173774  0.25870326427674273  1.0000
  Se  Se4       1.0  0.2587033393557769  0.7412965544231738  0.7412967836157176  1.0000
  Se  Se5       1.0  0.25870331689770154  0.7412968069133257  0.2587033041716059  1.0000
  Se  Se6       1.0  0.7412966602568598  0.25870319798059943  0.7412967580458328  1.0000
