data_image0
_chemical_formula_structural       Co2RuS6
_chemical_formula_sum              "Co2 Ru1 S6"
_cell_length_a       6.070158518028768
_cell_length_b       6.070158455950922
_cell_length_c       6.070158690470042
_cell_angle_alpha    59.99999931131261
_cell_angle_beta     59.999999788071406
_cell_angle_gamma    59.99999968631891

_space_group_name_H-M_alt    "P 1"
_space_group_IT_number       1

loop_
  _space_group_symop_operation_xyz
  'x, y, z'

loop_
  _atom_site_type_symbol
  _atom_site_label
  _atom_site_symmetry_multiplicity
  _atom_site_fract_x
  _atom_site_fract_y
  _atom_site_fract_z
  _atom_site_occupancy
  Co  Co1       1.0  0.24999990819720852  0.2499999266838956  0.25000004794272834  1.0000
  Co  Co2       1.0  0.7500000103126454  0.7499998930400295  0.7500001965262245  1.0000
  Ru  Ru1       1.0  0.9999997728829956  0.9999999394705305  0.9999999922621237  1.0000
  S   S1        1.0  0.26742949417666173  0.2674296090399513  0.7325704625081562  1.0000
  S   S2        1.0  0.732570576797184  0.7325704951724749  0.267429372385759  1.0000
  S   S3        1.0  0.7325705673654681  0.26742955085380404  0.2674294529067367  1.0000
  S   S4        1.0  0.2674294954421895  0.7325705493233245  0.7325705034061587  1.0000
  S   S5        1.0  0.26742958258385047  0.7325705858303139  0.26742946850764193  1.0000
  S   S6        1.0  0.7325705839842415  0.2674294598702937  0.7325704944639616  1.0000
