data_image0
_chemical_formula_structural       Co2RuO6
_chemical_formula_sum              "Co2 Ru1 O6"
_cell_length_a       5.289444504533912
_cell_length_b       5.289444629788096
_cell_length_c       5.289444511869588
_cell_angle_alpha    60.000001406877416
_cell_angle_beta     59.99999902152708
_cell_angle_gamma    60.00000065478594

_space_group_name_H-M_alt    "P 1"
_space_group_IT_number       1

loop_
  _space_group_symop_operation_xyz
  'x, y, z'

loop_
  _atom_site_type_symbol
  _atom_site_label
  _atom_site_symmetry_multiplicity
  _atom_site_fract_x
  _atom_site_fract_y
  _atom_site_fract_z
  _atom_site_occupancy
  Co  Co1       1.0  0.2500005036900358  0.2500000384784412  0.24999968192313893  1.0000
  Co  Co2       1.0  0.7500005139904034  0.7499993605983842  0.7499997818264724  1.0000
  Ru  Ru1       1.0  8.414686985564491e-08  0.9999999374828291  0.9999999343589766  1.0000
  O   O1        1.0  0.24758085618513037  0.24758132651532547  0.7524190023317863  1.0000
  O   O2        1.0  0.7524188754113794  0.7524190033727073  0.24758117408202626  1.0000
  O   O3        1.0  0.752418747222644  0.24758122719013276  0.24758094113141996  1.0000
  O   O4        1.0  0.24758095302083608  0.7524189151463867  0.7524190252304137  1.0000
  O   O5        1.0  0.24758084594366042  0.7524187659782748  0.24758128918645506  1.0000
  O   O6        1.0  0.7524186423909554  0.24758142266726427  0.7524191380868408  1.0000
