data_image0
_chemical_formula_structural       Co2SbSe6
_chemical_formula_sum              "Co2 Sb1 Se6"
_cell_length_a       6.706993371711638
_cell_length_b       6.706993637981448
_cell_length_c       6.706993922162794
_cell_angle_alpha    60.00000037496073
_cell_angle_beta     59.999999266349796
_cell_angle_gamma    60.00000469679835

_space_group_name_H-M_alt    "P 1"
_space_group_IT_number       1

loop_
  _space_group_symop_operation_xyz
  'x, y, z'

loop_
  _atom_site_type_symbol
  _atom_site_label
  _atom_site_symmetry_multiplicity
  _atom_site_fract_x
  _atom_site_fract_y
  _atom_site_fract_z
  _atom_site_occupancy
  Co  Co1       1.0  0.24999783787240515  0.2500010405803671  0.25000129531098714  1.0000
  Co  Co2       1.0  0.7500003082046522  0.7500010217594149  0.7499992171728599  1.0000
  Sb  Sb1       1.0  5.525055530417558e-08  0.9999999013921546  8.429984339951539e-08  1.0000
  Se  Se1       1.0  0.29896483708980054  0.2989647471702715  0.7010347881264924  1.0000
  Se  Se2       1.0  0.7010357530082031  0.7010346728444772  0.298964845425913  1.0000
  Se  Se3       1.0  0.7010358560718607  0.29896426422685113  0.2989651736816617  1.0000
  Se  Se4       1.0  0.29896477213200473  0.7010349330072112  0.7010351098350192  1.0000
  Se  Se5       1.0  0.2989645062334527  0.7010349370501191  0.29896519995230286  1.0000
  Se  Se6       1.0  0.7010360770824366  0.2989644774864135  0.7010342861592322  1.0000
