data_image0
_chemical_formula_structural       Co2SbO6
_chemical_formula_sum              "Co2 Sb1 O6"
_cell_length_a       5.391441024544354
_cell_length_b       5.391441266560151
_cell_length_c       5.391441280783697
_cell_angle_alpha    60.000000021947756
_cell_angle_beta     59.9999982005482
_cell_angle_gamma    59.999999860329396

_space_group_name_H-M_alt    "P 1"
_space_group_IT_number       1

loop_
  _space_group_symop_operation_xyz
  'x, y, z'

loop_
  _atom_site_type_symbol
  _atom_site_label
  _atom_site_symmetry_multiplicity
  _atom_site_fract_x
  _atom_site_fract_y
  _atom_site_fract_z
  _atom_site_occupancy
  Co  Co1       1.0  0.24999912757731868  0.2500005885003719  0.25000038649792533  1.0000
  Co  Co2       1.0  0.7500012699414399  0.7499996324250305  0.7499990508454455  1.0000
  Sb  Sb1       1.0  0.9999999653202937  5.906280903405473e-08  0.9999999878084488  1.0000
  O   O1        1.0  0.25600563356277806  0.25600636396159265  0.7439940212667624  1.0000
  O   O2        1.0  0.7439942789342835  0.7439936093543467  0.2560063425392524  1.0000
  O   O3        1.0  0.7439939341142657  0.25600598080348  0.2560062497824703  1.0000
  O   O4        1.0  0.25600584222156325  0.7439939448078832  0.743993918463751  1.0000
  O   O5        1.0  0.25600567132865115  0.7439937347931399  0.25600653695285824  1.0000
  O   O6        1.0  0.7439942501919491  0.25600610222400905  0.7439936048528759  1.0000
