data_image0
_chemical_formula_structural       Co2SbS6
_chemical_formula_sum              "Co2 Sb1 S6"
_cell_length_a       6.470826389335644
_cell_length_b       6.470826434678418
_cell_length_c       6.470826129997377
_cell_angle_alpha    60.00000008987957
_cell_angle_beta     60.00000092551879
_cell_angle_gamma    60.00000236909596

_space_group_name_H-M_alt    "P 1"
_space_group_IT_number       1

loop_
  _space_group_symop_operation_xyz
  'x, y, z'

loop_
  _atom_site_type_symbol
  _atom_site_label
  _atom_site_symmetry_multiplicity
  _atom_site_fract_x
  _atom_site_fract_y
  _atom_site_fract_z
  _atom_site_occupancy
  Co  Co1       1.0  0.24999957133821823  0.25000005009273624  0.2500003627035193  1.0000
  Co  Co2       1.0  0.7500002452551497  0.7500000480714963  0.7499993690851399  1.0000
  Sb  Sb1       1.0  0.9999999946465855  1.3247387270248206e-16  0.9999999856773322  1.0000
  S   S1        1.0  0.2682225169738195  0.2682228236639381  0.7317773289858249  1.0000
  S   S2        1.0  0.7317775120459418  0.7317771457954769  0.2682230115544905  1.0000
  S   S3        1.0  0.7317773084302623  0.2682223837111681  0.26822293206577597  1.0000
  S   S4        1.0  0.26822261546964105  0.7317774835414859  0.7317772030583047  1.0000
  S   S5        1.0  0.2682225336401441  0.7317773277793107  0.26822278650747644  1.0000
  S   S6        1.0  0.7317776860458589  0.2682227495650313  0.7317770122262298  1.0000
