data_image0
_chemical_formula_structural       Co2SbTe6
_chemical_formula_sum              "Co2 Sb1 Te6"
_cell_length_a       7.405000758933608
_cell_length_b       7.405000785871431
_cell_length_c       7.405000648305087
_cell_angle_alpha    60.00000079103187
_cell_angle_beta     60.00000006884211
_cell_angle_gamma    59.99999987340112

_space_group_name_H-M_alt    "P 1"
_space_group_IT_number       1

loop_
  _space_group_symop_operation_xyz
  'x, y, z'

loop_
  _atom_site_type_symbol
  _atom_site_label
  _atom_site_symmetry_multiplicity
  _atom_site_fract_x
  _atom_site_fract_y
  _atom_site_fract_z
  _atom_site_occupancy
  Co  Co1       1.0  0.24999999217437754  0.2500000536135996  0.2499999247583611  1.0000
  Co  Co2       1.0  0.750000015431364  0.7499999739452494  0.7500000602876296  1.0000
  Sb  Sb1       1.0  0.9999999949435805  1.9847315086482077e-08  0.999999993954991  1.0000
  Te  Te1       1.0  0.2777191574206148  0.27771917433212945  0.7222808135735983  1.0000
  Te  Te2       1.0  0.72228087094589  0.7222808003005459  0.2777191294862303  1.0000
  Te  Te3       1.0  0.722280842609687  0.27771916392201274  0.27771913533648074  1.0000
  Te  Te4       1.0  0.27771914448938995  0.7222807941712336  0.722280914952225  1.0000
  Te  Te5       1.0  0.2777191659714482  0.7222808570709847  0.27771915611197845  1.0000
  Te  Te6       1.0  0.7222808100851129  0.27771916221815013  0.7222808718009189  1.0000
