data_image0
_chemical_formula_structural       Co2TaSe6
_chemical_formula_sum              "Co2 Ta1 Se6"
_cell_length_a       6.7182212861356465
_cell_length_b       6.718221201102432
_cell_length_c       6.71822115213273
_cell_angle_alpha    59.99999917673147
_cell_angle_beta     60.0000000681539
_cell_angle_gamma    59.99999841906739

_space_group_name_H-M_alt    "P 1"
_space_group_IT_number       1

loop_
  _space_group_symop_operation_xyz
  'x, y, z'

loop_
  _atom_site_type_symbol
  _atom_site_label
  _atom_site_symmetry_multiplicity
  _atom_site_fract_x
  _atom_site_fract_y
  _atom_site_fract_z
  _atom_site_occupancy
  Co  Co1       1.0  0.24999997445749797  0.25000002149398237  0.24999997864202964  1.0000
  Co  Co2       1.0  0.7499999645542339  0.7500000079683361  0.7500002695711718  1.0000
  Ta  Ta1       1.0  0.9999999714245424  0.9999999361943145  4.9167550677019064e-08  1.0000
  Se  Se1       1.0  0.2644611771908072  0.264461123003428  0.7355388388330939  1.0000
  Se  Se2       1.0  0.7355389167177848  0.7355388955207746  0.2644609608129531  1.0000
  Se  Se3       1.0  0.7355388041201587  0.2644612203979148  0.2644610537452754  1.0000
  Se  Se4       1.0  0.2644610117991703  0.7355388947463286  0.7355389318486955  1.0000
  Se  Se5       1.0  0.26446123087888385  0.7355388337485267  0.2644610454040162  1.0000
  Se  Se6       1.0  0.7355389483272954  0.2644610681024201  0.7355388741241136  1.0000
