data_image0
_chemical_formula_structural       Co2TaO6
_chemical_formula_sum              "Co2 Ta1 O6"
_cell_length_a       5.312195331760288
_cell_length_b       5.312195313210966
_cell_length_c       5.312195071767916
_cell_angle_alpha    60.00000190010798
_cell_angle_beta     60.00000183838129
_cell_angle_gamma    60.00000143628317

_space_group_name_H-M_alt    "P 1"
_space_group_IT_number       1

loop_
  _space_group_symop_operation_xyz
  'x, y, z'

loop_
  _atom_site_type_symbol
  _atom_site_label
  _atom_site_symmetry_multiplicity
  _atom_site_fract_x
  _atom_site_fract_y
  _atom_site_fract_z
  _atom_site_occupancy
  Co  Co1       1.0  0.2500000440807416  0.2500004592423403  0.24999973709989046  1.0000
  Co  Co2       1.0  0.7499999715076692  0.7499996232154217  0.7499999147905093  1.0000
  Ta  Ta1       1.0  0.9999999971896657  0.9999999953889313  0.9999999679439426  1.0000
  O   O1        1.0  0.2585047144235427  0.25850494078313924  0.7414951864445035  1.0000
  O   O2        1.0  0.7414952316750228  0.7414950240923753  0.2585050540691829  1.0000
  O   O3        1.0  0.7414950677101876  0.2585048535881047  0.2585048111467506  1.0000
  O   O4        1.0  0.2585050387584147  0.7414950605656554  0.7414952126511494  1.0000
  O   O5        1.0  0.2585048720719546  0.7414950357391327  0.25850485053913574  1.0000
  O   O6        1.0  0.7414950677240408  0.25850499369134183  0.7414952516656184  1.0000
