data_image0
_chemical_formula_structural       Co2TaTe6
_chemical_formula_sum              "Co2 Ta1 Te6"
_cell_length_a       7.282331210375267
_cell_length_b       7.282331178823994
_cell_length_c       7.282331239436057
_cell_angle_alpha    60.000000183659004
_cell_angle_beta     59.99999947443032
_cell_angle_gamma    59.999999936500515

_space_group_name_H-M_alt    "P 1"
_space_group_IT_number       1

loop_
  _space_group_symop_operation_xyz
  'x, y, z'

loop_
  _atom_site_type_symbol
  _atom_site_label
  _atom_site_symmetry_multiplicity
  _atom_site_fract_x
  _atom_site_fract_y
  _atom_site_fract_z
  _atom_site_occupancy
  Co  Co1       1.0  0.25000006633791094  0.24999998477755114  0.24999993615537544  1.0000
  Co  Co2       1.0  0.7500000022677408  0.7500000165593765  0.7499999677292667  1.0000
  Ta  Ta1       1.0  1.6032059273208793e-08  1.849983620801621e-08  0.9999999511507595  1.0000
  Te  Te1       1.0  0.2650912923849652  0.2650912868631947  0.7349087270626744  1.0000
  Te  Te2       1.0  0.7349086830703814  0.7349086657014376  0.2650913370403999  1.0000
  Te  Te3       1.0  0.7349086782193848  0.26509130717592416  0.2650913383044323  1.0000
  Te  Te4       1.0  0.2650912926384665  0.734908692479201  0.7349087210303832  1.0000
  Te  Te5       1.0  0.2650913437747801  0.7349086826087395  0.26509132907654587  1.0000
  Te  Te6       1.0  0.7349086249203484  0.2650913473188449  0.734908687366482  1.0000
