data_image0
_chemical_formula_structural       Co2TaS6
_chemical_formula_sum              "Co2 Ta1 S6"
_cell_length_a       6.2845528028317315
_cell_length_b       6.284552698558799
_cell_length_c       6.284552570206558
_cell_angle_alpha    60.00000040542408
_cell_angle_beta     60.00000019883115
_cell_angle_gamma    59.999999800263836

_space_group_name_H-M_alt    "P 1"
_space_group_IT_number       1

loop_
  _space_group_symop_operation_xyz
  'x, y, z'

loop_
  _atom_site_type_symbol
  _atom_site_label
  _atom_site_symmetry_multiplicity
  _atom_site_fract_x
  _atom_site_fract_y
  _atom_site_fract_z
  _atom_site_occupancy
  Co  Co1       1.0  0.24999999347793103  0.25000001945905465  0.2499999998184274  1.0000
  Co  Co2       1.0  0.7499998876931219  0.7500000720188893  0.7500001169737112  1.0000
  Ta  Ta1       1.0  0.9999999907940617  3.312990404931373e-08  0.9999999880380172  1.0000
  S   S1        1.0  0.2674706903953363  0.2674705777765062  0.7325293728090756  1.0000
  S   S2        1.0  0.7325293391404689  0.7325293772841855  0.26747058843621363  1.0000
  S   S3        1.0  0.7325293761186898  0.2674706274071449  0.26747063946456656  1.0000
  S   S4        1.0  0.26747062863975657  0.732529374425176  0.7325293394252448  1.0000
  S   S5        1.0  0.2674707228800703  0.7325293155826457  0.2674705976008355  1.0000
  S   S6        1.0  0.7325293715207172  0.26747061024577756  0.7325293506017058  1.0000
