data_image0
_chemical_formula_structural       Cr2AsO6
_chemical_formula_sum              "Cr2 As1 O6"
_cell_length_a       5.099136545960649
_cell_length_b       5.099137229332959
_cell_length_c       5.099136744928047
_cell_angle_alpha    59.999997785461844
_cell_angle_beta     59.999996890491246
_cell_angle_gamma    59.99999989414083

_space_group_name_H-M_alt    "P 1"
_space_group_IT_number       1

loop_
  _space_group_symop_operation_xyz
  'x, y, z'

loop_
  _atom_site_type_symbol
  _atom_site_label
  _atom_site_symmetry_multiplicity
  _atom_site_fract_x
  _atom_site_fract_y
  _atom_site_fract_z
  _atom_site_occupancy
  Cr  Cr1       1.0  0.24999994541661003  0.24999980993155727  0.2500000671015415  1.0000
  Cr  Cr2       1.0  0.7499999253068061  0.7500002224107166  0.7500001840691937  1.0000
  As  As1       1.0  0.9999999750433436  8.166347372450099e-08  0.9999999755688209  1.0000
  O   O1        1.0  0.24970066006141134  0.24970073136508109  0.7502993643012376  1.0000
  O   O2        1.0  0.7502995222529164  0.7502990319681168  0.24970055964444923  1.0000
  O   O3        1.0  0.7502992022761336  0.24970063280597637  0.24970080575616252  1.0000
  O   O4        1.0  0.24970072917674696  0.7502994211531111  0.7502991767519451  1.0000
  O   O5        1.0  0.24970076120479706  0.7502994409077443  0.24970070298822175  1.0000
  O   O6        1.0  0.7502992852353676  0.24970056021026832  0.7502993013969209  1.0000
