data_image0
_chemical_formula_structural       Cr2AsN6
_chemical_formula_sum              "Cr2 As1 N6"
_cell_length_a       4.88272468486929
_cell_length_b       4.882724360090816
_cell_length_c       4.88272432444537
_cell_angle_alpha    60.00000007764558
_cell_angle_beta     60.00000106170408
_cell_angle_gamma    60.000001004792445

_space_group_name_H-M_alt    "P 1"
_space_group_IT_number       1

loop_
  _space_group_symop_operation_xyz
  'x, y, z'

loop_
  _atom_site_type_symbol
  _atom_site_label
  _atom_site_symmetry_multiplicity
  _atom_site_fract_x
  _atom_site_fract_y
  _atom_site_fract_z
  _atom_site_occupancy
  Cr  Cr1       1.0  0.2500005904637807  0.25000085364722446  0.24999914964189932  1.0000
  Cr  Cr2       1.0  0.7499996241154611  0.7500010709978976  0.7499994866755081  1.0000
  As  As1       1.0  0.9999999687074999  0.9999999874583855  1.7820983719592545e-08  1.0000
  N   N1        1.0  0.2637928170051719  0.2637925323041849  0.736207294732351  1.0000
  N   N2        1.0  0.7362075551772155  0.7362069968926878  0.26379270012793676  1.0000
  N   N3        1.0  0.7362070831541772  0.2637921879548974  0.26379328272275177  1.0000
  N   N4        1.0  0.2637929719268878  0.7362069800434901  0.7362075469123938  1.0000
  N   N5        1.0  0.26379255695574655  0.736206996015517  0.26379287784121813  1.0000
  N   N6        1.0  0.7362068800787487  0.2637923801736458  0.736207601703808  1.0000
