data_image0
_chemical_formula_structural       Cr2AsS6
_chemical_formula_sum              "Cr2 As1 S6"
_cell_length_a       6.4402898569059595
_cell_length_b       6.44028972262571
_cell_length_c       6.4402896853913445
_cell_angle_alpha    59.99999963625106
_cell_angle_beta     60.00000088655254
_cell_angle_gamma    59.9999994264723

_space_group_name_H-M_alt    "P 1"
_space_group_IT_number       1

loop_
  _space_group_symop_operation_xyz
  'x, y, z'

loop_
  _atom_site_type_symbol
  _atom_site_label
  _atom_site_symmetry_multiplicity
  _atom_site_fract_x
  _atom_site_fract_y
  _atom_site_fract_z
  _atom_site_occupancy
  Cr  Cr1       1.0  0.25000007147053743  0.25000023716147585  0.24999990944184736  1.0000
  Cr  Cr2       1.0  0.7500000290097202  0.7499999660210815  0.7499999965620658  1.0000
  As  As1       1.0  1.1609011984153012e-08  0.9999999866881547  0.9999999729023634  1.0000
  S   S1        1.0  0.25513920670951673  0.255139256733738  0.7448607430909893  1.0000
  S   S2        1.0  0.7448608338831747  0.7448607334592918  0.25513923103156355  1.0000
  S   S3        1.0  0.7448606829314051  0.2551391887384618  0.25513928784658857  1.0000
  S   S4        1.0  0.2551391825163559  0.7448607406004175  0.7448608166973061  1.0000
  S   S5        1.0  0.25513920753817476  0.7448606923462041  0.2551392530318556  1.0000
  S   S6        1.0  0.7448607576084728  0.2551391799419088  0.7448608068971019  1.0000
