data_image0
_chemical_formula_structural       Cr2AsSe6
_chemical_formula_sum              "Cr2 As1 Se6"
_cell_length_a       6.447460274965408
_cell_length_b       6.4474595021948335
_cell_length_c       6.447459820448755
_cell_angle_alpha    60.00000211945146
_cell_angle_beta     60.000001980121866
_cell_angle_gamma    59.999998752964125

_space_group_name_H-M_alt    "P 1"
_space_group_IT_number       1

loop_
  _space_group_symop_operation_xyz
  'x, y, z'

loop_
  _atom_site_type_symbol
  _atom_site_label
  _atom_site_symmetry_multiplicity
  _atom_site_fract_x
  _atom_site_fract_y
  _atom_site_fract_z
  _atom_site_occupancy
  Cr  Cr1       1.0  0.24999904066846765  0.25000013307136637  0.24999927333218916  1.0000
  Cr  Cr2       1.0  0.7500014128400992  0.7499993791412788  0.7500030415796077  1.0000
  As  As1       1.0  0.9999999946271864  0.9999999999999952  0.9999998941165198  1.0000
  Se  Se1       1.0  0.2816645110048292  0.28166596455204346  0.7183354750947628  1.0000
  Se  Se2       1.0  0.7183347951261314  0.7183346741098894  0.28166349392064566  1.0000
  Se  Se3       1.0  0.7183351368558583  0.2816660144211936  0.2816645466782543  1.0000
  Se  Se4       1.0  0.2816642794100939  0.7183345463580947  0.7183351274252441  1.0000
  Se  Se5       1.0  0.2816655651452416  0.7183348577293595  0.2816649197707013  1.0000
  Se  Se6       1.0  0.718335270091061  0.2816643904418832  0.7183342715250409  1.0000
