data_image0
_chemical_formula_structural       Cr2BTe6
_chemical_formula_sum              "Cr2 B1 Te6"
_cell_length_a       6.923148553412854
_cell_length_b       6.92314875893599
_cell_length_c       6.9231486736153895
_cell_angle_alpha    60.00000095207685
_cell_angle_beta     60.00000087755875
_cell_angle_gamma    60.0000000606489

_space_group_name_H-M_alt    "P 1"
_space_group_IT_number       1

loop_
  _space_group_symop_operation_xyz
  'x, y, z'

loop_
  _atom_site_type_symbol
  _atom_site_label
  _atom_site_symmetry_multiplicity
  _atom_site_fract_x
  _atom_site_fract_y
  _atom_site_fract_z
  _atom_site_occupancy
  Cr  Cr1       1.0  0.25000012643222813  0.24999993083483377  0.2499999625994795  1.0000
  Cr  Cr2       1.0  0.7499998535344619  0.7500002789953343  0.7499997601023232  1.0000
  B   B1        1.0  0.9999999497264282  7.0762302666125e-08  0.9999999449783206  1.0000
  Te  Te1       1.0  0.238922877073089  0.23892266962907732  0.7610772268424868  1.0000
  Te  Te2       1.0  0.7610771382603765  0.761077288994918  0.2389228522208835  1.0000
  Te  Te3       1.0  0.7610772284527192  0.23892263491432095  0.23892285414623618  1.0000
  Te  Te4       1.0  0.23892285856799797  0.7610772087209328  0.7610772350124434  1.0000
  Te  Te5       1.0  0.23892271121453926  0.7610772525896338  0.2389228003465133  1.0000
  Te  Te6       1.0  0.7610772598954646  0.2389226635769809  0.7610773523902965  1.0000
