data_image0
_chemical_formula_structural       Cr2BO6
_chemical_formula_sum              "Cr2 B1 O6"
_cell_length_a       4.590405744510874
_cell_length_b       4.590405551607732
_cell_length_c       4.590404900670574
_cell_angle_alpha    59.99999761017798
_cell_angle_beta     59.99999661850784
_cell_angle_gamma    59.999998045469084

_space_group_name_H-M_alt    "P 1"
_space_group_IT_number       1

loop_
  _space_group_symop_operation_xyz
  'x, y, z'

loop_
  _atom_site_type_symbol
  _atom_site_label
  _atom_site_symmetry_multiplicity
  _atom_site_fract_x
  _atom_site_fract_y
  _atom_site_fract_z
  _atom_site_occupancy
  Cr  Cr1       1.0  0.2500002655402061  0.2500004821023203  0.24999968852320767  1.0000
  Cr  Cr2       1.0  0.7499997681320274  0.749999581337357  0.7500001245335355  1.0000
  B   B1        1.0  6.37497943136078e-08  4.268885816735607e-08  1.8669750154158538e-08  1.0000
  O   O1        1.0  0.2413202889273276  0.24132043497081299  0.7586795423802085  1.0000
  O   O2        1.0  0.758679581897895  0.7586797698757172  0.24132024000593352  1.0000
  O   O3        1.0  0.7586797333869195  0.2413204574159853  0.24132032301570164  1.0000
  O   O4        1.0  0.24132045606985114  0.7586793952474262  0.7586798617331226  1.0000
  O   O5        1.0  0.2413204228177897  0.7586794769732478  0.24132048219120383  1.0000
  O   O6        1.0  0.7586795117138363  0.24132033300130595  0.75867974897716  1.0000
