data_image0
_chemical_formula_structural       Cr2BSe6
_chemical_formula_sum              "Cr2 B1 Se6"
_cell_length_a       6.367090764423862
_cell_length_b       6.367090628338947
_cell_length_c       6.367090751497003
_cell_angle_alpha    60.000002174375744
_cell_angle_beta     60.00000053669772
_cell_angle_gamma    60.00000049940927

_space_group_name_H-M_alt    "P 1"
_space_group_IT_number       1

loop_
  _space_group_symop_operation_xyz
  'x, y, z'

loop_
  _atom_site_type_symbol
  _atom_site_label
  _atom_site_symmetry_multiplicity
  _atom_site_fract_x
  _atom_site_fract_y
  _atom_site_fract_z
  _atom_site_occupancy
  Cr  Cr1       1.0  0.24999996283008968  0.25000001641293973  0.25000010991447374  1.0000
  Cr  Cr2       1.0  0.7500000505401967  0.7499998568833143  0.749999914558379  1.0000
  B   B1        1.0  5.019469797682657e-09  0.9999999903822256  1.1722608138947223e-08  1.0000
  Se  Se1       1.0  0.2374372379821799  0.23743735208460995  0.7625627027711142  1.0000
  Se  Se2       1.0  0.7625626886458637  0.7625627270320222  0.23743733283859567  1.0000
  Se  Se3       1.0  0.7625626977413541  0.23743733070555673  0.23743729782973494  1.0000
  Se  Se4       1.0  0.23743731075398214  0.762562671468878  0.7625627117587854  1.0000
  Se  Se5       1.0  0.2374372963789469  0.7625626364120439  0.23743730941623314  1.0000
  Se  Se6       1.0  0.762562758388479  0.23743741192770743  0.762562617830337  1.0000
