data_image0
_chemical_formula_structural       Cr2BS6
_chemical_formula_sum              "Cr2 B1 S6"
_cell_length_a       6.132226374055977
_cell_length_b       6.132226506129389
_cell_length_c       6.132226773499136
_cell_angle_alpha    59.99999891262864
_cell_angle_beta     59.99999937922781
_cell_angle_gamma    59.99999877683885

_space_group_name_H-M_alt    "P 1"
_space_group_IT_number       1

loop_
  _space_group_symop_operation_xyz
  'x, y, z'

loop_
  _atom_site_type_symbol
  _atom_site_label
  _atom_site_symmetry_multiplicity
  _atom_site_fract_x
  _atom_site_fract_y
  _atom_site_fract_z
  _atom_site_occupancy
  Cr  Cr1       1.0  0.25000013834166485  0.24999989891858873  0.250000119188582  1.0000
  Cr  Cr2       1.0  0.7499999805600769  0.7499999663814273  0.7500002687588254  1.0000
  B   B1        1.0  0.999999979818879  3.794731487975478e-08  0.999999955240865  1.0000
  S   S1        1.0  0.2294699760799828  0.2294699237116395  0.7705300283484359  1.0000
  S   S2        1.0  0.7705301240275457  0.770530071408138  0.22946981486749943  1.0000
  S   S3        1.0  0.7705298935472165  0.22947014216272538  0.22946982136954996  1.0000
  S   S4        1.0  0.22946994323989223  0.7705301006132135  0.7705300052175771  1.0000
  S   S5        1.0  0.22946994456243994  0.770530037661234  0.22946988732113283  1.0000
  S   S6        1.0  0.7705300157100827  0.22946985160550942  0.7705301195070452  1.0000
