data_image0
_chemical_formula_structural       Cr2BiSe6
_chemical_formula_sum              "Cr2 Bi1 Se6"
_cell_length_a       6.789567316415013
_cell_length_b       6.78956760756105
_cell_length_c       6.789567432266681
_cell_angle_alpha    60.00000058264083
_cell_angle_beta     60.000000269709645
_cell_angle_gamma    60.000000657699644

_space_group_name_H-M_alt    "P 1"
_space_group_IT_number       1

loop_
  _space_group_symop_operation_xyz
  'x, y, z'

loop_
  _atom_site_type_symbol
  _atom_site_label
  _atom_site_symmetry_multiplicity
  _atom_site_fract_x
  _atom_site_fract_y
  _atom_site_fract_z
  _atom_site_occupancy
  Cr  Cr1       1.0  0.24999979073281936  0.2499999924549364  0.25000022492097757  1.0000
  Cr  Cr2       1.0  0.7500001110474205  0.7499995516531837  0.7499999054895518  1.0000
  Bi  Bi1       1.0  3.272592517621333e-08  0.9999999783536461  0.9999999738403443  1.0000
  Se  Se1       1.0  0.2912162440066911  0.2912164399719455  0.7087836088385159  1.0000
  Se  Se2       1.0  0.7087836625570486  0.7087836561181968  0.2912164803177598  1.0000
  Se  Se3       1.0  0.7087836870604586  0.29121648092546293  0.2912162283676569  1.0000
  Se  Se4       1.0  0.29121639776406966  0.7087838099818642  0.7087835490575634  1.0000
  Se  Se5       1.0  0.29121629289581513  0.708783552826615  0.29121641694027967  1.0000
  Se  Se6       1.0  0.7087837776394107  0.2912165360480751  0.7087836144578504  1.0000
