data_image0
_chemical_formula_structural       Cr2CoO6
_chemical_formula_sum              "Cr2 Co1 O6"
_cell_length_a       4.964280988120725
_cell_length_b       4.9642807493647085
_cell_length_c       4.964281131703565
_cell_angle_alpha    59.99999859516334
_cell_angle_beta     59.99999838985716
_cell_angle_gamma    59.99999893590179

_space_group_name_H-M_alt    "P 1"
_space_group_IT_number       1

loop_
  _space_group_symop_operation_xyz
  'x, y, z'

loop_
  _atom_site_type_symbol
  _atom_site_label
  _atom_site_symmetry_multiplicity
  _atom_site_fract_x
  _atom_site_fract_y
  _atom_site_fract_z
  _atom_site_occupancy
  Cr  Cr1       1.0  0.25000035273477755  0.24999976122229875  0.24999973327098188  1.0000
  Cr  Cr2       1.0  0.7499996934965738  0.7500002655784614  0.7500002009959778  1.0000
  Co  Co1       1.0  0.9999999653677193  2.713825842662555e-08  0.9999999654735949  1.0000
  O   O1        1.0  0.25315117703068063  0.2531508218517759  0.746849037411186  1.0000
  O   O2        1.0  0.746848929112744  0.7468492345543591  0.2531508943992466  1.0000
  O   O3        1.0  0.7468490789558511  0.2531510218101375  0.25315098465202457  1.0000
  O   O4        1.0  0.25315093776696135  0.74684892604296  0.7468490803898684  1.0000
  O   O5        1.0  0.25315105818775285  0.746848965302796  0.25315093732988475  1.0000
  O   O6        1.0  0.7468488251538866  0.2531509430764689  0.7468492161539019  1.0000
