data_image0
_chemical_formula_structural       Cr2CoTe6
_chemical_formula_sum              "Cr2 Co1 Te6"
_cell_length_a       6.905202357160267
_cell_length_b       6.905202448605241
_cell_length_c       6.90520254220506
_cell_angle_alpha    60.0000004963084
_cell_angle_beta     59.99999995634534
_cell_angle_gamma    60.000001504294346

_space_group_name_H-M_alt    "P 1"
_space_group_IT_number       1

loop_
  _space_group_symop_operation_xyz
  'x, y, z'

loop_
  _atom_site_type_symbol
  _atom_site_label
  _atom_site_symmetry_multiplicity
  _atom_site_fract_x
  _atom_site_fract_y
  _atom_site_fract_z
  _atom_site_occupancy
  Cr  Cr1       1.0  0.25000007299393845  0.24999997774439822  0.2499999966748362  1.0000
  Cr  Cr2       1.0  0.7500000478909657  0.7499999899901593  0.749999879202171  1.0000
  Co  Co1       1.0  0.9999999764701042  3.547310442849212e-08  0.9999999549274429  1.0000
  Te  Te1       1.0  0.24896328984129334  0.24896331724752702  0.7510366951549875  1.0000
  Te  Te2       1.0  0.7510367255576188  0.7510367161122746  0.24896333243708677  1.0000
  Te  Te3       1.0  0.7510366548010605  0.24896327164044815  0.24896333998386685  1.0000
  Te  Te4       1.0  0.2489632887098703  0.7510367315672131  0.7510367053200484  1.0000
  Te  Te5       1.0  0.24896324509958187  0.751036694089855  0.24896336006382216  1.0000
  Te  Te6       1.0  0.7510367003038447  0.24896326832373572  0.7510367437918333  1.0000
