data_image0
_chemical_formula_structural       Cr2CoS6
_chemical_formula_sum              "Cr2 Co1 S6"
_cell_length_a       6.175460298268364
_cell_length_b       6.175460094299266
_cell_length_c       6.175460129479407
_cell_angle_alpha    59.99999996993476
_cell_angle_beta     60.00000037490199
_cell_angle_gamma    59.999999631537506

_space_group_name_H-M_alt    "P 1"
_space_group_IT_number       1

loop_
  _space_group_symop_operation_xyz
  'x, y, z'

loop_
  _atom_site_type_symbol
  _atom_site_label
  _atom_site_symmetry_multiplicity
  _atom_site_fract_x
  _atom_site_fract_y
  _atom_site_fract_z
  _atom_site_occupancy
  Cr  Cr1       1.0  0.24999994383731317  0.2499999710202527  0.2500001042562109  1.0000
  Cr  Cr2       1.0  0.7499999646612028  0.7500001867485321  0.7499998842656714  1.0000
  Co  Co1       1.0  2.419424917623017e-08  5.94973429586755e-09  0.9999999930245709  1.0000
  S   S1        1.0  0.24735094288267087  0.24735077441857883  0.7526491796039116  1.0000
  S   S2        1.0  0.7526491533402107  0.7526490501650895  0.24735094804015886  1.0000
  S   S3        1.0  0.7526490897128474  0.2473507742065398  0.24735091258812542  1.0000
  S   S4        1.0  0.2473508413402866  0.7526491812712807  0.7526490524500522  1.0000
  S   S5        1.0  0.24735088329890623  0.7526491476215944  0.2473508446679546  1.0000
  S   S6        1.0  0.7526491752973675  0.24735088520277146  0.7526490713626937  1.0000
