data_image0
_chemical_formula_structural       Cr2CS6
_chemical_formula_sum              "Cr2 C1 S6"
_cell_length_a       5.956489063136056
_cell_length_b       5.956489287055821
_cell_length_c       5.956489337003197
_cell_angle_alpha    59.999999252817716
_cell_angle_beta     59.999999330864696
_cell_angle_gamma    59.99999956449639

_space_group_name_H-M_alt    "P 1"
_space_group_IT_number       1

loop_
  _space_group_symop_operation_xyz
  'x, y, z'

loop_
  _atom_site_type_symbol
  _atom_site_label
  _atom_site_symmetry_multiplicity
  _atom_site_fract_x
  _atom_site_fract_y
  _atom_site_fract_z
  _atom_site_occupancy
  Cr  Cr1       1.0  0.24999996449926914  0.25000013225615936  0.25000008018753184  1.0000
  Cr  Cr2       1.0  0.7500001757849535  0.7500003001293344  0.7499986015258061  1.0000
  C   C1        1.0  0.9999895635507549  0.9999937575217859  1.8667695050362923e-05  1.0000
  S   S1        1.0  0.23447867289684204  0.23447854532138604  0.7655211150621397  1.0000
  S   S2        1.0  0.7655294482260749  0.7655295585680432  0.2344710869105896  1.0000
  S   S3        1.0  0.7655284491266062  0.23447112349225604  0.23447187927680938  1.0000
  S   S4        1.0  0.23447779134567182  0.7655227908906445  0.7655223408075043  1.0000
  S   S5        1.0  0.23447210769044333  0.7655271441902091  0.2344730013542925  1.0000
  S   S6        1.0  0.7655238464435897  0.23447665206039794  0.7655231384197871  1.0000
