data_image0
_chemical_formula_structural       Cr2CoSe6
_chemical_formula_sum              "Cr2 Co1 Se6"
_cell_length_a       6.475311058472824
_cell_length_b       6.4753105910210165
_cell_length_c       6.475310886431177
_cell_angle_alpha    59.99999769554784
_cell_angle_beta     59.999998926053586
_cell_angle_gamma    59.99999874394003

_space_group_name_H-M_alt    "P 1"
_space_group_IT_number       1

loop_
  _space_group_symop_operation_xyz
  'x, y, z'

loop_
  _atom_site_type_symbol
  _atom_site_label
  _atom_site_symmetry_multiplicity
  _atom_site_fract_x
  _atom_site_fract_y
  _atom_site_fract_z
  _atom_site_occupancy
  Cr  Cr1       1.0  0.24999991332176788  0.24999999877378312  0.24999985139971817  1.0000
  Cr  Cr2       1.0  0.7500001151987858  0.7500001438511151  0.7500000603482398  1.0000
  Co  Co1       1.0  2.9360013524886637e-09  1.8914071656407236e-09  4.391611756840053e-08  1.0000
  Se  Se1       1.0  0.25015286589916175  0.250152887967187  0.7498470952575824  1.0000
  Se  Se2       1.0  0.749847121591603  0.7498470995623207  0.250152750854263  1.0000
  Se  Se3       1.0  0.7498471992298277  0.2501528577373658  0.2501529176525413  1.0000
  Se  Se4       1.0  0.25015285997055203  0.7498470163077106  0.7498471918061131  1.0000
  Se  Se5       1.0  0.2501528462746615  0.7498471457412381  0.25015293596754673  1.0000
  Se  Se6       1.0  0.749847081108385  0.25015284557108275  0.7498471514239327  1.0000
