data_image0
_chemical_formula_structural       Cr2CO6
_chemical_formula_sum              "Cr2 C1 O6"
_cell_length_a       4.720243538651581
_cell_length_b       4.720243982408767
_cell_length_c       4.720243312560103
_cell_angle_alpha    59.99999894126259
_cell_angle_beta     59.99999928325463
_cell_angle_gamma    59.999999557900544

_space_group_name_H-M_alt    "P 1"
_space_group_IT_number       1

loop_
  _space_group_symop_operation_xyz
  'x, y, z'

loop_
  _atom_site_type_symbol
  _atom_site_label
  _atom_site_symmetry_multiplicity
  _atom_site_fract_x
  _atom_site_fract_y
  _atom_site_fract_z
  _atom_site_occupancy
  Cr  Cr1       1.0  0.2499997978885293  0.25000015112315943  0.24999991573061542  1.0000
  Cr  Cr2       1.0  0.7500002393727263  0.7499996775648097  0.7500000003613713  1.0000
  C   C1        1.0  0.9999999044935072  1.7643718481069143e-07  0.9999998218298821  1.0000
  O   O1        1.0  0.23056672461303737  0.23056671251708016  0.7694332710950004  1.0000
  O   O2        1.0  0.7694332977458097  0.7694332562827578  0.23056669043752817  1.0000
  O   O3        1.0  0.7694334338062065  0.23056673767294142  0.23056670100650276  1.0000
  O   O4        1.0  0.23056674150618445  0.7694332492895362  0.7694333232653708  1.0000
  O   O5        1.0  0.23056668671980318  0.7694332823423281  0.23056680934269397  1.0000
  O   O6        1.0  0.7694331676346993  0.23056681619071687  0.7694333980086308  1.0000
