data_image0
_chemical_formula_structural       Cr2FeS6
_chemical_formula_sum              "Cr2 Fe1 S6"
_cell_length_a       6.267696869232472
_cell_length_b       6.267696754089788
_cell_length_c       6.2676967642617845
_cell_angle_alpha    60.00000068167546
_cell_angle_beta     60.00000117446448
_cell_angle_gamma    60.000000992240196

_space_group_name_H-M_alt    "P 1"
_space_group_IT_number       1

loop_
  _space_group_symop_operation_xyz
  'x, y, z'

loop_
  _atom_site_type_symbol
  _atom_site_label
  _atom_site_symmetry_multiplicity
  _atom_site_fract_x
  _atom_site_fract_y
  _atom_site_fract_z
  _atom_site_occupancy
  Cr  Cr1       1.0  0.2500000132560094  0.2500000478974087  0.24999983283797297  1.0000
  Cr  Cr2       1.0  0.7499999788826961  0.7499999228835725  0.7500000940734  1.0000
  Fe  Fe1       1.0  5.504562114286803e-08  1.1724353324778003e-08  0.9999998740770327  1.0000
  S   S1        1.0  0.24657951241309387  0.2465795371958261  0.7534205137382599  1.0000
  S   S2        1.0  0.7534204143509234  0.7534204804825686  0.24657947984911757  1.0000
  S   S3        1.0  0.7534204682059392  0.24657958107653022  0.24657953986690795  1.0000
  S   S4        1.0  0.24657956154196162  0.7534203818882172  0.7534206114703474  1.0000
  S   S5        1.0  0.2465795390434031  0.7534205117273733  0.24657956030419192  1.0000
  S   S6        1.0  0.7534204543404867  0.24657955480249522  0.7534204856357998  1.0000
