data_image0
_chemical_formula_structural       Cr2FeSe6
_chemical_formula_sum              "Cr2 Fe1 Se6"
_cell_length_a       6.564138922270877
_cell_length_b       6.5641390644159126
_cell_length_c       6.564138682279215
_cell_angle_alpha    60.00000137372455
_cell_angle_beta     60.000000754511724
_cell_angle_gamma    59.999999312113474

_space_group_name_H-M_alt    "P 1"
_space_group_IT_number       1

loop_
  _space_group_symop_operation_xyz
  'x, y, z'

loop_
  _atom_site_type_symbol
  _atom_site_label
  _atom_site_symmetry_multiplicity
  _atom_site_fract_x
  _atom_site_fract_y
  _atom_site_fract_z
  _atom_site_occupancy
  Cr  Cr1       1.0  0.2500000407155057  0.24999997762665033  0.25000006187739243  1.0000
  Cr  Cr2       1.0  0.7499998972798309  0.7500001325218261  0.750000149494851  1.0000
  Fe  Fe1       1.0  2.5304323883156596e-08  0.9999999029777824  0.9999999794920698  1.0000
  Se  Se1       1.0  0.2461996163673663  0.24619954801714528  0.7538003622669082  1.0000
  Se  Se2       1.0  0.7538004095497155  0.7538004408535592  0.24619949711350236  1.0000
  Se  Se3       1.0  0.7538004494874369  0.24619952914478457  0.2461995508412759  1.0000
  Se  Se4       1.0  0.24619948738904182  0.7538005474190794  0.7538004158528949  1.0000
  Se  Se5       1.0  0.24619961512480426  0.7538004825538693  0.24619948789861495  1.0000
  Se  Se6       1.0  0.7538004731261915  0.24619943541598224  0.753800502209882  1.0000
