data_image0
_chemical_formula_structural       Cr2FeO6
_chemical_formula_sum              "Cr2 Fe1 O6"
_cell_length_a       5.210680963747835
_cell_length_b       5.2106809708961075
_cell_length_c       5.2106808752169815
_cell_angle_alpha    60.00000109516067
_cell_angle_beta     60.00000185171104
_cell_angle_gamma    60.00000098082942

_space_group_name_H-M_alt    "P 1"
_space_group_IT_number       1

loop_
  _space_group_symop_operation_xyz
  'x, y, z'

loop_
  _atom_site_type_symbol
  _atom_site_label
  _atom_site_symmetry_multiplicity
  _atom_site_fract_x
  _atom_site_fract_y
  _atom_site_fract_z
  _atom_site_occupancy
  Cr  Cr1       1.0  0.2500003804370345  0.2500004235624025  0.24999982827539846  1.0000
  Cr  Cr2       1.0  0.7500008303617413  0.7499993315654032  0.7500000667465657  1.0000
  Fe  Fe1       1.0  2.424186256270823e-08  7.051352024192097e-09  0.999999959404638  1.0000
  O   O1        1.0  0.24220370845954214  0.24220426341065218  0.7577958397567696  1.0000
  O   O2        1.0  0.7577958766629773  0.7577959876622427  0.24220403863286163  1.0000
  O   O3        1.0  0.7577957229559378  0.24220417922118131  0.24220388095427678  1.0000
  O   O4        1.0  0.24220383736791445  0.7577959002688145  0.7577961090600813  1.0000
  O   O5        1.0  0.24220380953782997  0.757795890528858  0.24220418998954704  1.0000
  O   O6        1.0  0.7577958208732076  0.24220403853229514  0.757796041704814  1.0000
