data_image0
_chemical_formula_structural       Cr2FeTe6
_chemical_formula_sum              "Cr2 Fe1 Te6"
_cell_length_a       6.930139869802148
_cell_length_b       6.930139937761367
_cell_length_c       6.9301400462390985
_cell_angle_alpha    59.99999928962304
_cell_angle_beta     59.9999996538667
_cell_angle_gamma    59.99999949615254

_space_group_name_H-M_alt    "P 1"
_space_group_IT_number       1

loop_
  _space_group_symop_operation_xyz
  'x, y, z'

loop_
  _atom_site_type_symbol
  _atom_site_label
  _atom_site_symmetry_multiplicity
  _atom_site_fract_x
  _atom_site_fract_y
  _atom_site_fract_z
  _atom_site_occupancy
  Cr  Cr1       1.0  0.2499997604482168  0.25000021803226863  0.2499998983311556  1.0000
  Cr  Cr2       1.0  0.7500000029716736  0.7500000337839996  0.7499999877637653  1.0000
  Fe  Fe1       1.0  0.9999999893963621  3.1810913099928e-08  0.9999999663088058  1.0000
  Te  Te1       1.0  0.24588032167810514  0.24588023799214592  0.7541197890911908  1.0000
  Te  Te2       1.0  0.7541199400285189  0.7541195136858772  0.24588030138858025  1.0000
  Te  Te3       1.0  0.7541197661862491  0.24588025170282218  0.24588027523784553  1.0000
  Te  Te4       1.0  0.2458802094188597  0.7541196784697692  0.7541198113265064  1.0000
  Te  Te5       1.0  0.2458802598443235  0.7541197794992786  0.2458802445498546  1.0000
  Te  Te6       1.0  0.7541197471644345  0.24588025140787062  0.7541197326562254  1.0000
