data_image0
_chemical_formula_structural       Cr2GaTe6
_chemical_formula_sum              "Cr2 Ga1 Te6"
_cell_length_a       7.186106151749308
_cell_length_b       7.1861061601263145
_cell_length_c       7.186106140121793
_cell_angle_alpha    60.00000040536267
_cell_angle_beta     60.00000041155297
_cell_angle_gamma    60.0000004636461

_space_group_name_H-M_alt    "P 1"
_space_group_IT_number       1

loop_
  _space_group_symop_operation_xyz
  'x, y, z'

loop_
  _atom_site_type_symbol
  _atom_site_label
  _atom_site_symmetry_multiplicity
  _atom_site_fract_x
  _atom_site_fract_y
  _atom_site_fract_z
  _atom_site_occupancy
  Cr  Cr1       1.0  0.25000001668225114  0.24999996671334856  0.24999998173058688  1.0000
  Cr  Cr2       1.0  0.7500000553044968  0.7499999614956868  0.7499998715294165  1.0000
  Ga  Ga1       1.0  0.9999999956500816  3.408646779628351e-09  2.412739747103344e-08  1.0000
  Te  Te1       1.0  0.26538894720032385  0.26538901934896897  0.7346110055306567  1.0000
  Te  Te2       1.0  0.7346110124348707  0.7346110145281155  0.2653890528493595  1.0000
  Te  Te3       1.0  0.7346110280040496  0.26538895669392837  0.2653889987891124  1.0000
  Te  Te4       1.0  0.2653890029341649  0.7346110175318381  0.7346110064515297  1.0000
  Te  Te5       1.0  0.26538896621774133  0.734611045473762  0.2653890115735623  1.0000
  Te  Te6       1.0  0.7346109790365383  0.2653890122638494  0.7346110420666478  1.0000
