data_image0
_chemical_formula_structural       Cr2GaO6
_chemical_formula_sum              "Cr2 Ga1 O6"
_cell_length_a       5.091873153049666
_cell_length_b       5.0918734723899854
_cell_length_c       5.091873085369683
_cell_angle_alpha    60.000001949229485
_cell_angle_beta     60.00000025643386
_cell_angle_gamma    60.000000323677746

_space_group_name_H-M_alt    "P 1"
_space_group_IT_number       1

loop_
  _space_group_symop_operation_xyz
  'x, y, z'

loop_
  _atom_site_type_symbol
  _atom_site_label
  _atom_site_symmetry_multiplicity
  _atom_site_fract_x
  _atom_site_fract_y
  _atom_site_fract_z
  _atom_site_occupancy
  Cr  Cr1       1.0  0.24999964329694677  0.25000035924645275  0.24999999875105627  1.0000
  Cr  Cr2       1.0  0.7500001061804029  0.7499996850745961  0.7500000749820657  1.0000
  Ga  Ga1       1.0  0.9999999693286336  0.9999999831629482  6.49963997458548e-08  1.0000
  O   O1        1.0  0.26015835344023486  0.2601585033097031  0.7398415121456421  1.0000
  O   O2        1.0  0.7398416913925627  0.7398415121478219  0.260158495114588  1.0000
  O   O3        1.0  0.73984171760531  0.2601585313466398  0.2601583052867065  1.0000
  O   O4        1.0  0.26015839894595555  0.7398415682961442  0.7398416416968842  1.0000
  O   O5        1.0  0.2601584714424768  0.7398414146926985  0.2601583183782346  1.0000
  O   O6        1.0  0.7398416709972168  0.26015843720489046  0.7398415784928059  1.0000
