data_image0
_chemical_formula_structural       Cr2GaSe6
_chemical_formula_sum              "Cr2 Ga1 Se6"
_cell_length_a       6.524035313097605
_cell_length_b       6.524035224804717
_cell_length_c       6.524035223783841
_cell_angle_alpha    59.99999876240463
_cell_angle_beta     60.000004528927576
_cell_angle_gamma    60.000000025997544

_space_group_name_H-M_alt    "P 1"
_space_group_IT_number       1

loop_
  _space_group_symop_operation_xyz
  'x, y, z'

loop_
  _atom_site_type_symbol
  _atom_site_label
  _atom_site_symmetry_multiplicity
  _atom_site_fract_x
  _atom_site_fract_y
  _atom_site_fract_z
  _atom_site_occupancy
  Cr  Cr1       1.0  0.24999981195751983  0.2500001816092645  0.2500006919057473  1.0000
  Cr  Cr2       1.0  0.7500008247856876  0.7499999196932109  0.7499993118666294  1.0000
  Ga  Ga1       1.0  8.718909277552754e-08  9.949590692590956e-08  0.9999998790672155  1.0000
  Se  Se1       1.0  0.27274033363811717  0.27274062639887947  0.7272593673638503  1.0000
  Se  Se2       1.0  0.7272592771449544  0.7272593510030422  0.27274087718981715  1.0000
  Se  Se3       1.0  0.7272594125414648  0.2727402976540384  0.27274061096653524  1.0000
  Se  Se4       1.0  0.27274021765858764  0.7272595896383912  0.7272594068256687  1.0000
  Se  Se5       1.0  0.2727402041631648  0.7272593139412018  0.27274075005349285  1.0000
  Se  Se6       1.0  0.727259822461588  0.2727406371787887  0.7272591065883081  1.0000
