data_image0
_chemical_formula_structural       Cr2GeSe6
_chemical_formula_sum              "Cr2 Ge1 Se6"
_cell_length_a       6.660583945721169
_cell_length_b       6.6605840370509855
_cell_length_c       6.660583825935944
_cell_angle_alpha    59.99999920352674
_cell_angle_beta     60.00000004348456
_cell_angle_gamma    60.00000062546728

_space_group_name_H-M_alt    "P 1"
_space_group_IT_number       1

loop_
  _space_group_symop_operation_xyz
  'x, y, z'

loop_
  _atom_site_type_symbol
  _atom_site_label
  _atom_site_symmetry_multiplicity
  _atom_site_fract_x
  _atom_site_fract_y
  _atom_site_fract_z
  _atom_site_occupancy
  Cr  Cr1       1.0  0.25000026959762667  0.25000001169831865  0.24999983035680545  1.0000
  Cr  Cr2       1.0  0.7499999945113787  0.7500000075130179  0.7500001987637887  1.0000
  Ge  Ge1       1.0  3.3801454222406e-09  0.9999999742568706  0.9999999631376558  1.0000
  Se  Se1       1.0  0.2591052308006423  0.2591052022868077  0.7408947358341109  1.0000
  Se  Se2       1.0  0.740894750515927  0.7408948279573033  0.25910507334165134  1.0000
  Se  Se3       1.0  0.7408946368562278  0.2591052644611287  0.2591052580593905  1.0000
  Se  Se4       1.0  0.25910520119981173  0.7408947326846669  0.7408948314711412  1.0000
  Se  Se5       1.0  0.25910523356329856  0.7408947840497138  0.25910524174406685  1.0000
  Se  Se6       1.0  0.74089468415272  0.25910518735295157  0.7408948613650276  1.0000
