data_image0
_chemical_formula_structural       Cr2GaS6
_chemical_formula_sum              "Cr2 Ga1 S6"
_cell_length_a       6.27905350398099
_cell_length_b       6.279053557594212
_cell_length_c       6.2790534004440905
_cell_angle_alpha    60.00000098492116
_cell_angle_beta     60.00000091946332
_cell_angle_gamma    60.00000058031001

_space_group_name_H-M_alt    "P 1"
_space_group_IT_number       1

loop_
  _space_group_symop_operation_xyz
  'x, y, z'

loop_
  _atom_site_type_symbol
  _atom_site_label
  _atom_site_symmetry_multiplicity
  _atom_site_fract_x
  _atom_site_fract_y
  _atom_site_fract_z
  _atom_site_occupancy
  Cr  Cr1       1.0  0.24999995559202634  0.24999995405243666  0.25000007321983725  1.0000
  Cr  Cr2       1.0  0.7500000213962972  0.7499999830898364  0.7500000356978345  1.0000
  Ga  Ga1       1.0  1.9282141800695952e-08  0.999999953187409  5.358014321404984e-08  1.0000
  S   S1        1.0  0.2566328737060641  0.2566328692506325  0.7433670737399457  1.0000
  S   S2        1.0  0.743367147564141  0.7433671888241672  0.25663278853305754  1.0000
  S   S3        1.0  0.7433671691560229  0.2566328465655594  0.25663288918852245  1.0000
  S   S4        1.0  0.25663280508177  0.7433671705482232  0.7433671142295968  1.0000
  S   S5        1.0  0.25663282806768145  0.7433671898750013  0.2566328522426443  1.0000
  S   S6        1.0  0.7433671803488573  0.2566328350408798  0.7433671206294722  1.0000
