data_image0
_chemical_formula_structural       Cr2GaS6
_chemical_formula_sum              "Cr2 Ga1 S6"
_cell_length_a       6.2790539961502665
_cell_length_b       6.279054015342003
_cell_length_c       6.279053967318817
_cell_angle_alpha    59.99999931658712
_cell_angle_beta     60.000000169435715
_cell_angle_gamma    59.999999301723015

_space_group_name_H-M_alt    "P 1"
_space_group_IT_number       1

loop_
  _space_group_symop_operation_xyz
  'x, y, z'

loop_
  _atom_site_type_symbol
  _atom_site_label
  _atom_site_symmetry_multiplicity
  _atom_site_fract_x
  _atom_site_fract_y
  _atom_site_fract_z
  _atom_site_occupancy
  Cr  Cr1       1.0  0.2500000675196237  0.2499999871983391  0.25000001332224503  1.0000
  Cr  Cr2       1.0  0.749999966555255  0.7500000903296401  0.7499998085264395  1.0000
  Ga  Ga1       1.0  4.805552003466968e-08  0.999999955137936  0.9999999745143233  1.0000
  S   S1        1.0  0.25663290071831407  0.25663282433166407  0.7433671074531301  1.0000
  S   S2        1.0  0.7433671056062974  0.7433671654227095  0.2566329807876462  1.0000
  S   S3        1.0  0.7433670689374069  0.25663283428163747  0.2566329176001832  1.0000
  S   S4        1.0  0.2566328846880474  0.7433671866811292  0.7433671208673039  1.0000
  S   S5        1.0  0.2566328270878901  0.7433671275129666  0.2566328740667896  1.0000
  S   S6        1.0  0.7433671339317318  0.25663282713196645  0.7433672002329174  1.0000
