data_image0
_chemical_formula_structural       Cr2GeTe6
_chemical_formula_sum              "Cr2 Ge1 Te6"
_cell_length_a       7.1857179068638715
_cell_length_b       7.1857178186973165
_cell_length_c       7.185717951540175
_cell_angle_alpha    59.999999684780526
_cell_angle_beta     60.00000021694246
_cell_angle_gamma    59.99999944582455

_space_group_name_H-M_alt    "P 1"
_space_group_IT_number       1

loop_
  _space_group_symop_operation_xyz
  'x, y, z'

loop_
  _atom_site_type_symbol
  _atom_site_label
  _atom_site_symmetry_multiplicity
  _atom_site_fract_x
  _atom_site_fract_y
  _atom_site_fract_z
  _atom_site_occupancy
  Cr  Cr1       1.0  0.25000007172340566  0.2499999203858994  0.25000001145894624  1.0000
  Cr  Cr2       1.0  0.7499999312237807  0.7500000730657347  0.7500000162210902  1.0000
  Ge  Ge1       1.0  2.306527475101496e-08  0.9999999982955844  0.9999999754030766  1.0000
  Te  Te1       1.0  0.2665718687110038  0.2665718013854896  0.7334281689691006  1.0000
  Te  Te2       1.0  0.733428091238757  0.7334281716131587  0.26657190017768717  1.0000
  Te  Te3       1.0  0.7334281359845639  0.2665718508904765  0.26657185759673446  1.0000
  Te  Te4       1.0  0.26657183688473096  0.7334281749450519  0.7334281257891697  1.0000
  Te  Te5       1.0  0.26657188867049025  0.7334281775311398  0.26657180774633055  1.0000
  Te  Te6       1.0  0.7334281541577219  0.2665718312602334  0.7334281352656987  1.0000
