data_image0
_chemical_formula_structural       Cr2GaTe6
_chemical_formula_sum              "Cr2 Ga1 Te6"
_cell_length_a       7.186105775170946
_cell_length_b       7.186105791899653
_cell_length_c       7.186105754743126
_cell_angle_alpha    60.0000005427497
_cell_angle_beta     59.999999619681915
_cell_angle_gamma    60.00000028319478

_space_group_name_H-M_alt    "P 1"
_space_group_IT_number       1

loop_
  _space_group_symop_operation_xyz
  'x, y, z'

loop_
  _atom_site_type_symbol
  _atom_site_label
  _atom_site_symmetry_multiplicity
  _atom_site_fract_x
  _atom_site_fract_y
  _atom_site_fract_z
  _atom_site_occupancy
  Cr  Cr1       1.0  0.2500000411350775  0.24999992084354522  0.24999999970047776  1.0000
  Cr  Cr2       1.0  0.7500000438701385  0.7500000011359186  0.7499998569454968  1.0000
  Ga  Ga1       1.0  2.5060769015767767e-08  0.9999999778437951  0.9999999971561435  1.0000
  Te  Te1       1.0  0.26538897117402405  0.2653890238352434  0.7346110016294504  1.0000
  Te  Te2       1.0  0.7346109790644566  0.734611027672804  0.26538906498017006  1.0000
  Te  Te3       1.0  0.734610988403912  0.2653889391094956  0.26538905696600074  1.0000
  Te  Te4       1.0  0.2653889931612471  0.7346110425212902  0.7346110094368707  1.0000
  Te  Te5       1.0  0.26538897375010556  0.7346110448160041  0.26538900191573306  1.0000
  Te  Te6       1.0  0.7346109876388643  0.26538901180501345  0.7346110175980775  1.0000
