data_image0
_chemical_formula_structural       Cr2GeS6
_chemical_formula_sum              "Cr2 Ge1 S6"
_cell_length_a       6.418159817346897
_cell_length_b       6.418159795110975
_cell_length_c       6.4181597945838
_cell_angle_alpha    60.00000029430122
_cell_angle_beta     60.00000053486487
_cell_angle_gamma    59.99999974419485

_space_group_name_H-M_alt    "P 1"
_space_group_IT_number       1

loop_
  _space_group_symop_operation_xyz
  'x, y, z'

loop_
  _atom_site_type_symbol
  _atom_site_label
  _atom_site_symmetry_multiplicity
  _atom_site_fract_x
  _atom_site_fract_y
  _atom_site_fract_z
  _atom_site_occupancy
  Cr  Cr1       1.0  0.25000012646961794  0.2499999857190576  0.24999992541238258  1.0000
  Cr  Cr2       1.0  0.7499999169770015  0.750000243394565  0.74999996872567  1.0000
  Ge  Ge1       1.0  0.999999985915762  1.5265994202105774e-08  1.0315674884150715e-08  1.0000
  S   S1        1.0  0.253685256711238  0.2536851307550933  0.7463148209349065  1.0000
  S   S2        1.0  0.7463148020420393  0.7463147987633945  0.25368517327925094  1.0000
  S   S3        1.0  0.7463147934430681  0.2536850897363988  0.2536852257358202  1.0000
  S   S4        1.0  0.2536852134820127  0.7463147901676085  0.7463148051769644  1.0000
  S   S5        1.0  0.25368519844439924  0.7463148236649866  0.25368516203423047  1.0000
  S   S6        1.0  0.746314708964978  0.2536851173029976  0.7463148896624963  1.0000
