data_image0
_chemical_formula_structural       Cr2GaO6
_chemical_formula_sum              "Cr2 Ga1 O6"
_cell_length_a       5.091872747165687
_cell_length_b       5.091872903654255
_cell_length_c       5.0918728042088155
_cell_angle_alpha    60.00000261448958
_cell_angle_beta     60.0000018190522
_cell_angle_gamma    60.00000293638443

_space_group_name_H-M_alt    "P 1"
_space_group_IT_number       1

loop_
  _space_group_symop_operation_xyz
  'x, y, z'

loop_
  _atom_site_type_symbol
  _atom_site_label
  _atom_site_symmetry_multiplicity
  _atom_site_fract_x
  _atom_site_fract_y
  _atom_site_fract_z
  _atom_site_occupancy
  Cr  Cr1       1.0  0.24999966230234097  0.2500003124727469  0.2500001555653842  1.0000
  Cr  Cr2       1.0  0.7499999398071068  0.7499999223844263  0.7499999262640611  1.0000
  Ga  Ga1       1.0  0.9999999702915575  0.9999999326517843  3.478092999003454e-08  1.0000
  O   O1        1.0  0.2601584189973502  0.2601584989960664  0.7398415483520969  1.0000
  O   O2        1.0  0.7398416339822216  0.7398415193847065  0.26015854589881104  1.0000
  O   O3        1.0  0.7398415074711318  0.26015852412767826  0.2601583681349518  1.0000
  O   O4        1.0  0.26015858557305943  0.7398414148784115  0.7398416377557206  1.0000
  O   O5        1.0  0.26015841166615317  0.7398414490333708  0.2601584743857429  1.0000
  O   O6        1.0  0.7398418432360062  0.26015840578744903  0.7398413276998105  1.0000
