data_image0
_chemical_formula_structural       Cr2GeO6
_chemical_formula_sum              "Cr2 Ge1 O6"
_cell_length_a       5.094186792139448
_cell_length_b       5.094186757636633
_cell_length_c       5.09418678058989
_cell_angle_alpha    59.99999988821005
_cell_angle_beta     59.999999804779506
_cell_angle_gamma    59.9999997266133

_space_group_name_H-M_alt    "P 1"
_space_group_IT_number       1

loop_
  _space_group_symop_operation_xyz
  'x, y, z'

loop_
  _atom_site_type_symbol
  _atom_site_label
  _atom_site_symmetry_multiplicity
  _atom_site_fract_x
  _atom_site_fract_y
  _atom_site_fract_z
  _atom_site_occupancy
  Cr  Cr1       1.0  0.24999999490210079  0.2500000208725244  0.25000000142975126  1.0000
  Cr  Cr2       1.0  0.7500000048788091  0.7499999952999459  0.7499999925274207  1.0000
  Ge  Ge1       1.0  0.9999999855983853  2.4042009754736353e-09  2.0726631715544076e-09  1.0000
  O   O1        1.0  0.25624425092192554  0.25624425321781136  0.7437557532522598  1.0000
  O   O2        1.0  0.7437557568729878  0.743755738912649  0.25624425657100275  1.0000
  O   O3        1.0  0.7437557477554175  0.25624425967550263  0.25624424262997975  1.0000
  O   O4        1.0  0.2562442362960741  0.7437557492843647  0.743755758872159  1.0000
  O   O5        1.0  0.2562442637307177  0.7437557389638492  0.256244250057065  1.0000
  O   O6        1.0  0.7437557524671036  0.2562442483582093  0.7437557403017476  1.0000
