data_image0
_chemical_formula_structural       Cr2HfS6
_chemical_formula_sum              "Cr2 Hf1 S6"
_cell_length_a       6.43871501513659
_cell_length_b       6.438714995961114
_cell_length_c       6.4387149689087
_cell_angle_alpha    59.99999987384476
_cell_angle_beta     60.00000101441448
_cell_angle_gamma    60.0000003050929

_space_group_name_H-M_alt    "P 1"
_space_group_IT_number       1

loop_
  _space_group_symop_operation_xyz
  'x, y, z'

loop_
  _atom_site_type_symbol
  _atom_site_label
  _atom_site_symmetry_multiplicity
  _atom_site_fract_x
  _atom_site_fract_y
  _atom_site_fract_z
  _atom_site_occupancy
  Cr  Cr1       1.0  0.25000004461524605  0.25000001825212437  0.24999996573522695  1.0000
  Cr  Cr2       1.0  0.7499999421912704  0.7500000110067547  0.749999990058044  1.0000
  Hf  Hf1       1.0  0.9999999559085617  0.9999999923913707  1.9637613779920594e-08  1.0000
  S   S1        1.0  0.2663844282438154  0.26638435186037485  0.73361560648838  1.0000
  S   S2        1.0  0.7336156475630763  0.7336155556604369  0.26638443245725013  1.0000
  S   S3        1.0  0.7336155996429874  0.26638440592211254  0.2663843966085357  1.0000
  S   S4        1.0  0.26638440256103035  0.7336156309453957  0.7336155678720343  1.0000
  S   S5        1.0  0.2663843716025794  0.7336156375257433  0.26638442220942987  1.0000
  S   S6        1.0  0.7336156007481829  0.2663843974396073  0.7336156047419945  1.0000
