data_image0
_chemical_formula_structural       Cr2HfTe6
_chemical_formula_sum              "Cr2 Hf1 Te6"
_cell_length_a       7.359666438867762
_cell_length_b       7.35966641957001
_cell_length_c       7.359666487983971
_cell_angle_alpha    59.999999674968734
_cell_angle_beta     59.999999084836425
_cell_angle_gamma    59.999999536935746

_space_group_name_H-M_alt    "P 1"
_space_group_IT_number       1

loop_
  _space_group_symop_operation_xyz
  'x, y, z'

loop_
  _atom_site_type_symbol
  _atom_site_label
  _atom_site_symmetry_multiplicity
  _atom_site_fract_x
  _atom_site_fract_y
  _atom_site_fract_z
  _atom_site_occupancy
  Cr  Cr1       1.0  0.24999985706210673  0.25000010206245615  0.25000002534399246  1.0000
  Cr  Cr2       1.0  0.7500001295668549  0.749999958383997  0.7500000237349247  1.0000
  Hf  Hf1       1.0  0.999999981743547  0.9999999700456427  5.082804167992397e-09  1.0000
  Te  Te1       1.0  0.26671011164120156  0.2667101697673714  0.733289858134637  1.0000
  Te  Te2       1.0  0.7332899337842534  0.7332898790301647  0.26671006818121445  1.0000
  Te  Te3       1.0  0.7332898969050272  0.26671013702956414  0.26671013771579455  1.0000
  Te  Te4       1.0  0.26671007989963913  0.7332898352179479  0.7332898992306658  1.0000
  Te  Te5       1.0  0.26671012146577056  0.7332898473994227  0.2667101481796276  1.0000
  Te  Te6       1.0  0.7332898981766208  0.26671009988612476  0.7332898295549349  1.0000
