data_image0
_chemical_formula_structural       Cr2HfO6
_chemical_formula_sum              "Cr2 Hf1 O6"
_cell_length_a       5.2927129863522815
_cell_length_b       5.292713183588419
_cell_length_c       5.292713136955918
_cell_angle_alpha    59.99999861311217
_cell_angle_beta     59.99999899829091
_cell_angle_gamma    59.999998790610334

_space_group_name_H-M_alt    "P 1"
_space_group_IT_number       1

loop_
  _space_group_symop_operation_xyz
  'x, y, z'

loop_
  _atom_site_type_symbol
  _atom_site_label
  _atom_site_symmetry_multiplicity
  _atom_site_fract_x
  _atom_site_fract_y
  _atom_site_fract_z
  _atom_site_occupancy
  Cr  Cr1       1.0  0.25000008104206217  0.2499999068682957  0.2500000483925679  1.0000
  Cr  Cr2       1.0  0.7499999508187014  0.750000100104315  0.7500001866042839  1.0000
  Hf  Hf1       1.0  0.9999999921769616  0.9999999907439173  0.9999999669729777  1.0000
  O   O1        1.0  0.268634627970013  0.26863461262851107  0.731365357851919  1.0000
  O   O2        1.0  0.7313653809282921  0.7313653781459613  0.26863449239574205  1.0000
  O   O3        1.0  0.7313653730968431  0.2686346119137316  0.2686346028201828  1.0000
  O   O4        1.0  0.2686345992195623  0.7313653904308431  0.7313653903012961  1.0000
  O   O5        1.0  0.268634618021667  0.7313654199553385  0.26863458579409977  1.0000
  O   O6        1.0  0.731365363021458  0.2686345823892366  0.7313653765125572  1.0000
