data_image0
_chemical_formula_structural       Cr2IrO6
_chemical_formula_sum              "Cr2 Ir1 O6"
_cell_length_a       5.436142774629477
_cell_length_b       5.436142680278375
_cell_length_c       5.436142864679798
_cell_angle_alpha    59.99999947236518
_cell_angle_beta     60.00000056000911
_cell_angle_gamma    60.000000435494776

_space_group_name_H-M_alt    "P 1"
_space_group_IT_number       1

loop_
  _space_group_symop_operation_xyz
  'x, y, z'

loop_
  _atom_site_type_symbol
  _atom_site_label
  _atom_site_symmetry_multiplicity
  _atom_site_fract_x
  _atom_site_fract_y
  _atom_site_fract_z
  _atom_site_occupancy
  Cr  Cr1       1.0  0.25000048170041056  0.2500002759907732  0.2499994087144212  1.0000
  Cr  Cr2       1.0  0.7500003526796301  0.7499997465482635  0.7499999311513796  1.0000
  Ir  Ir1       1.0  3.905900754951302e-09  0.9999999436758309  1.3332356835511745e-08  1.0000
  O   O1        1.0  0.24378900715597773  0.2437896926992518  0.7562104959873167  1.0000
  O   O2        1.0  0.756210700087046  0.756210512330082  0.2437895498233628  1.0000
  O   O3        1.0  0.7562105181242379  0.24378944039476058  0.24378940248163602  1.0000
  O   O4        1.0  0.24378932397276873  0.756210487519663  0.7562108193132637  1.0000
  O   O5        1.0  0.24378944623767454  0.7562107407970334  0.24378928623517762  1.0000
  O   O6        1.0  0.7562101782127801  0.2437891645877204  0.7562110666850684  1.0000
