data_image0
_chemical_formula_structural       Cr2IrSe6
_chemical_formula_sum              "Cr2 Ir1 Se6"
_cell_length_a       6.66180659657057
_cell_length_b       6.6618064869223605
_cell_length_c       6.661806637210387
_cell_angle_alpha    59.99999903005457
_cell_angle_beta     59.999999921802456
_cell_angle_gamma    60.000000881386036

_space_group_name_H-M_alt    "P 1"
_space_group_IT_number       1

loop_
  _space_group_symop_operation_xyz
  'x, y, z'

loop_
  _atom_site_type_symbol
  _atom_site_label
  _atom_site_symmetry_multiplicity
  _atom_site_fract_x
  _atom_site_fract_y
  _atom_site_fract_z
  _atom_site_occupancy
  Cr  Cr1       1.0  0.25000005289641747  0.2499999469751307  0.2499998769947864  1.0000
  Cr  Cr2       1.0  0.7499999524217457  0.7500000229326903  0.7499999628475498  1.0000
  Ir  Ir1       1.0  0.9999999623747592  3.6769145542796452e-09  4.621257457201389e-10  1.0000
  Se  Se1       1.0  0.2591377392652544  0.25913774362281944  0.7408622737896619  1.0000
  Se  Se2       1.0  0.7408622992471938  0.7408623035002206  0.25913772400331314  1.0000
  Se  Se3       1.0  0.7408622418892548  0.2591377588808759  0.2591378096864985  1.0000
  Se  Se4       1.0  0.2591377750363941  0.7408622386038084  0.7408622432332802  1.0000
  Se  Se5       1.0  0.25913774417246715  0.7408622565964167  0.25913777239653635  1.0000
  Se  Se6       1.0  0.7408622355485134  0.25913772250369105  0.7408623308342794  1.0000
