data_image0
_chemical_formula_structural       Cr2IrSe6
_chemical_formula_sum              "Cr2 Ir1 Se6"
_cell_length_a       6.661827869131531
_cell_length_b       6.661827909971516
_cell_length_c       6.661827880136088
_cell_angle_alpha    60.00000076495493
_cell_angle_beta     60.000000821493046
_cell_angle_gamma    59.99999831758639

_space_group_name_H-M_alt    "P 1"
_space_group_IT_number       1

loop_
  _space_group_symop_operation_xyz
  'x, y, z'

loop_
  _atom_site_type_symbol
  _atom_site_label
  _atom_site_symmetry_multiplicity
  _atom_site_fract_x
  _atom_site_fract_y
  _atom_site_fract_z
  _atom_site_occupancy
  Cr  Cr1       1.0  0.250000055594589  0.24999987445404168  0.2500001248493882  1.0000
  Cr  Cr2       1.0  0.749999993726026  0.7500000333368533  0.7499999558717684  1.0000
  Ir  Ir1       1.0  0.9999999968307705  1.4707613395677044e-08  0.9999999582046597  1.0000
  Se  Se1       1.0  0.2591323579602824  0.2591323498496487  0.7408676444951031  1.0000
  Se  Se2       1.0  0.7408675772742759  0.7408677234019003  0.2591324000311282  1.0000
  Se  Se3       1.0  0.7408676982030495  0.25913229961589207  0.2591322650456825  1.0000
  Se  Se4       1.0  0.25913229535119275  0.7408677754741069  0.7408676728459169  1.0000
  Se  Se5       1.0  0.25913228675383154  0.7408676689088258  0.2591322581600612  1.0000
  Se  Se6       1.0  0.7408677379850297  0.2591322554281344  0.740867720001584  1.0000
