data_image0
_chemical_formula_structural       Cr2IrO6
_chemical_formula_sum              "Cr2 Ir1 O6"
_cell_length_a       5.435767538012667
_cell_length_b       5.435767491439358
_cell_length_c       5.435767400629377
_cell_angle_alpha    60.00000029148231
_cell_angle_beta     60.00000220072215
_cell_angle_gamma    59.99999948128196

_space_group_name_H-M_alt    "P 1"
_space_group_IT_number       1

loop_
  _space_group_symop_operation_xyz
  'x, y, z'

loop_
  _atom_site_type_symbol
  _atom_site_label
  _atom_site_symmetry_multiplicity
  _atom_site_fract_x
  _atom_site_fract_y
  _atom_site_fract_z
  _atom_site_occupancy
  Cr  Cr1       1.0  0.24999980423776122  0.24999991263647103  0.24999983636561948  1.0000
  Cr  Cr2       1.0  0.7499994314855175  0.7499999046404547  0.750000159570547  1.0000
  Ir  Ir1       1.0  2.323804529614374e-08  6.759366605111182e-09  0.9999999794822944  1.0000
  O   O1        1.0  0.24379313073247535  0.24379278661919282  0.7562071885752434  1.0000
  O   O2        1.0  0.7562070215131271  0.7562070914920193  0.24379300487828734  1.0000
  O   O3        1.0  0.7562071289743494  0.24379312825940724  0.2437928120653523  1.0000
  O   O4        1.0  0.24379318619148974  0.7562070067077414  0.7562071678207595  1.0000
  O   O5        1.0  0.2437930677239524  0.7562071370419431  0.24379291478820334  1.0000
  O   O6        1.0  0.7562072105562471  0.24379303848140768  0.7562069436842948  1.0000
