data_image0
_chemical_formula_structural       Cr2MnTe6
_chemical_formula_sum              "Cr2 Mn1 Te6"
_cell_length_a       6.949980151454053
_cell_length_b       6.9499799606791575
_cell_length_c       6.949979911841171
_cell_angle_alpha    60.000000316588874
_cell_angle_beta     60.00000072078033
_cell_angle_gamma    59.999999825540506

_space_group_name_H-M_alt    "P 1"
_space_group_IT_number       1

loop_
  _space_group_symop_operation_xyz
  'x, y, z'

loop_
  _atom_site_type_symbol
  _atom_site_label
  _atom_site_symmetry_multiplicity
  _atom_site_fract_x
  _atom_site_fract_y
  _atom_site_fract_z
  _atom_site_occupancy
  Cr  Cr1       1.0  0.2500000753677086  0.25000003161959794  0.24999991768224164  1.0000
  Cr  Cr2       1.0  0.7500000774456019  0.7500001071943894  0.7499997866752158  1.0000
  Mn  Mn1       1.0  5.766392695004587e-08  0.999999996475544  0.9999999297646719  1.0000
  Te  Te1       1.0  0.25373721875302424  0.25373719316174276  0.7462627845010916  1.0000
  Te  Te2       1.0  0.7462627607864154  0.746262767667225  0.2537372868532709  1.0000
  Te  Te3       1.0  0.7462627422771613  0.2537371802070196  0.2537373172995487  1.0000
  Te  Te4       1.0  0.2537371886945498  0.7462627718108087  0.7462628100824568  1.0000
  Te  Te5       1.0  0.2537371677500009  0.7462627511754218  0.2537373468536979  1.0000
  Te  Te6       1.0  0.7462627240352383  0.25373719379349474  0.7462628180345299  1.0000
