data_image0
_chemical_formula_structural       Cr2MnO6
_chemical_formula_sum              "Cr2 Mn1 O6"
_cell_length_a       5.4464235468214826
_cell_length_b       5.446423068896574
_cell_length_c       5.44642330391903
_cell_angle_alpha    60.000000677599566
_cell_angle_beta     59.999996609353545
_cell_angle_gamma    59.99999169634461

_space_group_name_H-M_alt    "P 1"
_space_group_IT_number       1

loop_
  _space_group_symop_operation_xyz
  'x, y, z'

loop_
  _atom_site_type_symbol
  _atom_site_label
  _atom_site_symmetry_multiplicity
  _atom_site_fract_x
  _atom_site_fract_y
  _atom_site_fract_z
  _atom_site_occupancy
  Cr  Cr1       1.0  0.2499999083141211  0.2500008913158865  0.25000023356028145  1.0000
  Cr  Cr2       1.0  0.7499996002837885  0.7500002048593836  0.7500003230608123  1.0000
  Mn  Mn1       1.0  9.660645772525504e-08  0.9999998628284253  2.211862008144231e-08  1.0000
  O   O1        1.0  0.2418780393900537  0.24187775224529692  0.758121966218991  1.0000
  O   O2        1.0  0.7581221963874799  0.7581218620271956  0.24187775412311138  1.0000
  O   O3        1.0  0.758122146006369  0.24187784198281578  0.24187791075929171  1.0000
  O   O4        1.0  0.24187788865844648  0.7581219049638336  0.7581219080644578  1.0000
  O   O5        1.0  0.24187798681440495  0.7581219281265318  0.24187791389066207  1.0000
  O   O6        1.0  0.758122278560169  0.2418776164358191  0.7581218632293356  1.0000
