data_image0
_chemical_formula_structural       Cr2MnS6
_chemical_formula_sum              "Cr2 Mn1 S6"
_cell_length_a       6.327211863586135
_cell_length_b       6.327212020195223
_cell_length_c       6.327211933342974
_cell_angle_alpha    59.999998782023795
_cell_angle_beta     60.000000167787334
_cell_angle_gamma    59.99999956411494

_space_group_name_H-M_alt    "P 1"
_space_group_IT_number       1

loop_
  _space_group_symop_operation_xyz
  'x, y, z'

loop_
  _atom_site_type_symbol
  _atom_site_label
  _atom_site_symmetry_multiplicity
  _atom_site_fract_x
  _atom_site_fract_y
  _atom_site_fract_z
  _atom_site_occupancy
  Cr  Cr1       1.0  0.2499999476119584  0.24999991716215858  0.25000012446351144  1.0000
  Cr  Cr2       1.0  0.7500000339204974  0.7499999392473037  0.7499999421551394  1.0000
  Mn  Mn1       1.0  2.3835382281892764e-08  0.999999994192964  0.9999999957272518  1.0000
  S   S1        1.0  0.24746415112557177  0.24746419870049377  0.7525358050421654  1.0000
  S   S2        1.0  0.752535872729161  0.7525357990135054  0.2474641887287764  1.0000
  S   S3        1.0  0.7525357777540244  0.24746425474572262  0.24746419534906783  1.0000
  S   S4        1.0  0.24746420288954682  0.7525358397522054  0.752535807986413  1.0000
  S   S5        1.0  0.24746407008102153  0.7525358522777028  0.24746418510757268  1.0000
  S   S6        1.0  0.7525359173469207  0.24746420544233366  0.752535754200921  1.0000
