data_image0
_chemical_formula_structural       Cr2MnSe6
_chemical_formula_sum              "Cr2 Mn1 Se6"
_cell_length_a       6.602848403103652
_cell_length_b       6.602848277405195
_cell_length_c       6.602848349957092
_cell_angle_alpha    60.000000604414836
_cell_angle_beta     60.000000359448414
_cell_angle_gamma    60.000000399769895

_space_group_name_H-M_alt    "P 1"
_space_group_IT_number       1

loop_
  _space_group_symop_operation_xyz
  'x, y, z'

loop_
  _atom_site_type_symbol
  _atom_site_label
  _atom_site_symmetry_multiplicity
  _atom_site_fract_x
  _atom_site_fract_y
  _atom_site_fract_z
  _atom_site_occupancy
  Cr  Cr1       1.0  0.25000003615311045  0.24999997515947056  0.2500000486019191  1.0000
  Cr  Cr2       1.0  0.7499999872259051  0.750000016367212  0.7499998550494938  1.0000
  Mn  Mn1       1.0  3.1902575464244046e-08  0.9999999777415175  0.9999999982069492  1.0000
  Se  Se1       1.0  0.24934810371823163  0.24934816306120494  0.7506518458988672  1.0000
  Se  Se2       1.0  0.750651879932587  0.7506518637080765  0.24934820387264628  1.0000
  Se  Se3       1.0  0.7506518958684422  0.2493480381260768  0.249348181452353  1.0000
  Se  Se4       1.0  0.24934814409835296  0.7506519088836415  0.750651830062522  1.0000
  Se  Se5       1.0  0.24934806566401757  0.7506519276730783  0.24934816418196326  1.0000
  Se  Se6       1.0  0.7506518463742295  0.2493481250644322  0.7506518720637716  1.0000
