data_image0
_chemical_formula_structural       Cr2MoO6
_chemical_formula_sum              "Cr2 Mo1 O6"
_cell_length_a       5.317158122483318
_cell_length_b       5.317158156674999
_cell_length_c       5.317158202394103
_cell_angle_alpha    60.000000445740866
_cell_angle_beta     60.000000405422206
_cell_angle_gamma    60.00000119314855

_space_group_name_H-M_alt    "P 1"
_space_group_IT_number       1

loop_
  _space_group_symop_operation_xyz
  'x, y, z'

loop_
  _atom_site_type_symbol
  _atom_site_label
  _atom_site_symmetry_multiplicity
  _atom_site_fract_x
  _atom_site_fract_y
  _atom_site_fract_z
  _atom_site_occupancy
  Cr  Cr1       1.0  0.24999977193753767  0.25000024588604336  0.2499998660600857  1.0000
  Cr  Cr2       1.0  0.7499997893078235  0.7500001641159144  0.7500000337480528  1.0000
  Mo  Mo1       1.0  0.9999999896460803  1.1516912133611913e-08  2.7629061822504403e-08  1.0000
  O   O1        1.0  0.2542798351715829  0.2542798845196347  0.7457201955015201  1.0000
  O   O2        1.0  0.745720311595249  0.7457199611536365  0.2542797933875321  1.0000
  O   O3        1.0  0.7457202653016506  0.25427969657954735  0.25428001447160004  1.0000
  O   O4        1.0  0.25427995598253933  0.7457200753854878  0.7457201282306085  1.0000
  O   O5        1.0  0.2542799586933976  0.7457200799038758  0.254279768595839  1.0000
  O   O6        1.0  0.7457201139286739  0.2542798579046913  0.7457202150593532  1.0000
