data_image0
_chemical_formula_structural       Cr2MoS6
_chemical_formula_sum              "Cr2 Mo1 S6"
_cell_length_a       6.481687458092569
_cell_length_b       6.481687540109202
_cell_length_c       6.481687509352455
_cell_angle_alpha    59.9999999454197
_cell_angle_beta     60.00000075399704
_cell_angle_gamma    60.0000001102559

_space_group_name_H-M_alt    "P 1"
_space_group_IT_number       1

loop_
  _space_group_symop_operation_xyz
  'x, y, z'

loop_
  _atom_site_type_symbol
  _atom_site_label
  _atom_site_symmetry_multiplicity
  _atom_site_fract_x
  _atom_site_fract_y
  _atom_site_fract_z
  _atom_site_occupancy
  Cr  Cr1       1.0  0.25000010443743065  0.24999995516527787  0.2500000095665594  1.0000
  Cr  Cr2       1.0  0.7499999367496111  0.7500001186950412  0.74999973399274  1.0000
  Mo  Mo1       1.0  2.735525097683708e-09  0.9999999811045369  1.4251201440744441e-08  1.0000
  S   S1        1.0  0.2530919280101662  0.2530918960155115  0.7469080695685107  1.0000
  S   S2        1.0  0.7469080617485911  0.7469081343852408  0.2530920207394858  1.0000
  S   S3        1.0  0.7469080427257645  0.2530918832232809  0.25309194827428394  1.0000
  S   S4        1.0  0.2530919746011907  0.7469081339506478  0.7469080500085802  1.0000
  S   S5        1.0  0.25309185886275076  0.7469080331049859  0.2530919699420266  1.0000
  S   S6        1.0  0.746908085389569  0.2530918612484331  0.7469081833723094  1.0000
