data_image0
_chemical_formula_structural       Cr2MoO6
_chemical_formula_sum              "Cr2 Mo1 O6"
_cell_length_a       5.317066441173775
_cell_length_b       5.31706648034702
_cell_length_c       5.317066438566728
_cell_angle_alpha    59.999999625964236
_cell_angle_beta     59.99999932050553
_cell_angle_gamma    60.00000063311353

_space_group_name_H-M_alt    "P 1"
_space_group_IT_number       1

loop_
  _space_group_symop_operation_xyz
  'x, y, z'

loop_
  _atom_site_type_symbol
  _atom_site_label
  _atom_site_symmetry_multiplicity
  _atom_site_fract_x
  _atom_site_fract_y
  _atom_site_fract_z
  _atom_site_occupancy
  Cr  Cr1       1.0  0.2500000944919121  0.24999986847324368  0.2500001966906211  1.0000
  Cr  Cr2       1.0  0.7500000587038477  0.750000383976419  0.7499996191877566  1.0000
  Mo  Mo1       1.0  0.999999954262833  6.910266176471285e-09  0.9999999874409331  1.0000
  O   O1        1.0  0.2542818807426423  0.254281697669257  0.7457182498845133  1.0000
  O   O2        1.0  0.7457181337550788  0.7457182737629015  0.2542818755306633  1.0000
  O   O3        1.0  0.7457181123715384  0.2542817217376248  0.2542818996224412  1.0000
  O   O4        1.0  0.2542817545831849  0.7457182427842665  0.7457181657256169  1.0000
  O   O5        1.0  0.2542817522835749  0.7457180515367219  0.2542818943080986  1.0000
  O   O6        1.0  0.7457182415098248  0.254281714890866  0.7457181446034743  1.0000
