data_image0
_chemical_formula_structural       Cr2MoSe6
_chemical_formula_sum              "Cr2 Mo1 Se6"
_cell_length_a       6.769873019116759
_cell_length_b       6.769873140054187
_cell_length_c       6.769872904574876
_cell_angle_alpha    60.000000471772864
_cell_angle_beta     60.00000020870212
_cell_angle_gamma    60.000000893128856

_space_group_name_H-M_alt    "P 1"
_space_group_IT_number       1

loop_
  _space_group_symop_operation_xyz
  'x, y, z'

loop_
  _atom_site_type_symbol
  _atom_site_label
  _atom_site_symmetry_multiplicity
  _atom_site_fract_x
  _atom_site_fract_y
  _atom_site_fract_z
  _atom_site_occupancy
  Cr  Cr1       1.0  0.24999993143592392  0.24999998329397957  0.2500001304565006  1.0000
  Cr  Cr2       1.0  0.750000013162463  0.7500000710923447  0.7500000160155198  1.0000
  Mo  Mo1       1.0  0.9999999990865691  1.8091105047105574e-08  0.9999999899340303  1.0000
  Se  Se1       1.0  0.2545731868966629  0.25457316544161074  0.7454268403764722  1.0000
  Se  Se2       1.0  0.7454268010848731  0.7454268201985154  0.25457317549521025  1.0000
  Se  Se3       1.0  0.7454267920166261  0.2545732194794295  0.25457319522298605  1.0000
  Se  Se4       1.0  0.25457324896114536  0.7454267299784875  0.7454267073652685  1.0000
  Se  Se5       1.0  0.2545732104753951  0.7454268199422132  0.25457315500329064  1.0000
  Se  Se6       1.0  0.745426814116917  0.2545731837890185  0.7454267832949423  1.0000
