data_image0
_chemical_formula_structural       Cr2NiO6
_chemical_formula_sum              "Cr2 Ni1 O6"
_cell_length_a       5.003603642630685
_cell_length_b       5.003603555424762
_cell_length_c       5.003603629957348
_cell_angle_alpha    60.000001482557536
_cell_angle_beta     59.999998831028975
_cell_angle_gamma    60.000000095364015

_space_group_name_H-M_alt    "P 1"
_space_group_IT_number       1

loop_
  _space_group_symop_operation_xyz
  'x, y, z'

loop_
  _atom_site_type_symbol
  _atom_site_label
  _atom_site_symmetry_multiplicity
  _atom_site_fract_x
  _atom_site_fract_y
  _atom_site_fract_z
  _atom_site_occupancy
  Cr  Cr1       1.0  0.2500001145616193  0.24999992139859104  0.2500000623324256  1.0000
  Cr  Cr2       1.0  0.7500000760071731  0.7499999649092619  0.7499998207674632  1.0000
  Ni  Ni1       1.0  0.9999999882053531  0.9999999730750186  2.7354052208322808e-08  1.0000
  O   O1        1.0  0.2507352745660885  0.2507354520265446  0.7492646920425017  1.0000
  O   O2        1.0  0.7492647702872038  0.7492645321903374  0.25073539283242857  1.0000
  O   O3        1.0  0.7492646441658629  0.25073528769028697  0.250735456187329  1.0000
  O   O4        1.0  0.2507353089817844  0.7492648262560492  0.7492644997549224  1.0000
  O   O5        1.0  0.25073530731634525  0.7492645385874753  0.2507354093991127  1.0000
  O   O6        1.0  0.7492645169259933  0.2507354774498376  0.7492646839330193  1.0000
