data_image0
_chemical_formula_structural       Cr2NO6
_chemical_formula_sum              "Cr2 N1 O6"
_cell_length_a       4.8493806603394125
_cell_length_b       4.849380963457135
_cell_length_c       4.84938071924577
_cell_angle_alpha    59.99999982131918
_cell_angle_beta     59.99999969595025
_cell_angle_gamma    59.99999955789702

_space_group_name_H-M_alt    "P 1"
_space_group_IT_number       1

loop_
  _space_group_symop_operation_xyz
  'x, y, z'

loop_
  _atom_site_type_symbol
  _atom_site_label
  _atom_site_symmetry_multiplicity
  _atom_site_fract_x
  _atom_site_fract_y
  _atom_site_fract_z
  _atom_site_occupancy
  Cr  Cr1       1.0  0.24999991320160092  0.25000015852982044  0.2499999526632622  1.0000
  Cr  Cr2       1.0  0.7499999929993726  0.7499999654244147  0.750000085356743  1.0000
  N   N1        1.0  4.0639296031435284e-07  6.238156582043621e-07  0.9999996931696988  1.0000
  O   O1        1.0  0.2333822056714092  0.23338219121106363  0.7666177697636908  1.0000
  O   O2        1.0  0.7666172553906722  0.7666172180070093  0.23338274508790277  1.0000
  O   O3        1.0  0.7666176402742243  0.23338243126371222  0.23338233259316868  1.0000
  O   O4        1.0  0.233382610258105  0.7666173668920566  0.766617426022811  1.0000
  O   O5        1.0  0.23338249591071775  0.7666175297733475  0.23338244255014148  1.0000
  O   O6        1.0  0.7666174596213481  0.23338254619506915  0.7666174545731373  1.0000
