data_image0
_chemical_formula_structural       Cr2NbTe6
_chemical_formula_sum              "Cr2 Nb1 Te6"
_cell_length_a       7.282672748460861
_cell_length_b       7.282672800246101
_cell_length_c       7.282672869271186
_cell_angle_alpha    59.9999999012468
_cell_angle_beta     59.99999961825074
_cell_angle_gamma    59.99999945454936

_space_group_name_H-M_alt    "P 1"
_space_group_IT_number       1

loop_
  _space_group_symop_operation_xyz
  'x, y, z'

loop_
  _atom_site_type_symbol
  _atom_site_label
  _atom_site_symmetry_multiplicity
  _atom_site_fract_x
  _atom_site_fract_y
  _atom_site_fract_z
  _atom_site_occupancy
  Cr  Cr1       1.0  0.2499999668223739  0.2499999324715059  0.25000005867659214  1.0000
  Cr  Cr2       1.0  0.7499999723715586  0.7500001287142289  0.7499998123992799  1.0000
  Nb  Nb1       1.0  7.831545647046623e-09  5.04517328182223e-09  2.2397207353032584e-08  1.0000
  Te  Te1       1.0  0.2620889134602659  0.26208885629889744  0.7379111173498178  1.0000
  Te  Te2       1.0  0.7379110951789369  0.7379111107102694  0.26208896931379283  1.0000
  Te  Te3       1.0  0.737911140314239  0.2620888074961743  0.2620889389853917  1.0000
  Te  Te4       1.0  0.26208891861451067  0.7379111275602281  0.7379110849580609  1.0000
  Te  Te5       1.0  0.2620888505616851  0.7379111485644085  0.26208891624559477  1.0000
  Te  Te6       1.0  0.7379111351901295  0.2620888823502866  0.737911077133468  1.0000
