data_image0
_chemical_formula_structural       Cr2NbO6
_chemical_formula_sum              "Cr2 Nb1 O6"
_cell_length_a       5.290250403129279
_cell_length_b       5.290250464091971
_cell_length_c       5.290250533230114
_cell_angle_alpha    59.99999803856962
_cell_angle_beta     59.99999832387363
_cell_angle_gamma    59.999997548013816

_space_group_name_H-M_alt    "P 1"
_space_group_IT_number       1

loop_
  _space_group_symop_operation_xyz
  'x, y, z'

loop_
  _atom_site_type_symbol
  _atom_site_label
  _atom_site_symmetry_multiplicity
  _atom_site_fract_x
  _atom_site_fract_y
  _atom_site_fract_z
  _atom_site_occupancy
  Cr  Cr1       1.0  0.24999997593954965  0.25000009363403103  0.25000000102985676  1.0000
  Cr  Cr2       1.0  0.7499998779418093  0.7500006073309319  0.7499998515816798  1.0000
  Nb  Nb1       1.0  0.9999999983241986  1.1575491362114932e-08  0.9999999496836834  1.0000
  O   O1        1.0  0.2625105912754467  0.2625103604793426  0.7374895622432368  1.0000
  O   O2        1.0  0.7374894699548677  0.7374894630634241  0.2625104968665931  1.0000
  O   O3        1.0  0.7374895375993107  0.2625103563778371  0.2625106398311575  1.0000
  O   O4        1.0  0.2625104792053946  0.7374894694800277  0.7374894913712087  1.0000
  O   O5        1.0  0.2625105033752114  0.7374893766160424  0.26251053857649514  1.0000
  O   O6        1.0  0.7374895370004025  0.2625103195963283  0.7374894812097058  1.0000
