data_image0
_chemical_formula_structural       Cr2NbSe6
_chemical_formula_sum              "Cr2 Nb1 Se6"
_cell_length_a       6.796250569610337
_cell_length_b       6.796250607748788
_cell_length_c       6.796250705287357
_cell_angle_alpha    59.99999996108531
_cell_angle_beta     59.999999568559254
_cell_angle_gamma    60.000000954279095

_space_group_name_H-M_alt    "P 1"
_space_group_IT_number       1

loop_
  _space_group_symop_operation_xyz
  'x, y, z'

loop_
  _atom_site_type_symbol
  _atom_site_label
  _atom_site_symmetry_multiplicity
  _atom_site_fract_x
  _atom_site_fract_y
  _atom_site_fract_z
  _atom_site_occupancy
  Cr  Cr1       1.0  0.24999994993441751  0.25000001335242916  0.25000003099481094  1.0000
  Cr  Cr2       1.0  0.7499999800275465  0.7500000418593773  0.7499999136734783  1.0000
  Nb  Nb1       1.0  4.299096184322011e-08  0.999999972968665  6.73418168302572e-09  1.0000
  Se  Se1       1.0  0.2584571063232803  0.25845707693064884  0.7415428971223761  1.0000
  Se  Se2       1.0  0.7415429437218699  0.7415428881767075  0.2584571002409227  1.0000
  Se  Se3       1.0  0.7415428599652615  0.2584571027893102  0.2584571368240143  1.0000
  Se  Se4       1.0  0.2584571175871089  0.7415429217869836  0.7415428920649976  1.0000
  Se  Se5       1.0  0.2584571012723507  0.7415428603491538  0.25845716904528704  1.0000
  Se  Se6       1.0  0.7415428973897715  0.25845712638327056  0.741542854968188  1.0000
