data_image0
_chemical_formula_structural       Cr2NiTe6
_chemical_formula_sum              "Cr2 Ni1 Te6"
_cell_length_a       6.9288528069717445
_cell_length_b       6.928852939108406
_cell_length_c       6.928853047065932
_cell_angle_alpha    59.99999957039645
_cell_angle_beta     59.99999939500687
_cell_angle_gamma    60.00000067308648

_space_group_name_H-M_alt    "P 1"
_space_group_IT_number       1

loop_
  _space_group_symop_operation_xyz
  'x, y, z'

loop_
  _atom_site_type_symbol
  _atom_site_label
  _atom_site_symmetry_multiplicity
  _atom_site_fract_x
  _atom_site_fract_y
  _atom_site_fract_z
  _atom_site_occupancy
  Cr  Cr1       1.0  0.24999982264906961  0.24999998815145952  0.2500001457880272  1.0000
  Cr  Cr2       1.0  0.749999976013363  0.7500000051092096  0.750000233722366  1.0000
  Ni  Ni1       1.0  0.9999999612658975  2.121121396387692e-08  3.3296529346037234e-08  1.0000
  Te  Te1       1.0  0.25540546252593904  0.25540544466702975  0.7445945321617193  1.0000
  Te  Te2       1.0  0.744594564852782  0.7445945273824274  0.25540532794292825  1.0000
  Te  Te3       1.0  0.7445946056722316  0.2554055335080472  0.255405390259845  1.0000
  Te  Te4       1.0  0.25540543124915754  0.7445945499002847  0.7445944829992868  1.0000
  Te  Te5       1.0  0.255405545079227  0.7445945203757559  0.2554054225521668  1.0000
  Te  Te6       1.0  0.7445946330941582  0.25540540925127364  0.7445944367662541  1.0000
