data_image0
_chemical_formula_structural       Cr2OsS6
_chemical_formula_sum              "Cr2 Os1 S6"
_cell_length_a       6.39716103785926
_cell_length_b       6.397161059140031
_cell_length_c       6.397161078225212
_cell_angle_alpha    59.99999993343013
_cell_angle_beta     60.000000085377394
_cell_angle_gamma    60.00000005415189

_space_group_name_H-M_alt    "P 1"
_space_group_IT_number       1

loop_
  _space_group_symop_operation_xyz
  'x, y, z'

loop_
  _atom_site_type_symbol
  _atom_site_label
  _atom_site_symmetry_multiplicity
  _atom_site_fract_x
  _atom_site_fract_y
  _atom_site_fract_z
  _atom_site_occupancy
  Cr  Cr1       1.0  0.24999998111437444  0.24999999343376425  0.2500000181705973  1.0000
  Cr  Cr2       1.0  0.749999981339256  0.7500000071044763  0.7500000064801998  1.0000
  Os  Os1       1.0  1.6554875013100435e-08  1.5316104886124027e-08  0.9999999871908969  1.0000
  S   S1        1.0  0.2552533222330764  0.2552533021660061  0.7447466871440206  1.0000
  S   S2        1.0  0.7447466762302524  0.7447466715690509  0.2552533266507456  1.0000
  S   S3        1.0  0.744746684622846  0.2552533254239641  0.25525330998714707  1.0000
  S   S4        1.0  0.2552533281523664  0.7447466866013551  0.7447466790697398  1.0000
  S   S5        1.0  0.25525331830231895  0.7447466793090775  0.2552533199252424  1.0000
  S   S6        1.0  0.744746688000476  0.25525332505818943  0.7447466621281384  1.0000
