data_image0
_chemical_formula_structural       Cr2OsO6
_chemical_formula_sum              "Cr2 Os1 O6"
_cell_length_a       5.402587961755861
_cell_length_b       5.402588076845162
_cell_length_c       5.402587967983948
_cell_angle_alpha    59.99999965564676
_cell_angle_beta     59.99999967192953
_cell_angle_gamma    60.000000498742494

_space_group_name_H-M_alt    "P 1"
_space_group_IT_number       1

loop_
  _space_group_symop_operation_xyz
  'x, y, z'

loop_
  _atom_site_type_symbol
  _atom_site_label
  _atom_site_symmetry_multiplicity
  _atom_site_fract_x
  _atom_site_fract_y
  _atom_site_fract_z
  _atom_site_occupancy
  Cr  Cr1       1.0  0.24999990007594838  0.2500001559527425  0.2499999947024857  1.0000
  Cr  Cr2       1.0  0.7500005300303599  0.7499999917967255  0.749999538847061  1.0000
  Os  Os1       1.0  0.999999995984679  0.9999999863982425  2.1765292783608292e-08  1.0000
  O   O1        1.0  0.24241777075511198  0.2424180460460516  0.7575821210557486  1.0000
  O   O2        1.0  0.7575820872448454  0.7575819906223925  0.2424180354341324  1.0000
  O   O3        1.0  0.7575820268140963  0.24241781966564366  0.24241802623084566  1.0000
  O   O4        1.0  0.24241787715105553  0.757582085519147  0.7575820730661683  1.0000
  O   O5        1.0  0.24241773419521517  0.7575820636549268  0.24241811067146488  1.0000
  O   O6        1.0  0.7575820925674767  0.24241785513162045  0.7575820685509849  1.0000
