data_image0
_chemical_formula_structural       Cr2OsSe6
_chemical_formula_sum              "Cr2 Os1 Se6"
_cell_length_a       6.671314206235856
_cell_length_b       6.6713140148852
_cell_length_c       6.671314124596412
_cell_angle_alpha    59.99999939534637
_cell_angle_beta     59.99999964300479
_cell_angle_gamma    59.99999947678879

_space_group_name_H-M_alt    "P 1"
_space_group_IT_number       1

loop_
  _space_group_symop_operation_xyz
  'x, y, z'

loop_
  _atom_site_type_symbol
  _atom_site_label
  _atom_site_symmetry_multiplicity
  _atom_site_fract_x
  _atom_site_fract_y
  _atom_site_fract_z
  _atom_site_occupancy
  Cr  Cr1       1.0  0.25000004383172386  0.24999987001008064  0.250000137113805  1.0000
  Cr  Cr2       1.0  0.7500000852451351  0.7500000084069909  0.7499999219964535  1.0000
  Os  Os1       1.0  0.9999999983741493  0.9999999944924872  0.9999999795834009  1.0000
  Se  Se1       1.0  0.25856894202549857  0.25856899357742136  0.7414310074180457  1.0000
  Se  Se2       1.0  0.7414310284225489  0.7414310647517302  0.2585690110714781  1.0000
  Se  Se3       1.0  0.7414310065290532  0.2585689084774802  0.25856900000896116  1.0000
  Se  Se4       1.0  0.2585689209808845  0.7414311021198945  0.7414309888677535  1.0000
  Se  Se5       1.0  0.25856895184283013  0.7414310570017831  0.25856896314336936  1.0000
  Se  Se6       1.0  0.7414310265424999  0.2585690086707185  0.7414309817518159  1.0000
