data_image0
_chemical_formula_structural       Cr2PS6
_chemical_formula_sum              "Cr2 P1 S6"
_cell_length_a       6.313849500184892
_cell_length_b       6.313849746991237
_cell_length_c       6.313849672139688
_cell_angle_alpha    59.99999870126629
_cell_angle_beta     59.99999993698118
_cell_angle_gamma    60.000000339333376

_space_group_name_H-M_alt    "P 1"
_space_group_IT_number       1

loop_
  _space_group_symop_operation_xyz
  'x, y, z'

loop_
  _atom_site_type_symbol
  _atom_site_label
  _atom_site_symmetry_multiplicity
  _atom_site_fract_x
  _atom_site_fract_y
  _atom_site_fract_z
  _atom_site_occupancy
  Cr  Cr1       1.0  0.2499999210958077  0.25000004184339175  0.2500000017030197  1.0000
  Cr  Cr2       1.0  0.7500000547414917  0.7499998985764816  0.7500000821424411  1.0000
  P   P1        1.0  0.9999999879556661  0.9999999922408992  1.7820816256598052e-08  1.0000
  S   S1        1.0  0.24065059837090413  0.2406506344961234  0.7593493531674659  1.0000
  S   S2        1.0  0.7593493874219478  0.7593493912738593  0.24065055948722017  1.0000
  S   S3        1.0  0.75934933589238  0.24065076650790518  0.24065068547767524  1.0000
  S   S4        1.0  0.24065066901924953  0.7593493116360042  0.7593492912113042  1.0000
  S   S5        1.0  0.24065066713312722  0.7593493096425168  0.24065067185654368  1.0000
  S   S6        1.0  0.759349339128786  0.24065066569330973  0.7593493634804358  1.0000
