data_image0
_chemical_formula_structural       Cr2PbS6
_chemical_formula_sum              "Cr2 Pb1 S6"
_cell_length_a       6.576680199071975
_cell_length_b       6.57668014208957
_cell_length_c       6.576680059800619
_cell_angle_alpha    59.99999864708945
_cell_angle_beta     59.999998939833894
_cell_angle_gamma    59.99999884812394

_space_group_name_H-M_alt    "P 1"
_space_group_IT_number       1

loop_
  _space_group_symop_operation_xyz
  'x, y, z'

loop_
  _atom_site_type_symbol
  _atom_site_label
  _atom_site_symmetry_multiplicity
  _atom_site_fract_x
  _atom_site_fract_y
  _atom_site_fract_z
  _atom_site_occupancy
  Cr  Cr1       1.0  0.24999989735062417  0.2500001266877854  0.24999998589277098  1.0000
  Cr  Cr2       1.0  0.7500000484054137  0.7499999536071883  0.7500000733174003  1.0000
  Pb  Pb1       1.0  1.083573909282356e-08  1.4898032799950398e-08  0.999999926312153  1.0000
  S   S1        1.0  0.2739180243466253  0.2739179401082349  0.7260820226646945  1.0000
  S   S2        1.0  0.7260820052442545  0.7260820098289594  0.2739179868217931  1.0000
  S   S3        1.0  0.7260819662634002  0.2739180279992984  0.27391800041820646  1.0000
  S   S4        1.0  0.27391799728141936  0.726082009463834  0.7260819983283419  1.0000
  S   S5        1.0  0.2739179889586255  0.7260819689555587  0.2739180292151797  1.0000
  S   S6        1.0  0.7260820554237822  0.2739179418743015  0.7260819954702592  1.0000
