data_image0
_chemical_formula_structural       Cr2PtS6
_chemical_formula_sum              "Cr2 Pt1 S6"
_cell_length_a       6.373059993575524
_cell_length_b       6.373059890988643
_cell_length_c       6.373059913685083
_cell_angle_alpha    60.00000018016145
_cell_angle_beta     60.00000095165318
_cell_angle_gamma    59.99999972628038

_space_group_name_H-M_alt    "P 1"
_space_group_IT_number       1

loop_
  _space_group_symop_operation_xyz
  'x, y, z'

loop_
  _atom_site_type_symbol
  _atom_site_label
  _atom_site_symmetry_multiplicity
  _atom_site_fract_x
  _atom_site_fract_y
  _atom_site_fract_z
  _atom_site_occupancy
  Cr  Cr1       1.0  0.2500000536705111  0.25000009027449605  0.24999987518178612  1.0000
  Cr  Cr2       1.0  0.7500000487745871  0.7499999172208854  0.7500000200829438  1.0000
  Pt  Pt1       1.0  5.215725202148795e-09  1.1530519711346519e-08  3.242360687292151e-08  1.0000
  S   S1        1.0  0.25489061807804253  0.25489073587052735  0.7451093319013972  1.0000
  S   S2        1.0  0.7451093709712293  0.7451092639378414  0.25489067097790086  1.0000
  S   S3        1.0  0.7451093453128868  0.254890655324468  0.25489064688804475  1.0000
  S   S4        1.0  0.2548906512224416  0.7451093002835754  0.7451093727792826  1.0000
  S   S5        1.0  0.2548906495219254  0.7451093246051879  0.2548906686723092  1.0000
  S   S6        1.0  0.7451092466835564  0.2548906982642205  0.7451093926349383  1.0000
