data_image0
_chemical_formula_structural       Cr2PS6
_chemical_formula_sum              "Cr2 P1 S6"
_cell_length_a       6.312614291643738
_cell_length_b       6.3126143226779705
_cell_length_c       6.3126142889066355
_cell_angle_alpha    59.99999997447471
_cell_angle_beta     59.99999996969048
_cell_angle_gamma    59.999999894740164

_space_group_name_H-M_alt    "P 1"
_space_group_IT_number       1

loop_
  _space_group_symop_operation_xyz
  'x, y, z'

loop_
  _atom_site_type_symbol
  _atom_site_label
  _atom_site_symmetry_multiplicity
  _atom_site_fract_x
  _atom_site_fract_y
  _atom_site_fract_z
  _atom_site_occupancy
  Cr  Cr1       1.0  0.2500000054479412  0.250000003805005  0.24999999578523727  1.0000
  Cr  Cr2       1.0  0.7500000061263284  0.7500000036543959  0.7500000042654177  1.0000
  P   P1        1.0  0.9999999905211447  1.74613929161803e-08  0.9999999627420068  1.0000
  S   S1        1.0  0.24067928571420316  0.240679297523078  0.7593207096891456  1.0000
  S   S2        1.0  0.7593206987550124  0.7593206924749301  0.24067930947647298  1.0000
  S   S3        1.0  0.7593207054078182  0.24067929514223813  0.24067929550801448  1.0000
  S   S4        1.0  0.2406792821649918  0.7593207239580915  0.7593207012181273  1.0000
  S   S5        1.0  0.24067930571828944  0.7593206978989772  0.2406792996922411  1.0000
  S   S6        1.0  0.7593207224487362  0.24067927075732856  0.7593207178001021  1.0000
