data_image0
_chemical_formula_structural       Cr2PbTe6
_chemical_formula_sum              "Cr2 Pb1 Te6"
_cell_length_a       7.55562596870477
_cell_length_b       7.55562588533431
_cell_length_c       7.5556257306327375
_cell_angle_alpha    60.00000111873306
_cell_angle_beta     59.99999991428276
_cell_angle_gamma    59.99999879569218

_space_group_name_H-M_alt    "P 1"
_space_group_IT_number       1

loop_
  _space_group_symop_operation_xyz
  'x, y, z'

loop_
  _atom_site_type_symbol
  _atom_site_label
  _atom_site_symmetry_multiplicity
  _atom_site_fract_x
  _atom_site_fract_y
  _atom_site_fract_z
  _atom_site_occupancy
  Cr  Cr1       1.0  0.2499999904203902  0.24999991201133162  0.25000008384172523  1.0000
  Cr  Cr2       1.0  0.7499999642024197  0.7499999726957262  0.7500001367236862  1.0000
  Pb  Pb1       1.0  2.1488426949163803e-08  0.9999999951370877  2.6098687596583205e-08  1.0000
  Te  Te1       1.0  0.2835177494839404  0.283517744838204  0.7164822711367529  1.0000
  Te  Te2       1.0  0.7164822377541408  0.7164823262804897  0.2835177075634935  1.0000
  Te  Te3       1.0  0.7164823218410443  0.28351771244797574  0.2835176493003214  1.0000
  Te  Te4       1.0  0.28351771593842373  0.7164823262513009  0.7164822276927411  1.0000
  Te  Te5       1.0  0.2835177134752598  0.7164823254811048  0.2835176296023302  1.0000
  Te  Te6       1.0  0.7164822777464043  0.28351769700846496  0.7164822774509712  1.0000
