data_image0
_chemical_formula_structural       Cr2PSe6
_chemical_formula_sum              "Cr2 P1 Se6"
_cell_length_a       6.459242141174787
_cell_length_b       6.459242363843045
_cell_length_c       6.459242254434562
_cell_angle_alpha    60.00000064277816
_cell_angle_beta     59.999999876916895
_cell_angle_gamma    60.00000065538992

_space_group_name_H-M_alt    "P 1"
_space_group_IT_number       1

loop_
  _space_group_symop_operation_xyz
  'x, y, z'

loop_
  _atom_site_type_symbol
  _atom_site_label
  _atom_site_symmetry_multiplicity
  _atom_site_fract_x
  _atom_site_fract_y
  _atom_site_fract_z
  _atom_site_occupancy
  Cr  Cr1       1.0  0.24999996899857976  0.2500000917536743  0.249999921532434  1.0000
  Cr  Cr2       1.0  0.7499999716092068  0.7500000117014198  0.7499998857447387  1.0000
  P   P1        1.0  8.702872806632382e-09  4.361058186572555e-08  0.9999998376043819  1.0000
  Se  Se1       1.0  0.24993790121903117  0.24993784957712686  0.7500621311269633  1.0000
  Se  Se2       1.0  0.7500621126864924  0.7500620661628541  0.24993793926540306  1.0000
  Se  Se3       1.0  0.7500621238166717  0.24993787130579526  0.24993795133854638  1.0000
  Se  Se4       1.0  0.24993793537547604  0.7500621070058898  0.7500621750446702  1.0000
  Se  Se5       1.0  0.24993785513196085  0.7500620941291417  0.24993797285377076  1.0000
  Se  Se6       1.0  0.750062134251149  0.249937857636972  0.7500621862250579  1.0000
