data_image0
_chemical_formula_structural       Cr2PO6
_chemical_formula_sum              "Cr2 P1 O6"
_cell_length_a       4.9390756061417
_cell_length_b       4.939075702552959
_cell_length_c       4.939075557815134
_cell_angle_alpha    59.99999757898733
_cell_angle_beta     59.99999751184133
_cell_angle_gamma    59.99999998966138

_space_group_name_H-M_alt    "P 1"
_space_group_IT_number       1

loop_
  _space_group_symop_operation_xyz
  'x, y, z'

loop_
  _atom_site_type_symbol
  _atom_site_label
  _atom_site_symmetry_multiplicity
  _atom_site_fract_x
  _atom_site_fract_y
  _atom_site_fract_z
  _atom_site_occupancy
  Cr  Cr1       1.0  0.24999989263266342  0.24999979165552041  0.25000019495085235  1.0000
  Cr  Cr2       1.0  0.7500000939363969  0.7500000345680068  0.7499998324175445  1.0000
  P   P1        1.0  1.5538648092770673e-08  2.479705202387524e-09  0.9999999788428007  1.0000
  O   O1        1.0  0.24126908686270637  0.2412691269098697  0.7587307830381386  1.0000
  O   O2        1.0  0.7587310615837227  0.7587309150479625  0.24126908184512758  1.0000
  O   O3        1.0  0.7587308713922063  0.24126915408247696  0.24126898729629342  1.0000
  O   O4        1.0  0.24126905823680214  0.7587309201115098  0.7587310640124472  1.0000
  O   O5        1.0  0.24126899713854605  0.7587309369814403  0.24126905703171972  1.0000
  O   O6        1.0  0.7587309107403867  0.24126917440811385  0.7587310513437269  1.0000
