data_image0
_chemical_formula_structural       Cr2PSe6
_chemical_formula_sum              "Cr2 P1 Se6"
_cell_length_a       6.457759410669644
_cell_length_b       6.457759332352061
_cell_length_c       6.457759672625625
_cell_angle_alpha    60.000000873136045
_cell_angle_beta     60.000002023552625
_cell_angle_gamma    60.000002761901804

_space_group_name_H-M_alt    "P 1"
_space_group_IT_number       1

loop_
  _space_group_symop_operation_xyz
  'x, y, z'

loop_
  _atom_site_type_symbol
  _atom_site_label
  _atom_site_symmetry_multiplicity
  _atom_site_fract_x
  _atom_site_fract_y
  _atom_site_fract_z
  _atom_site_occupancy
  Cr  Cr1       1.0  0.2500002198517902  0.2500001507653599  0.2499998916019153  1.0000
  Cr  Cr2       1.0  0.7500000486511815  0.7500001071243798  0.749999843138739  1.0000
  P   P1        1.0  3.8117056570036466e-09  0.9999999563794041  6.790870835462058e-08  1.0000
  Se  Se1       1.0  0.2499453224943902  0.24994532435094707  0.7500547122461464  1.0000
  Se  Se2       1.0  0.750054617258787  0.7500546699186571  0.24994540539683968  1.0000
  Se  Se3       1.0  0.7500546055398627  0.24994528700606197  0.2499453320620662  1.0000
  Se  Se4       1.0  0.24994527441330958  0.7500546238154396  0.7500546946098829  1.0000
  Se  Se5       1.0  0.24994527523301838  0.7500545812054321  0.24994537360892727  1.0000
  Se  Se6       1.0  0.750054629139733  0.24994529927130726  0.7500546730593843  1.0000
