data_image0
_chemical_formula_structural       Cr2PO6
_chemical_formula_sum              "Cr2 P1 O6"
_cell_length_a       4.939806616102358
_cell_length_b       4.939807749172775
_cell_length_c       4.939807161246346
_cell_angle_alpha    59.9999971065723
_cell_angle_beta     59.99999964248233
_cell_angle_gamma    59.999998483929346

_space_group_name_H-M_alt    "P 1"
_space_group_IT_number       1

loop_
  _space_group_symop_operation_xyz
  'x, y, z'

loop_
  _atom_site_type_symbol
  _atom_site_label
  _atom_site_symmetry_multiplicity
  _atom_site_fract_x
  _atom_site_fract_y
  _atom_site_fract_z
  _atom_site_occupancy
  Cr  Cr1       1.0  0.250000118913825  0.24999996257773874  0.25000001924875137  1.0000
  Cr  Cr2       1.0  0.750000055081074  0.7499998530225236  0.7500000639821535  1.0000
  P   P1        1.0  7.85123466489911e-08  0.999999764462976  0.999999967171974  1.0000
  O   O1        1.0  0.2412360917334349  0.24123615287832248  0.7587637373841092  1.0000
  O   O2        1.0  0.7587640404123014  0.7587642230521572  0.2412359044128915  1.0000
  O   O3        1.0  0.7587636914790322  0.24123627530741296  0.24123631434969975  1.0000
  O   O4        1.0  0.2412359302804429  0.7587640609536648  0.7587639283987756  1.0000
  O   O5        1.0  0.24123597885370857  0.7587638917647045  0.2412361730347779  1.0000
  O   O6        1.0  0.7587639507606506  0.24123599077768526  0.758763849111905  1.0000
