data_image0
_chemical_formula_structural       Cr2PdS6
_chemical_formula_sum              "Cr2 Pd1 S6"
_cell_length_a       6.426592373098599
_cell_length_b       6.4265923314950975
_cell_length_c       6.426592475660693
_cell_angle_alpha    60.00000074832259
_cell_angle_beta     59.999999910227544
_cell_angle_gamma    60.000000605917585

_space_group_name_H-M_alt    "P 1"
_space_group_IT_number       1

loop_
  _space_group_symop_operation_xyz
  'x, y, z'

loop_
  _atom_site_type_symbol
  _atom_site_label
  _atom_site_symmetry_multiplicity
  _atom_site_fract_x
  _atom_site_fract_y
  _atom_site_fract_z
  _atom_site_occupancy
  Cr  Cr1       1.0  0.2500000660681315  0.24999997462605533  0.24999993539716822  1.0000
  Cr  Cr2       1.0  0.7499999967499668  0.7499999353126402  0.7500000817014898  1.0000
  Pd  Pd1       1.0  0.9999999873137309  5.717234812356537e-09  0.9999999210146855  1.0000
  S   S1        1.0  0.25851313695834943  0.25851310694546287  0.7414869027195596  1.0000
  S   S2        1.0  0.741486865311863  0.7414869630758437  0.25851305683156456  1.0000
  S   S3        1.0  0.7414868596160985  0.2585131642804112  0.25851309946400547  1.0000
  S   S4        1.0  0.2585130469185963  0.7414868695317334  0.7414869571801492  1.0000
  S   S5        1.0  0.25851315515393497  0.7414868564540879  0.25851311411711003  1.0000
  S   S6        1.0  0.741486884268962  0.25851311827995116  0.7414869398547562  1.0000
