data_image0
_chemical_formula_structural       Cr2RuSe6
_chemical_formula_sum              "Cr2 Ru1 Se6"
_cell_length_a       6.6346319476706315
_cell_length_b       6.6346320138905375
_cell_length_c       6.634631913502284
_cell_angle_alpha    60.00000043319842
_cell_angle_beta     60.00000009666631
_cell_angle_gamma    60.00000000847087

_space_group_name_H-M_alt    "P 1"
_space_group_IT_number       1

loop_
  _space_group_symop_operation_xyz
  'x, y, z'

loop_
  _atom_site_type_symbol
  _atom_site_label
  _atom_site_symmetry_multiplicity
  _atom_site_fract_x
  _atom_site_fract_y
  _atom_site_fract_z
  _atom_site_occupancy
  Cr  Cr1       1.0  0.24999996727591123  0.25000013988209996  0.24999996020941306  1.0000
  Cr  Cr2       1.0  0.7500000038186849  0.7499998473901327  0.7500001820795228  1.0000
  Ru  Ru1       1.0  0.9999999843362752  8.73985528574078e-17  0.9999999701507968  1.0000
  Se  Se1       1.0  0.2574633312213864  0.25746345099970985  0.7425366156233849  1.0000
  Se  Se2       1.0  0.7425366554132474  0.7425365731922754  0.25746336930554786  1.0000
  Se  Se3       1.0  0.7425366136342791  0.25746342313261  0.25746332124200744  1.0000
  Se  Se4       1.0  0.25746334604955634  0.7425366453630786  0.7425366354163185  1.0000
  Se  Se5       1.0  0.25746346248369556  0.7425365477608911  0.2574633119178535  1.0000
  Se  Se6       1.0  0.742536632937415  0.25746336936381087  0.7425366344704167  1.0000
