data_image0
_chemical_formula_structural       Cr2ReS6
_chemical_formula_sum              "Cr2 Re1 S6"
_cell_length_a       6.448983944472831
_cell_length_b       6.448983867979849
_cell_length_c       6.448983854399341
_cell_angle_alpha    60.00000051013494
_cell_angle_beta     59.99999969364467
_cell_angle_gamma    60.00000052940741

_space_group_name_H-M_alt    "P 1"
_space_group_IT_number       1

loop_
  _space_group_symop_operation_xyz
  'x, y, z'

loop_
  _atom_site_type_symbol
  _atom_site_label
  _atom_site_symmetry_multiplicity
  _atom_site_fract_x
  _atom_site_fract_y
  _atom_site_fract_z
  _atom_site_occupancy
  Cr  Cr1       1.0  0.2500000745347139  0.24999997154059997  0.2500000186440899  1.0000
  Cr  Cr2       1.0  0.7499999992093754  0.750000007679092  0.7500001510630145  1.0000
  Re  Re1       1.0  1.3799694192327147e-08  0.9999999962017428  0.9999999531322205  1.0000
  S   S1        1.0  0.25403165002480954  0.25403168464218184  0.7459683329054279  1.0000
  S   S2        1.0  0.7459683531475241  0.7459683021740215  0.2540316186375654  1.0000
  S   S3        1.0  0.7459683254070605  0.2540316552224684  0.2540316660368172  1.0000
  S   S4        1.0  0.2540316468734236  0.7459683866684593  0.7459682827185303  1.0000
  S   S5        1.0  0.25403169793490593  0.7459683201124684  0.254031614607028  1.0000
  S   S6        1.0  0.7459682533124796  0.2540316667037346  0.7459683691009674  1.0000
