data_image0
_chemical_formula_structural       Cr2RhO6
_chemical_formula_sum              "Cr2 Rh1 O6"
_cell_length_a       5.26991590730501
_cell_length_b       5.269915808237019
_cell_length_c       5.269915952145851
_cell_angle_alpha    59.99999953958389
_cell_angle_beta     59.9999994382
_cell_angle_gamma    59.999999993672

_space_group_name_H-M_alt    "P 1"
_space_group_IT_number       1

loop_
  _space_group_symop_operation_xyz
  'x, y, z'

loop_
  _atom_site_type_symbol
  _atom_site_label
  _atom_site_symmetry_multiplicity
  _atom_site_fract_x
  _atom_site_fract_y
  _atom_site_fract_z
  _atom_site_occupancy
  Cr  Cr1       1.0  0.2500004872876434  0.2499998433070492  0.24999965548648914  1.0000
  Cr  Cr2       1.0  0.7499998936110674  0.7500000737444388  0.7499996684301055  1.0000
  Rh  Rh1       1.0  0.9999999939354972  1.1620155873177766e-08  0.9999999820416657  1.0000
  O   O1        1.0  0.255895705385827  0.2558957067092088  0.7441041951864164  1.0000
  O   O2        1.0  0.7441040984475616  0.7441044822539296  0.2558959321712865  1.0000
  O   O3        1.0  0.7441043478271314  0.2558955971495804  0.2558958335129124  1.0000
  O   O4        1.0  0.25589573156324347  0.7441041595437569  0.7441044405134807  1.0000
  O   O5        1.0  0.25589576911869316  0.7441043796823155  0.2558956507764726  1.0000
  O   O6        1.0  0.7441039584471246  0.2558957488560117  0.7441046398055948  1.0000
