data_image0
_chemical_formula_structural       Cr2RuS6
_chemical_formula_sum              "Cr2 Ru1 S6"
_cell_length_a       6.332602319858507
_cell_length_b       6.332602199489777
_cell_length_c       6.332602261773698
_cell_angle_alpha    59.999999888598204
_cell_angle_beta     60.00000037909311
_cell_angle_gamma    60.00000019086316

_space_group_name_H-M_alt    "P 1"
_space_group_IT_number       1

loop_
  _space_group_symop_operation_xyz
  'x, y, z'

loop_
  _atom_site_type_symbol
  _atom_site_label
  _atom_site_symmetry_multiplicity
  _atom_site_fract_x
  _atom_site_fract_y
  _atom_site_fract_z
  _atom_site_occupancy
  Cr  Cr1       1.0  0.24999984169280093  0.24999991967003987  0.2500002097361368  1.0000
  Cr  Cr2       1.0  0.7500000609019908  0.7500000278404264  0.7499999805372384  1.0000
  Ru  Ru1       1.0  7.49592790199127e-09  2.1274340810022407e-08  5.825482963190097e-08  1.0000
  S   S1        1.0  0.25698043207247007  0.25698050190358473  0.7430195017117812  1.0000
  S   S2        1.0  0.7430195720619212  0.7430195074958725  0.2569804552508522  1.0000
  S   S3        1.0  0.7430195503791418  0.2569804519074505  0.25698048289229186  1.0000
  S   S4        1.0  0.2569804420404547  0.743019598106657  0.7430194564621547  1.0000
  S   S5        1.0  0.256980462203676  0.7430195583861765  0.25698045371990097  1.0000
  S   S6        1.0  0.7430196413909762  0.25698039879444523  0.7430194322481303  1.0000
