data_image0
_chemical_formula_structural       Cr2RhO6
_chemical_formula_sum              "Cr2 Rh1 O6"
_cell_length_a       5.2701180584734555
_cell_length_b       5.270118218109109
_cell_length_c       5.270118086010895
_cell_angle_alpha    60.00000120097183
_cell_angle_beta     60.000001737259026
_cell_angle_gamma    60.000000785948096

_space_group_name_H-M_alt    "P 1"
_space_group_IT_number       1

loop_
  _space_group_symop_operation_xyz
  'x, y, z'

loop_
  _atom_site_type_symbol
  _atom_site_label
  _atom_site_symmetry_multiplicity
  _atom_site_fract_x
  _atom_site_fract_y
  _atom_site_fract_z
  _atom_site_occupancy
  Cr  Cr1       1.0  0.2500003386675088  0.25000037780602896  0.250000159724332  1.0000
  Cr  Cr2       1.0  0.7500001860874872  0.7499998436303426  0.7499996605085895  1.0000
  Rh  Rh1       1.0  0.999999972268408  3.718307069643468e-08  0.9999999706068814  1.0000
  O   O1        1.0  0.25589599590359285  0.2558962075737841  0.7441036415776048  1.0000
  O   O2        1.0  0.7441039582562408  0.7441038325951239  0.2558962794504708  1.0000
  O   O3        1.0  0.7441035407382668  0.25589610038060123  0.25589609398816554  1.0000
  O   O4        1.0  0.25589617212317395  0.7441037631687237  0.7441040587687823  1.0000
  O   O5        1.0  0.2558959417407803  0.7441037228037962  0.25589624547624307  1.0000
  O   O6        1.0  0.7441038939514448  0.25589613377370224  0.744103847453737  1.0000
