data_image0
_chemical_formula_structural       Cr2ReTe6
_chemical_formula_sum              "Cr2 Re1 Te6"
_cell_length_a       7.17179860207325
_cell_length_b       7.1717987310761
_cell_length_c       7.171798404161252
_cell_angle_alpha    60.00000108493716
_cell_angle_beta     60.00000089216915
_cell_angle_gamma    59.99999869586145

_space_group_name_H-M_alt    "P 1"
_space_group_IT_number       1

loop_
  _space_group_symop_operation_xyz
  'x, y, z'

loop_
  _atom_site_type_symbol
  _atom_site_label
  _atom_site_symmetry_multiplicity
  _atom_site_fract_x
  _atom_site_fract_y
  _atom_site_fract_z
  _atom_site_occupancy
  Cr  Cr1       1.0  0.24999988593805383  0.24999998384764918  0.2500000681618785  1.0000
  Cr  Cr2       1.0  0.7499999328883232  0.7500000488831754  0.7500000015462354  1.0000
  Re  Re1       1.0  0.9999999768258072  0.9999999487682993  0.9999997555441653  1.0000
  Te  Te1       1.0  0.25830115575603285  0.2583010557530046  0.7416989443901806  1.0000
  Te  Te2       1.0  0.7416989542311981  0.7416989342847263  0.2583010763789749  1.0000
  Te  Te3       1.0  0.7416989701152144  0.25830105115943536  0.2583011011300157  1.0000
  Te  Te4       1.0  0.25830099148439944  0.7416990652498322  0.741699003153401  1.0000
  Te  Te5       1.0  0.2583010551968786  0.7416989565277315  0.2583010793371806  1.0000
  Te  Te6       1.0  0.741699075478368  0.25830096178561535  0.7416989669501596  1.0000
