data_image0
_chemical_formula_structural       Cr2RuO6
_chemical_formula_sum              "Cr2 Ru1 O6"
_cell_length_a       5.3389119708735
_cell_length_b       5.338911806178595
_cell_length_c       5.33891201227572
_cell_angle_alpha    59.999999641035764
_cell_angle_beta     59.99999928049616
_cell_angle_gamma    59.99999935136415

_space_group_name_H-M_alt    "P 1"
_space_group_IT_number       1

loop_
  _space_group_symop_operation_xyz
  'x, y, z'

loop_
  _atom_site_type_symbol
  _atom_site_label
  _atom_site_symmetry_multiplicity
  _atom_site_fract_x
  _atom_site_fract_y
  _atom_site_fract_z
  _atom_site_occupancy
  Cr  Cr1       1.0  0.2500000175419431  0.24999977898854037  0.2500003917661563  1.0000
  Cr  Cr2       1.0  0.7500004069689467  0.749999733827127  0.7499997863810887  1.0000
  Ru  Ru1       1.0  0.9999999926382444  0.9999999701780364  3.732226733337135e-08  1.0000
  O   O1        1.0  0.2460632819943663  0.24606364141518697  0.7539363645223649  1.0000
  O   O2        1.0  0.7539364421058973  0.753936610067579  0.24606363154210215  1.0000
  O   O3        1.0  0.7539365163664696  0.24606362549115096  0.24606331537010045  1.0000
  O   O4        1.0  0.24606339399709445  0.7539366122276302  0.7539364427284037  1.0000
  O   O5        1.0  0.24606338123067076  0.753936638169772  0.24606352799643336  1.0000
  O   O6        1.0  0.7539365698363915  0.2460633930892626  0.7539364984112323  1.0000
