data_image0
_chemical_formula_structural       Cr2ReO6
_chemical_formula_sum              "Cr2 Re1 O6"
_cell_length_a       5.3302805817834376
_cell_length_b       5.330280498859
_cell_length_c       5.330280484071951
_cell_angle_alpha    59.99999916189627
_cell_angle_beta     59.99999931493895
_cell_angle_gamma    59.999997591231526

_space_group_name_H-M_alt    "P 1"
_space_group_IT_number       1

loop_
  _space_group_symop_operation_xyz
  'x, y, z'

loop_
  _atom_site_type_symbol
  _atom_site_label
  _atom_site_symmetry_multiplicity
  _atom_site_fract_x
  _atom_site_fract_y
  _atom_site_fract_z
  _atom_site_occupancy
  Cr  Cr1       1.0  0.2500001487550772  0.24999979899910785  0.250000012163648  1.0000
  Cr  Cr2       1.0  0.7500002776574898  0.7499998703259783  0.7499997509292404  1.0000
  Re  Re1       1.0  2.0131227627819563e-08  4.595423701531936e-09  0.9999999388587532  1.0000
  O   O1        1.0  0.25000041705041187  0.2500006578104839  0.7499995176430536  1.0000
  O   O2        1.0  0.7499992534645604  0.74999964798081  0.25000062222201713  1.0000
  O   O3        1.0  0.749999464045776  0.25000052367933445  0.25000061183970956  1.0000
  O   O4        1.0  0.25000053236100406  0.7499994673254238  0.7499994680665818  1.0000
  O   O5        1.0  0.2500004895222285  0.7499994333926083  0.25000058557682414  1.0000
  O   O6        1.0  0.7499994235137504  0.2500006127572373  0.7499994727969207  1.0000
