data_image0
_chemical_formula_structural       Cr2RuSe6
_chemical_formula_sum              "Cr2 Ru1 Se6"
_cell_length_a       6.634584756137679
_cell_length_b       6.634584933383475
_cell_length_c       6.634584690117803
_cell_angle_alpha    59.99999971973677
_cell_angle_beta     60.00000053803293
_cell_angle_gamma    60.000000551394635

_space_group_name_H-M_alt    "P 1"
_space_group_IT_number       1

loop_
  _space_group_symop_operation_xyz
  'x, y, z'

loop_
  _atom_site_type_symbol
  _atom_site_label
  _atom_site_symmetry_multiplicity
  _atom_site_fract_x
  _atom_site_fract_y
  _atom_site_fract_z
  _atom_site_occupancy
  Cr  Cr1       1.0  0.25000004487569766  0.2500000066187333  0.25000001025231733  1.0000
  Cr  Cr2       1.0  0.7499999919996024  0.7500000457002123  0.7499999565103959  1.0000
  Ru  Ru1       1.0  0.9999999885198113  2.3998008936658728e-08  3.2929676666073246e-08  1.0000
  Se  Se1       1.0  0.25746863206326104  0.25746858265195427  0.7425313720385551  1.0000
  Se  Se2       1.0  0.7425313533563872  0.7425313995189631  0.2574686404534652  1.0000
  Se  Se3       1.0  0.7425313999622435  0.2574686025964209  0.25746863213568066  1.0000
  Se  Se4       1.0  0.2574685871978305  0.7425313795744972  0.7425313418047926  1.0000
  Se  Se5       1.0  0.25746858435009523  0.7425313641699683  0.2574686619590763  1.0000
  Se  Se6       1.0  0.7425314171556868  0.2574685958489404  0.7425313535658815  1.0000
