data_image0
_chemical_formula_structural       Cr2RhS6
_chemical_formula_sum              "Cr2 Rh1 S6"
_cell_length_a       6.336242510328905
_cell_length_b       6.336242476062675
_cell_length_c       6.336242480894711
_cell_angle_alpha    59.99999883931495
_cell_angle_beta     60.00000038606582
_cell_angle_gamma    59.99999998624822

_space_group_name_H-M_alt    "P 1"
_space_group_IT_number       1

loop_
  _space_group_symop_operation_xyz
  'x, y, z'

loop_
  _atom_site_type_symbol
  _atom_site_label
  _atom_site_symmetry_multiplicity
  _atom_site_fract_x
  _atom_site_fract_y
  _atom_site_fract_z
  _atom_site_occupancy
  Cr  Cr1       1.0  0.25000011842901065  0.24999985683412174  0.250000095815625  1.0000
  Cr  Cr2       1.0  0.7499999863871004  0.7499999938118133  0.7500000219305258  1.0000
  Rh  Rh1       1.0  1.7497622631308638e-09  0.9999999400794842  6.222804830873955e-08  1.0000
  S   S1        1.0  0.2555443311780459  0.2555442778878636  0.7444556841124477  1.0000
  S   S2        1.0  0.744455649694393  0.7444557969767751  0.2555442556601683  1.0000
  S   S3        1.0  0.7444556304188582  0.2555443193211025  0.25554432900176094  1.0000
  S   S4        1.0  0.255544270471237  0.7444557768056546  0.7444556006754066  1.0000
  S   S5        1.0  0.25554435828004046  0.7444556520896405  0.25554428416340974  1.0000
  S   S6        1.0  0.7444556568132609  0.2555443802507617  0.7444556613391163  1.0000
