data_image0
_chemical_formula_structural       Cr2RhSe6
_chemical_formula_sum              "Cr2 Rh1 Se6"
_cell_length_a       6.633174308189968
_cell_length_b       6.63317427546872
_cell_length_c       6.633174324074661
_cell_angle_alpha    59.999999250943986
_cell_angle_beta     59.99999854399477
_cell_angle_gamma    59.99999941126258

_space_group_name_H-M_alt    "P 1"
_space_group_IT_number       1

loop_
  _space_group_symop_operation_xyz
  'x, y, z'

loop_
  _atom_site_type_symbol
  _atom_site_label
  _atom_site_symmetry_multiplicity
  _atom_site_fract_x
  _atom_site_fract_y
  _atom_site_fract_z
  _atom_site_occupancy
  Cr  Cr1       1.0  0.25000001360428287  0.25000001852958403  0.24999999966585046  1.0000
  Cr  Cr2       1.0  0.7499999470391592  0.7500000131217052  0.7499999646029002  1.0000
  Rh  Rh1       1.0  1.016422220814452e-08  0.9999999538401666  8.952362733054327e-09  1.0000
  Se  Se1       1.0  0.2587163087076961  0.2587162097562986  0.7412837711453137  1.0000
  Se  Se2       1.0  0.7412837372710006  0.741283759117617  0.2587162557156131  1.0000
  Se  Se3       1.0  0.74128370370004  0.25871628065181695  0.2587162945347447  1.0000
  Se  Se4       1.0  0.25871630280145275  0.7412837805417655  0.7412837194731154  1.0000
  Se  Se5       1.0  0.25871627739012565  0.7412837254110637  0.25871627491528265  1.0000
  Se  Se6       1.0  0.7412837104212313  0.25871625084842526  0.7412837155260014  1.0000
