data_image0
_chemical_formula_structural       Cr2RhS6
_chemical_formula_sum              "Cr2 Rh1 S6"
_cell_length_a       6.3362493938165105
_cell_length_b       6.3362494375374725
_cell_length_c       6.336249524701559
_cell_angle_alpha    59.999999845302966
_cell_angle_beta     59.99999961167672
_cell_angle_gamma    59.999999614053195

_space_group_name_H-M_alt    "P 1"
_space_group_IT_number       1

loop_
  _space_group_symop_operation_xyz
  'x, y, z'

loop_
  _atom_site_type_symbol
  _atom_site_label
  _atom_site_symmetry_multiplicity
  _atom_site_fract_x
  _atom_site_fract_y
  _atom_site_fract_z
  _atom_site_occupancy
  Cr  Cr1       1.0  0.25000009291361497  0.25000002948305566  0.2499999916367845  1.0000
  Cr  Cr2       1.0  0.7499999371676918  0.7499999705411874  0.7499997880006607  1.0000
  Rh  Rh1       1.0  7.712704245976221e-09  9.664588439917376e-09  0.9999999629033816  1.0000
  S   S1        1.0  0.255538386191101  0.2555383655906234  0.7444616213604481  1.0000
  S   S2        1.0  0.7444615896612191  0.7444616112386082  0.2555385584015305  1.0000
  S   S3        1.0  0.744461570435079  0.2555383514489702  0.25553844163014344  1.0000
  S   S4        1.0  0.25553843575326396  0.7444616273131788  0.7444616257259037  1.0000
  S   S5        1.0  0.25553837219773734  0.7444615894679723  0.2555383980858523  1.0000
  S   S6        1.0  0.7444616171281065  0.25553844534879033  0.7444616449394756  1.0000
