data_image0
_chemical_formula_structural       Cr2SbO6
_chemical_formula_sum              "Cr2 Sb1 O6"
_cell_length_a       5.31346483066037
_cell_length_b       5.31346479996783
_cell_length_c       5.313464749525174
_cell_angle_alpha    60.00000114243001
_cell_angle_beta     60.00000140163861
_cell_angle_gamma    60.000001083278335

_space_group_name_H-M_alt    "P 1"
_space_group_IT_number       1

loop_
  _space_group_symop_operation_xyz
  'x, y, z'

loop_
  _atom_site_type_symbol
  _atom_site_label
  _atom_site_symmetry_multiplicity
  _atom_site_fract_x
  _atom_site_fract_y
  _atom_site_fract_z
  _atom_site_occupancy
  Cr  Cr1       1.0  0.24999989574016157  0.25000003785375136  0.24999999980751061  1.0000
  Cr  Cr2       1.0  0.7499997112344421  0.7500001458310224  0.7499998583599992  1.0000
  Sb  Sb1       1.0  1.4707435064676994e-08  0.9999999884750825  0.9999999664145514  1.0000
  O   O1        1.0  0.26072511304851437  0.2607249492296075  0.7392750024612963  1.0000
  O   O2        1.0  0.7392750453211511  0.7392749232824013  0.2607251101152895  1.0000
  O   O3        1.0  0.7392749648644577  0.2607249636520262  0.2607250778433393  1.0000
  O   O4        1.0  0.2607251658454064  0.7392749918393876  0.7392749976633888  1.0000
  O   O5        1.0  0.26072508578274234  0.7392749843566198  0.26072498984740633  1.0000
  O   O6        1.0  0.7392750527196058  0.2607249803547274  0.7392749774065215  1.0000
