data_image0
_chemical_formula_structural       Cr2SnTe6
_chemical_formula_sum              "Cr2 Sn1 Te6"
_cell_length_a       7.38084529902128
_cell_length_b       7.380845315590282
_cell_length_c       7.38084531513856
_cell_angle_alpha    59.99999959762772
_cell_angle_beta     59.99999965563551
_cell_angle_gamma    60.000000339137884

_space_group_name_H-M_alt    "P 1"
_space_group_IT_number       1

loop_
  _space_group_symop_operation_xyz
  'x, y, z'

loop_
  _atom_site_type_symbol
  _atom_site_label
  _atom_site_symmetry_multiplicity
  _atom_site_fract_x
  _atom_site_fract_y
  _atom_site_fract_z
  _atom_site_occupancy
  Cr  Cr1       1.0  0.25000001005699274  0.25000005315412127  0.24999995796155083  1.0000
  Cr  Cr2       1.0  0.7499999991530752  0.7500000084609828  0.749999945926278  1.0000
  Sn  Sn1       1.0  3.618856311259878e-08  0.999999961834816  3.698027193678413e-09  1.0000
  Te  Te1       1.0  0.2712176483434343  0.2712176338748945  0.728782355453081  1.0000
  Te  Te2       1.0  0.7287823866734077  0.7287823597066203  0.27121762238763186  1.0000
  Te  Te3       1.0  0.7287823105018015  0.27121764257432696  0.2712177078570091  1.0000
  Te  Te4       1.0  0.27121766414928716  0.728782344369764  0.7287823590344852  1.0000
  Te  Te5       1.0  0.2712176356114723  0.7287823211065415  0.27121768796552165  1.0000
  Te  Te6       1.0  0.7287823128071883  0.27121767413432857  0.7287823607966302  1.0000
