data_image0
_chemical_formula_structural       Cr2SeS6
_chemical_formula_sum              "Cr2 Se1 S6"
_cell_length_a       6.481646159512257
_cell_length_b       6.4816463397827215
_cell_length_c       6.48164635837705
_cell_angle_alpha    59.99999880303066
_cell_angle_beta     60.000000191620664
_cell_angle_gamma    60.000002737429725

_space_group_name_H-M_alt    "P 1"
_space_group_IT_number       1

loop_
  _space_group_symop_operation_xyz
  'x, y, z'

loop_
  _atom_site_type_symbol
  _atom_site_label
  _atom_site_symmetry_multiplicity
  _atom_site_fract_x
  _atom_site_fract_y
  _atom_site_fract_z
  _atom_site_occupancy
  Cr  Cr1       1.0  0.24999993009762836  0.24999993352198444  0.2500000685127829  1.0000
  Cr  Cr2       1.0  0.7499999649655189  0.7500000140860491  0.74999994818645  1.0000
  Se  Se1       1.0  1.9022187121104357e-08  0.9999999055220846  6.395576932546384e-08  1.0000
  S   S1        1.0  0.24790934040748944  0.24790912487829553  0.7520907878598765  1.0000
  S   S2        1.0  0.7520908526681865  0.7520908586313532  0.24790920073589748  1.0000
  S   S3        1.0  0.7520907284455427  0.2479092852591524  0.24790937805291816  1.0000
  S   S4        1.0  0.24790922040194857  0.7520908002866383  0.7520906230117942  1.0000
  S   S5        1.0  0.24790932788875877  0.7520907106272063  0.2479093445080976  1.0000
  S   S6        1.0  0.7520905986267701  0.24790939381416766  0.7520905919336344  1.0000
