data_image0
_chemical_formula_structural       Cr2SbS6
_chemical_formula_sum              "Cr2 Sb1 S6"
_cell_length_a       6.592532809122963
_cell_length_b       6.592532819074896
_cell_length_c       6.592532908649792
_cell_angle_alpha    60.000000686337955
_cell_angle_beta     60.00000050047819
_cell_angle_gamma    60.00000065629999

_space_group_name_H-M_alt    "P 1"
_space_group_IT_number       1

loop_
  _space_group_symop_operation_xyz
  'x, y, z'

loop_
  _atom_site_type_symbol
  _atom_site_label
  _atom_site_symmetry_multiplicity
  _atom_site_fract_x
  _atom_site_fract_y
  _atom_site_fract_z
  _atom_site_occupancy
  Cr  Cr1       1.0  0.25000003496410367  0.24999999815786825  0.2500000156385749  1.0000
  Cr  Cr2       1.0  0.7499999639747773  0.7499999443136508  0.7499996631242849  1.0000
  Sb  Sb1       1.0  0.9999999848555072  0.999999998142224  0.9999999993999282  1.0000
  S   S1        1.0  0.259551863723256  0.259551861572253  0.7404481265776531  1.0000
  S   S2        1.0  0.7404481171326515  0.7404481719302906  0.25955208757029147  1.0000
  S   S3        1.0  0.7404480925711348  0.2595517806166303  0.25955196416414067  1.0000
  S   S4        1.0  0.25955194040874463  0.7404480912594084  0.7404481545651708  1.0000
  S   S5        1.0  0.2595518420840979  0.7404481667688422  0.2595518862074763  1.0000
  S   S6        1.0  0.7404481674488452  0.2595519856313578  0.740448093365151  1.0000
