data_image0
_chemical_formula_structural       Cr2SbTe6
_chemical_formula_sum              "Cr2 Sb1 Te6"
_cell_length_a       7.427191965547963
_cell_length_b       7.427191893595901
_cell_length_c       7.427191937267675
_cell_angle_alpha    60.00000017167649
_cell_angle_beta     60.00000017733858
_cell_angle_gamma    60.00000009563111

_space_group_name_H-M_alt    "P 1"
_space_group_IT_number       1

loop_
  _space_group_symop_operation_xyz
  'x, y, z'

loop_
  _atom_site_type_symbol
  _atom_site_label
  _atom_site_symmetry_multiplicity
  _atom_site_fract_x
  _atom_site_fract_y
  _atom_site_fract_z
  _atom_site_occupancy
  Cr  Cr1       1.0  0.2500000328644513  0.2499999432871954  0.2500000317467111  1.0000
  Cr  Cr2       1.0  0.7500000556411944  0.7499999353976661  0.7500000787586159  1.0000
  Sb  Sb1       1.0  5.669105993080882e-09  1.6490012729393984e-09  3.8015799685395626e-10  1.0000
  Te  Te1       1.0  0.2734410921388725  0.27344114609982234  0.7265588861506597  1.0000
  Te  Te2       1.0  0.726558863665402  0.7265588974851631  0.2734410830397311  1.0000
  Te  Te3       1.0  0.726558871732723  0.2734411574678772  0.27344107272255797  1.0000
  Te  Te4       1.0  0.2734410644883333  0.7265589075541246  0.7265588753448758  1.0000
  Te  Te5       1.0  0.27344113829920613  0.7265588859731213  0.27344108434313974  1.0000
  Te  Te6       1.0  0.7265588766939012  0.27344112463183945  0.7265588852068856  1.0000
