data_image0
_chemical_formula_structural       Cr2SbSe6
_chemical_formula_sum              "Cr2 Sb1 Se6"
_cell_length_a       6.835248333350156
_cell_length_b       6.835248344429754
_cell_length_c       6.835248342673253
_cell_angle_alpha    60.00000016498963
_cell_angle_beta     59.99999995303031
_cell_angle_gamma    59.99999978580558

_space_group_name_H-M_alt    "P 1"
_space_group_IT_number       1

loop_
  _space_group_symop_operation_xyz
  'x, y, z'

loop_
  _atom_site_type_symbol
  _atom_site_label
  _atom_site_symmetry_multiplicity
  _atom_site_fract_x
  _atom_site_fract_y
  _atom_site_fract_z
  _atom_site_occupancy
  Cr  Cr1       1.0  0.24999999310680535  0.2499999413920671  0.25000001821713935  1.0000
  Cr  Cr2       1.0  0.7500000125067748  0.7500000033569433  0.7499999894319976  1.0000
  Sb  Sb1       1.0  0.9999999968262859  0.9999999892491555  0.9999999879432191  1.0000
  Se  Se1       1.0  0.26717362483905127  0.26717363332381233  0.7328263708397115  1.0000
  Se  Se2       1.0  0.73282636463068  0.7328263902647246  0.26717362594365135  1.0000
  Se  Se3       1.0  0.7328263774117799  0.2671736276591853  0.26717362440532044  1.0000
  Se  Se4       1.0  0.2671736078770674  0.7328264084720036  0.7328263813642004  1.0000
  Se  Se5       1.0  0.26717362596020455  0.7328263897246082  0.2671736269706406  1.0000
  Se  Se6       1.0  0.7328263993954044  0.26717361236223974  0.7328263757876698  1.0000
