data_image0
_chemical_formula_structural       Cr2SiSe6
_chemical_formula_sum              "Cr2 Si1 Se6"
_cell_length_a       6.551245004729344
_cell_length_b       6.551245344889949
_cell_length_c       6.551245089488733
_cell_angle_alpha    60.00000072874479
_cell_angle_beta     59.99999946035435
_cell_angle_gamma    59.99999937867181

_space_group_name_H-M_alt    "P 1"
_space_group_IT_number       1

loop_
  _space_group_symop_operation_xyz
  'x, y, z'

loop_
  _atom_site_type_symbol
  _atom_site_label
  _atom_site_symmetry_multiplicity
  _atom_site_fract_x
  _atom_site_fract_y
  _atom_site_fract_z
  _atom_site_occupancy
  Cr  Cr1       1.0  0.2500001596198305  0.2500003981112709  0.24999956954969665  1.0000
  Cr  Cr2       1.0  0.7499999245467287  0.7499998221325368  0.7500000901472228  1.0000
  Si  Si1       1.0  0.9999999986467597  9.347420175295287e-09  3.635047030983922e-09  1.0000
  Se  Se1       1.0  0.25455504494149434  0.2545550489278663  0.745444957955246  1.0000
  Se  Se2       1.0  0.7454449548938828  0.7454448796764316  0.2545551064797115  1.0000
  Se  Se3       1.0  0.7454449377871374  0.2545551154003919  0.2545550222993464  1.0000
  Se  Se4       1.0  0.25455511029738687  0.7454447477719635  0.7454450949934036  1.0000
  Se  Se5       1.0  0.2545550813015335  0.7454448628550533  0.2545550522518839  1.0000
  Se  Se6       1.0  0.7454447941919248  0.25455511622531585  0.7454450949088193  1.0000
