data_image0
_chemical_formula_structural       Cr2SnSe6
_chemical_formula_sum              "Cr2 Sn1 Se6"
_cell_length_a       6.812171011401595
_cell_length_b       6.81217099664876
_cell_length_c       6.812171252829306
_cell_angle_alpha    59.99999839336034
_cell_angle_beta     59.999996680385
_cell_angle_gamma    60.00000178935123

_space_group_name_H-M_alt    "P 1"
_space_group_IT_number       1

loop_
  _space_group_symop_operation_xyz
  'x, y, z'

loop_
  _atom_site_type_symbol
  _atom_site_label
  _atom_site_symmetry_multiplicity
  _atom_site_fract_x
  _atom_site_fract_y
  _atom_site_fract_z
  _atom_site_occupancy
  Cr  Cr1       1.0  0.25000014832406137  0.2499999087744432  0.24999993787574015  1.0000
  Cr  Cr2       1.0  0.7500001699619588  0.7499997478978496  0.7499999829159393  1.0000
  Sn  Sn1       1.0  0.9999999853790765  0.9999999370742881  3.7305357363691907e-08  1.0000
  Se  Se1       1.0  0.2711922493786516  0.2711924101710743  0.7288077028326962  1.0000
  Se  Se2       1.0  0.728807610325655  0.7288077984495851  0.271192309263973  1.0000
  Se  Se3       1.0  0.7288076119442607  0.2711924203673478  0.27119228940870693  1.0000
  Se  Se4       1.0  0.27119232022150863  0.7288076624018914  0.7288077302994502  1.0000
  Se  Se5       1.0  0.27119225166528854  0.7288076587721721  0.27119242551189543  1.0000
  Se  Se6       1.0  0.7288076441845679  0.27119246175249256  0.728807593476506  1.0000
