data_image0
_chemical_formula_structural       Cr2SbTe6
_chemical_formula_sum              "Cr2 Sb1 Te6"
_cell_length_a       7.427739967469725
_cell_length_b       7.427740152781301
_cell_length_c       7.427740086539091
_cell_angle_alpha    59.99999946217515
_cell_angle_beta     59.999999181576214
_cell_angle_gamma    60.00000028533827

_space_group_name_H-M_alt    "P 1"
_space_group_IT_number       1

loop_
  _space_group_symop_operation_xyz
  'x, y, z'

loop_
  _atom_site_type_symbol
  _atom_site_label
  _atom_site_symmetry_multiplicity
  _atom_site_fract_x
  _atom_site_fract_y
  _atom_site_fract_z
  _atom_site_occupancy
  Cr  Cr1       1.0  0.2499999588159232  0.25000004800207054  0.24999997383830272  1.0000
  Cr  Cr2       1.0  0.7500000512719883  0.7499998620478103  0.7500001554868057  1.0000
  Sb  Sb1       1.0  0.999999982538611  0.9999999917556021  3.574007028966441e-08  1.0000
  Te  Te1       1.0  0.27341421903410695  0.2734142553054808  0.7265857717502728  1.0000
  Te  Te2       1.0  0.7265857846602938  0.7265857998458004  0.27341415089782956  1.0000
  Te  Te3       1.0  0.7265857994412525  0.27341428171053844  0.27341416058548423  1.0000
  Te  Te4       1.0  0.27341420426932744  0.7265857454097904  0.7265857989571817  1.0000
  Te  Te5       1.0  0.27341422315079533  0.726585767332547  0.27341420001530575  1.0000
  Te  Te6       1.0  0.7265857697720353  0.2734142548411433  0.7265857606630317  1.0000
