data_image0
_chemical_formula_structural       Cr2SO6
_chemical_formula_sum              "Cr2 S1 O6"
_cell_length_a       5.024465743550028
_cell_length_b       5.024465576022021
_cell_length_c       5.0244652593898556
_cell_angle_alpha    60.00000222879165
_cell_angle_beta     60.00000219745994
_cell_angle_gamma    60.00000060326593

_space_group_name_H-M_alt    "P 1"
_space_group_IT_number       1

loop_
  _space_group_symop_operation_xyz
  'x, y, z'

loop_
  _atom_site_type_symbol
  _atom_site_label
  _atom_site_symmetry_multiplicity
  _atom_site_fract_x
  _atom_site_fract_y
  _atom_site_fract_z
  _atom_site_occupancy
  Cr  Cr1       1.0  0.24999989451022775  0.25000008744710783  0.2499999617077185  1.0000
  Cr  Cr2       1.0  0.7500000276089641  0.7499999747089571  0.7500001136439349  1.0000
  S   S1        1.0  3.5587589438750856e-08  0.999999941498502  8.509663118288926e-08  1.0000
  O   O1        1.0  0.23198330426555086  0.2319832302187552  0.7680167572695508  1.0000
  O   O2        1.0  0.7680167852486335  0.7680167709982483  0.23198326286387425  1.0000
  O   O3        1.0  0.7680168310880395  0.2319832219225068  0.23198317817933747  1.0000
  O   O4        1.0  0.23198325185833035  0.7680166817919989  0.7680167666125045  1.0000
  O   O5        1.0  0.23198314720214686  0.7680168739154014  0.2319831250812555  1.0000
  O   O6        1.0  0.7680167227325785  0.23198319311578727  0.768016731113161  1.0000
