data_image0
_chemical_formula_structural       Cr2SbO6
_chemical_formula_sum              "Cr2 Sb1 O6"
_cell_length_a       5.313609726417006
_cell_length_b       5.3136098505973965
_cell_length_c       5.313610026405064
_cell_angle_alpha    59.99999838198211
_cell_angle_beta     59.99999930607752
_cell_angle_gamma    60.00000016967576

_space_group_name_H-M_alt    "P 1"
_space_group_IT_number       1

loop_
  _space_group_symop_operation_xyz
  'x, y, z'

loop_
  _atom_site_type_symbol
  _atom_site_label
  _atom_site_symmetry_multiplicity
  _atom_site_fract_x
  _atom_site_fract_y
  _atom_site_fract_z
  _atom_site_occupancy
  Cr  Cr1       1.0  0.24999993155268221  0.2499999401264494  0.24999995751433285  1.0000
  Cr  Cr2       1.0  0.7500001183821056  0.7499999379302994  0.7499999116159364  1.0000
  Sb  Sb1       1.0  3.7097131249725853e-09  0.9999999953901593  0.9999999609289099  1.0000
  O   O1        1.0  0.26072281451484247  0.2607228797757021  0.7392771943334239  1.0000
  O   O2        1.0  0.7392771431591556  0.7392771642353271  0.26072290895229727  1.0000
  O   O3        1.0  0.7392772205415704  0.2607227938999431  0.2607228665457366  1.0000
  O   O4        1.0  0.2607228098766758  0.7392772339766428  0.7392771707958884  1.0000
  O   O5        1.0  0.26072280870937287  0.7392772204997881  0.2607228680794543  1.0000
  O   O6        1.0  0.7392771383401494  0.26072284886536784  0.7392772184316424  1.0000
