data_image0
_chemical_formula_structural       Cr2SbS6
_chemical_formula_sum              "Cr2 Sb1 S6"
_cell_length_a       6.592450211592386
_cell_length_b       6.592450227382222
_cell_length_c       6.592450097925539
_cell_angle_alpha    60.00000134998592
_cell_angle_beta     59.99999986557634
_cell_angle_gamma    60.0000002855227

_space_group_name_H-M_alt    "P 1"
_space_group_IT_number       1

loop_
  _space_group_symop_operation_xyz
  'x, y, z'

loop_
  _atom_site_type_symbol
  _atom_site_label
  _atom_site_symmetry_multiplicity
  _atom_site_fract_x
  _atom_site_fract_y
  _atom_site_fract_z
  _atom_site_occupancy
  Cr  Cr1       1.0  0.24999984871450928  0.25000024068299587  0.24999995089963467  1.0000
  Cr  Cr2       1.0  0.7500000458789995  0.7499999584935297  0.75000016056775  1.0000
  Sb  Sb1       1.0  2.0399332058127857e-08  1.8577992496684663e-09  5.557188157592917e-09  1.0000
  S   S1        1.0  0.25955625525827286  0.25955612205594364  0.7404438025476352  1.0000
  S   S2        1.0  0.7404438231995429  0.7404438040241005  0.25955607594556435  1.0000
  S   S3        1.0  0.7404438019283414  0.25955624547763945  0.25955619874502195  1.0000
  S   S4        1.0  0.2595561644120511  0.7404437121849925  0.7404438641198348  1.0000
  S   S5        1.0  0.2595562346165105  0.7404437535310942  0.2595561348834257  1.0000
  S   S6        1.0  0.7404437846953771  0.2595561818379463  0.7404437928084279  1.0000
