data_image0
_chemical_formula_structural       Cr2TaO6
_chemical_formula_sum              "Cr2 Ta1 O6"
_cell_length_a       5.290346387733662
_cell_length_b       5.290346339596452
_cell_length_c       5.290346462781002
_cell_angle_alpha    59.99999917742913
_cell_angle_beta     59.999998992418135
_cell_angle_gamma    60.000000203052494

_space_group_name_H-M_alt    "P 1"
_space_group_IT_number       1

loop_
  _space_group_symop_operation_xyz
  'x, y, z'

loop_
  _atom_site_type_symbol
  _atom_site_label
  _atom_site_symmetry_multiplicity
  _atom_site_fract_x
  _atom_site_fract_y
  _atom_site_fract_z
  _atom_site_occupancy
  Cr  Cr1       1.0  0.25000005509284534  0.2500000824395047  0.24999989205034148  1.0000
  Cr  Cr2       1.0  0.7500001914288689  0.7500000968398656  0.7499998876437765  1.0000
  Ta  Ta1       1.0  0.9999999678994476  4.630111926918228e-09  2.3938081802404484e-09  1.0000
  O   O1        1.0  0.26085977671225163  0.26085984494991266  0.7391402252835365  1.0000
  O   O2        1.0  0.7391402741233015  0.739140142179796  0.26085981826720234  1.0000
  O   O3        1.0  0.7391401734735074  0.2608597941013027  0.26085982792137713  1.0000
  O   O4        1.0  0.26085972486365366  0.7391401397821128  0.7391402183192303  1.0000
  O   O5        1.0  0.2608597307745736  0.7391401298326328  0.26085990773495693  1.0000
  O   O6        1.0  0.7391401243293871  0.26085974385932265  0.7391402110105701  1.0000
