data_image0
_chemical_formula_structural       Cr2TaTe6
_chemical_formula_sum              "Cr2 Ta1 Te6"
_cell_length_a       7.276385876356115
_cell_length_b       7.276385897919382
_cell_length_c       7.276385715393197
_cell_angle_alpha    59.999999566300104
_cell_angle_beta     60.00000049346906
_cell_angle_gamma    59.99999907242257

_space_group_name_H-M_alt    "P 1"
_space_group_IT_number       1

loop_
  _space_group_symop_operation_xyz
  'x, y, z'

loop_
  _atom_site_type_symbol
  _atom_site_label
  _atom_site_symmetry_multiplicity
  _atom_site_fract_x
  _atom_site_fract_y
  _atom_site_fract_z
  _atom_site_occupancy
  Cr  Cr1       1.0  0.2499999560713345  0.24999992536119758  0.25000007462885804  1.0000
  Cr  Cr2       1.0  0.7500000368393971  0.7500000319265681  0.7499999099535452  1.0000
  Ta  Ta1       1.0  4.6004016441721175e-08  2.861401699800292e-08  0.9999999310818835  1.0000
  Te  Te1       1.0  0.26262456658092287  0.2626245760044836  0.7373754469743097  1.0000
  Te  Te2       1.0  0.7373754029743654  0.737375413263653  0.2626246308715453  1.0000
  Te  Te3       1.0  0.737375456769734  0.26262454267887825  0.2626245832950568  1.0000
  Te  Te4       1.0  0.26262452527183183  0.7373754853023409  0.737375420850314  1.0000
  Te  Te5       1.0  0.2626245178602472  0.737375468110362  0.26262457398693834  1.0000
  Te  Te6       1.0  0.7373754922975073  0.2626245278904846  0.737375430716216  1.0000
