data_image0
_chemical_formula_structural       Cr2TaSe6
_chemical_formula_sum              "Cr2 Ta1 Se6"
_cell_length_a       6.745557573917541
_cell_length_b       6.745557652310881
_cell_length_c       6.745557380225299
_cell_angle_alpha    59.99999840416824
_cell_angle_beta     59.99999955119127
_cell_angle_gamma    59.99999893831658

_space_group_name_H-M_alt    "P 1"
_space_group_IT_number       1

loop_
  _space_group_symop_operation_xyz
  'x, y, z'

loop_
  _atom_site_type_symbol
  _atom_site_label
  _atom_site_symmetry_multiplicity
  _atom_site_fract_x
  _atom_site_fract_y
  _atom_site_fract_z
  _atom_site_occupancy
  Cr  Cr1       1.0  0.2499998110341651  0.2500004033162024  0.24999975269073163  1.0000
  Cr  Cr2       1.0  0.7499997228202141  0.7500006489183685  0.7499998829393348  1.0000
  Ta  Ta1       1.0  0.9999999953659909  3.63126501189522e-09  0.9999999500978277  1.0000
  Se  Se1       1.0  0.2620367359199123  0.26203626510108713  0.7379635220152448  1.0000
  Se  Se2       1.0  0.73796356095334  0.7379632837903535  0.26203660385600736  1.0000
  Se  Se3       1.0  0.7379635073497941  0.26203637862906637  0.26203673218702966  1.0000
  Se  Se4       1.0  0.2620365551084503  0.7379633445630246  0.7379635156537453  1.0000
  Se  Se5       1.0  0.26203661399584927  0.7379633215436838  0.26203651659117133  1.0000
  Se  Se6       1.0  0.7379635027740655  0.262036336285668  0.7379635381258762  1.0000
