data_image0
_chemical_formula_structural       Cr2TaTe6
_chemical_formula_sum              "Cr2 Ta1 Te6"
_cell_length_a       7.276416343609836
_cell_length_b       7.276416339085482
_cell_length_c       7.276416323850249
_cell_angle_alpha    60.00000000863466
_cell_angle_beta     59.99999990971056
_cell_angle_gamma    60.00000014816905

_space_group_name_H-M_alt    "P 1"
_space_group_IT_number       1

loop_
  _space_group_symop_operation_xyz
  'x, y, z'

loop_
  _atom_site_type_symbol
  _atom_site_label
  _atom_site_symmetry_multiplicity
  _atom_site_fract_x
  _atom_site_fract_y
  _atom_site_fract_z
  _atom_site_occupancy
  Cr  Cr1       1.0  0.2499999385064319  0.24999994716746635  0.25000003582907615  1.0000
  Cr  Cr2       1.0  0.7500000696610264  0.7500000788294281  0.749999963451262  1.0000
  Ta  Ta1       1.0  6.82894368517019e-09  0.9999999747524438  3.8069667000762216e-08  1.0000
  Te  Te1       1.0  0.2626238257301967  0.26262380608815916  0.7373761748380345  1.0000
  Te  Te2       1.0  0.7373762000060308  0.7373761862453271  0.2626237816404163  1.0000
  Te  Te3       1.0  0.7373762243349717  0.2626238036339328  0.2626238155003858  1.0000
  Te  Te4       1.0  0.2626237779661638  0.7373761971154055  0.7373761842195597  1.0000
  Te  Te5       1.0  0.26262376330972137  0.737376234148315  0.26262382156443215  1.0000
  Te  Te6       1.0  0.7373761934358686  0.2626237699673641  0.73737618688139  1.0000
