data_image0
_chemical_formula_structural       Cr2TiO6
_chemical_formula_sum              "Cr2 Ti1 O6"
_cell_length_a       5.146771309958781
_cell_length_b       5.146771333146362
_cell_length_c       5.146771441267541
_cell_angle_alpha    60.00000106209887
_cell_angle_beta     60.00000177855304
_cell_angle_gamma    60.0000038796028

_space_group_name_H-M_alt    "P 1"
_space_group_IT_number       1

loop_
  _space_group_symop_operation_xyz
  'x, y, z'

loop_
  _atom_site_type_symbol
  _atom_site_label
  _atom_site_symmetry_multiplicity
  _atom_site_fract_x
  _atom_site_fract_y
  _atom_site_fract_z
  _atom_site_occupancy
  Cr  Cr1       1.0  0.2500000502585804  0.24999999397962255  0.2500000851235875  1.0000
  Cr  Cr2       1.0  0.7499995922421534  0.7500002508378439  0.7499997182071257  1.0000
  Ti  Ti1       1.0  0.999999971514402  0.999999964305441  4.888558670204902e-09  1.0000
  O   O1        1.0  0.2593003474287495  0.25930014493846265  0.7406997271791378  1.0000
  O   O2        1.0  0.7406998274102095  0.740699714377802  0.2593004204706792  1.0000
  O   O3        1.0  0.740699680022679  0.2593002206496508  0.25930028435919145  1.0000
  O   O4        1.0  0.2593004040518402  0.7406998100004877  0.7406997666599054  1.0000
  O   O5        1.0  0.25930026392286104  0.7406997076173928  0.25930025937719614  1.0000
  O   O6        1.0  0.7406998354288292  0.25930014931923057  0.740699765939927  1.0000
