data_image0
_chemical_formula_structural       Cr2TiS6
_chemical_formula_sum              "Cr2 Ti1 S6"
_cell_length_a       6.332490600606673
_cell_length_b       6.332490497710607
_cell_length_c       6.332490630161749
_cell_angle_alpha    59.99999951624623
_cell_angle_beta     59.99999954283739
_cell_angle_gamma    59.99999949613665

_space_group_name_H-M_alt    "P 1"
_space_group_IT_number       1

loop_
  _space_group_symop_operation_xyz
  'x, y, z'

loop_
  _atom_site_type_symbol
  _atom_site_label
  _atom_site_symmetry_multiplicity
  _atom_site_fract_x
  _atom_site_fract_y
  _atom_site_fract_z
  _atom_site_occupancy
  Cr  Cr1       1.0  0.2500000772346424  0.24999995141697015  0.25000003364694084  1.0000
  Cr  Cr2       1.0  0.7499999439837021  0.749999929679449  0.7500003539483131  1.0000
  Ti  Ti1       1.0  2.449164200520926e-09  3.094504154602513e-08  1.9623519407204478e-08  1.0000
  S   S1        1.0  0.2576840000358317  0.25768410788260937  0.7423159489892722  1.0000
  S   S2        1.0  0.7423159459025438  0.742315927939015  0.2576839156611726  1.0000
  S   S3        1.0  0.7423159253259268  0.25768413263224077  0.2576839538376693  1.0000
  S   S4        1.0  0.25768406660328724  0.7423159457388158  0.742315882334215  1.0000
  S   S5        1.0  0.2576841097403785  0.7423159247001635  0.25768399115513696  1.0000
  S   S6        1.0  0.7423159297661851  0.25768404923137833  0.7423159002935068  1.0000
