data_image0
_chemical_formula_structural       Cr2TaO6
_chemical_formula_sum              "Cr2 Ta1 O6"
_cell_length_a       5.290360488537013
_cell_length_b       5.290360424315945
_cell_length_c       5.29036042956664
_cell_angle_alpha    59.99999837816568
_cell_angle_beta     59.99999762742951
_cell_angle_gamma    59.99999797183414

_space_group_name_H-M_alt    "P 1"
_space_group_IT_number       1

loop_
  _space_group_symop_operation_xyz
  'x, y, z'

loop_
  _atom_site_type_symbol
  _atom_site_label
  _atom_site_symmetry_multiplicity
  _atom_site_fract_x
  _atom_site_fract_y
  _atom_site_fract_z
  _atom_site_occupancy
  Cr  Cr1       1.0  0.2499996663813426  0.250000260925274  0.250000042382814  1.0000
  Cr  Cr2       1.0  0.7500003450603142  0.7499999076869076  0.7500000694163944  1.0000
  Ta  Ta1       1.0  2.043824998873758e-08  0.9999999583290995  3.3299089873994924e-08  1.0000
  O   O1        1.0  0.26086018737371053  0.26086023301204303  0.7391398286078171  1.0000
  O   O2        1.0  0.7391398877659046  0.7391396855747392  0.26086010227170847  1.0000
  O   O3        1.0  0.739139759527573  0.26086026851616506  0.2608602214962268  1.0000
  O   O4        1.0  0.2608600945666349  0.7391397959187692  0.7391397639940027  1.0000
  O   O5        1.0  0.2608601812106202  0.7391397000326717  0.26086027070809453  1.0000
  O   O6        1.0  0.7391398613216436  0.2608602116089608  0.7391396837281431  1.0000
