data_image0
_chemical_formula_structural       Cr2TiSe6
_chemical_formula_sum              "Cr2 Ti1 Se6"
_cell_length_a       6.677084413391129
_cell_length_b       6.67708442538681
_cell_length_c       6.677084289443039
_cell_angle_alpha    60.000000735619636
_cell_angle_beta     60.000000980720415
_cell_angle_gamma    60.000001606710384

_space_group_name_H-M_alt    "P 1"
_space_group_IT_number       1

loop_
  _space_group_symop_operation_xyz
  'x, y, z'

loop_
  _atom_site_type_symbol
  _atom_site_label
  _atom_site_symmetry_multiplicity
  _atom_site_fract_x
  _atom_site_fract_y
  _atom_site_fract_z
  _atom_site_occupancy
  Cr  Cr1       1.0  0.24999985090981616  0.2499999207516899  0.25000034940481997  1.0000
  Cr  Cr2       1.0  0.7499998873776432  0.7500001694587892  0.7500001036848418  1.0000
  Ti  Ti1       1.0  2.8892408386505908e-08  0.9999999963314984  1.4345921146734803e-08  1.0000
  Se  Se1       1.0  0.25703930709618583  0.2570391649070535  0.7429607529334521  1.0000
  Se  Se2       1.0  0.7429607608524883  0.7429608079113678  0.25703912225882897  1.0000
  Se  Se3       1.0  0.7429607871968217  0.2570391928440237  0.25703924828067276  1.0000
  Se  Se4       1.0  0.25703924074903634  0.7429608221621694  0.7429606392980678  1.0000
  Se  Se5       1.0  0.2570392775724561  0.7429606959298815  0.25703916955796274  1.0000
  Se  Se6       1.0  0.7429608656823212  0.25703922736376467  0.7429605938981148  1.0000
