data_image0
_chemical_formula_structural       Cr2TiTe6
_chemical_formula_sum              "Cr2 Ti1 Te6"
_cell_length_a       7.171104226140991
_cell_length_b       7.171104096560295
_cell_length_c       7.171104337950558
_cell_angle_alpha    59.99999975624058
_cell_angle_beta     59.99999911239693
_cell_angle_gamma    60.000000653846314

_space_group_name_H-M_alt    "P 1"
_space_group_IT_number       1

loop_
  _space_group_symop_operation_xyz
  'x, y, z'

loop_
  _atom_site_type_symbol
  _atom_site_label
  _atom_site_symmetry_multiplicity
  _atom_site_fract_x
  _atom_site_fract_y
  _atom_site_fract_z
  _atom_site_occupancy
  Cr  Cr1       1.0  0.24999991487012044  0.2500000082214929  0.25000001304262637  1.0000
  Cr  Cr2       1.0  0.7500000306254677  0.7500000844405913  0.7499997909300598  1.0000
  Ti  Ti1       1.0  1.5418399808526513e-08  3.5865666293172983e-08  8.531889436734015e-10  1.0000
  Te  Te1       1.0  0.2605857130471663  0.26058562862477275  0.7394143401918122  1.0000
  Te  Te2       1.0  0.7394142939156576  0.7394143086194299  0.2605857533966479  1.0000
  Te  Te3       1.0  0.7394143193784933  0.2605856667216433  0.26058576338887085  1.0000
  Te  Te4       1.0  0.26058569524469266  0.7394142910172257  0.7394143203055313  1.0000
  Te  Te5       1.0  0.26058571713516254  0.7394142548813094  0.2605857330891384  1.0000
  Te  Te6       1.0  0.7394142970973209  0.2605857233522251  0.739414284773868  1.0000
