data_image0
_chemical_formula_structural       Cr2VO6
_chemical_formula_sum              "Cr2 V1 O6"
_cell_length_a       5.098719770854717
_cell_length_b       5.098719525462416
_cell_length_c       5.098719634257741
_cell_angle_alpha    59.99999950269307
_cell_angle_beta     60.00000012912087
_cell_angle_gamma    59.999999599201736

_space_group_name_H-M_alt    "P 1"
_space_group_IT_number       1

loop_
  _space_group_symop_operation_xyz
  'x, y, z'

loop_
  _atom_site_type_symbol
  _atom_site_label
  _atom_site_symmetry_multiplicity
  _atom_site_fract_x
  _atom_site_fract_y
  _atom_site_fract_z
  _atom_site_occupancy
  Cr  Cr1       1.0  0.25000003614856076  0.25000005600578834  0.2499999083401358  1.0000
  Cr  Cr2       1.0  0.7499999833188555  0.7499999998729098  0.7500001246607426  1.0000
  V   V1        1.0  1.8918185556048113e-08  0.9999999975979363  0.9999999721291719  1.0000
  O   O1        1.0  0.25983736565489357  0.2598374197134752  0.7401625818682179  1.0000
  O   O2        1.0  0.7401626008337956  0.7401625641033123  0.2598373587121206  1.0000
  O   O3        1.0  0.7401626359369349  0.2598374386619352  0.25983741963080453  1.0000
  O   O4        1.0  0.2598374082144291  0.7401625499589808  0.7401626111216707  1.0000
  O   O5        1.0  0.2598373544732838  0.7401625930885084  0.2598374395840338  1.0000
  O   O6        1.0  0.7401625900318445  0.2598373955324064  0.7401625605792158  1.0000
