data_image0
_chemical_formula_structural       Cr2VTe6
_chemical_formula_sum              "Cr2 V1 Te6"
_cell_length_a       7.050193187790874
_cell_length_b       7.050193121310326
_cell_length_c       7.050192828248056
_cell_angle_alpha    60.000001138846045
_cell_angle_beta     60.00000126153779
_cell_angle_gamma    59.99999614494992

_space_group_name_H-M_alt    "P 1"
_space_group_IT_number       1

loop_
  _space_group_symop_operation_xyz
  'x, y, z'

loop_
  _atom_site_type_symbol
  _atom_site_label
  _atom_site_symmetry_multiplicity
  _atom_site_fract_x
  _atom_site_fract_y
  _atom_site_fract_z
  _atom_site_occupancy
  Cr  Cr1       1.0  0.24999987005575203  0.25000007278863945  0.2500001203571881  1.0000
  Cr  Cr2       1.0  0.7499999495980405  0.7500000255390109  0.7499999104749802  1.0000
  V   V1        1.0  0.9999999756142315  1.9108972382374826e-08  0.9999999827807852  1.0000
  Te  Te1       1.0  0.2603947923745138  0.2603948065424668  0.7396051441702659  1.0000
  Te  Te2       1.0  0.7396052402821863  0.7396051441249414  0.260394858245772  1.0000
  Te  Te3       1.0  0.7396052612932279  0.26039469039771057  0.2603947297400534  1.0000
  Te  Te4       1.0  0.2603947159071758  0.7396053627632727  0.7396052675965571  1.0000
  Te  Te5       1.0  0.2603947824296167  0.7396052086671189  0.26039471639610606  1.0000
  Te  Te6       1.0  0.7396054147224123  0.26039467598747157  0.7396052708202979  1.0000
