data_image0
_chemical_formula_structural       Cr2VSe6
_chemical_formula_sum              "Cr2 V1 Se6"
_cell_length_a       6.657007729767666
_cell_length_b       6.6570076262114775
_cell_length_c       6.6570074754494
_cell_angle_alpha    60.00000130823072
_cell_angle_beta     60.00000065426603
_cell_angle_gamma    60.00000054000383

_space_group_name_H-M_alt    "P 1"
_space_group_IT_number       1

loop_
  _space_group_symop_operation_xyz
  'x, y, z'

loop_
  _atom_site_type_symbol
  _atom_site_label
  _atom_site_symmetry_multiplicity
  _atom_site_fract_x
  _atom_site_fract_y
  _atom_site_fract_z
  _atom_site_occupancy
  Cr  Cr1       1.0  0.24999983543584617  0.2500002531432148  0.24999992741566157  1.0000
  Cr  Cr2       1.0  0.749999771284231  0.7500002350915301  0.7500001703020451  1.0000
  V   V1        1.0  0.9999999535695979  9.198914074691037e-09  0.9999999915765678  1.0000
  Se  Se1       1.0  0.25299373146608667  0.25299355658982375  0.7470063355287662  1.0000
  Se  Se2       1.0  0.7470064583413539  0.7470062803617852  0.2529935664538211  1.0000
  Se  Se3       1.0  0.7470063996678857  0.25299358224340707  0.25299365261419493  1.0000
  Se  Se4       1.0  0.25299362912271467  0.747006269426466  0.7470064697309757  1.0000
  Se  Se5       1.0  0.252993795786865  0.747006309312574  0.25299354731326384  1.0000
  Se  Se6       1.0  0.7470064273981657  0.2529935055616405  0.7470063370018137  1.0000
