data_image0
_chemical_formula_structural       Cr2VS6
_chemical_formula_sum              "Cr2 V1 S6"
_cell_length_a       6.366682107890221
_cell_length_b       6.366681866420221
_cell_length_c       6.36668207843964
_cell_angle_alpha    59.99999934827974
_cell_angle_beta     59.99999894162585
_cell_angle_gamma    59.99999876122727

_space_group_name_H-M_alt    "P 1"
_space_group_IT_number       1

loop_
  _space_group_symop_operation_xyz
  'x, y, z'

loop_
  _atom_site_type_symbol
  _atom_site_label
  _atom_site_symmetry_multiplicity
  _atom_site_fract_x
  _atom_site_fract_y
  _atom_site_fract_z
  _atom_site_occupancy
  Cr  Cr1       1.0  0.2500000084737833  0.2500000181142425  0.2500000105205782  1.0000
  Cr  Cr2       1.0  0.7499999791274163  0.750000040876977  0.7499999200806625  1.0000
  V   V1        1.0  0.9999999649903486  2.8855176835089818e-08  0.9999999716637011  1.0000
  S   S1        1.0  0.2504366614709076  0.2504366402554852  0.7495633322338252  1.0000
  S   S2        1.0  0.7495633311689596  0.7495633764148085  0.25043667355291016  1.0000
  S   S3        1.0  0.7495633719438155  0.2504365795120605  0.25043663047712933  1.0000
  S   S4        1.0  0.25043662560582686  0.7495634333108764  0.7495633700663665  1.0000
  S   S5        1.0  0.2504366839655309  0.7495632765099727  0.250436701343666  1.0000
  S   S6        1.0  0.7495633703043111  0.2504366151212209  0.7495634036867346  1.0000
