data_image0
_chemical_formula_structural       Cr2WO6
_chemical_formula_sum              "Cr2 W1 O6"
_cell_length_a       5.414148920494872
_cell_length_b       5.41414890988688
_cell_length_c       5.414149076783416
_cell_angle_alpha    59.99999981286122
_cell_angle_beta     59.99999881118494
_cell_angle_gamma    60.0000003662705

_space_group_name_H-M_alt    "P 1"
_space_group_IT_number       1

loop_
  _space_group_symop_operation_xyz
  'x, y, z'

loop_
  _atom_site_type_symbol
  _atom_site_label
  _atom_site_symmetry_multiplicity
  _atom_site_fract_x
  _atom_site_fract_y
  _atom_site_fract_z
  _atom_site_occupancy
  Cr  Cr1       1.0  0.24999938976547928  0.2500003418407375  0.24999999340509993  1.0000
  Cr  Cr2       1.0  0.7499997449196054  0.7499998944627708  0.7500004006937112  1.0000
  W   W1        1.0  0.9999999899831328  0.9999999660682155  0.9999999665639563  1.0000
  O   O1        1.0  0.25148115579502495  0.2514812295926496  0.7485188755305144  1.0000
  O   O2        1.0  0.7485190477250422  0.7485186538203153  0.2514811476669871  1.0000
  O   O3        1.0  0.7485189637014036  0.251481278421875  0.25148104314380265  1.0000
  O   O4        1.0  0.2514813209036061  0.7485187520288202  0.7485188364401661  1.0000
  O   O5        1.0  0.25148136189381587  0.7485187989270335  0.25148102315570536  1.0000
  O   O6        1.0  0.7485189681051412  0.25148105055414643  0.7485187450558519  1.0000
