data_image0
_chemical_formula_structural       Cr2WTe6
_chemical_formula_sum              "Cr2 W1 Te6"
_cell_length_a       7.161973831204535
_cell_length_b       7.16197375903626
_cell_length_c       7.161973712593601
_cell_angle_alpha    59.99999997376048
_cell_angle_beta     59.99999851274829
_cell_angle_gamma    60.00000017569364

_space_group_name_H-M_alt    "P 1"
_space_group_IT_number       1

loop_
  _space_group_symop_operation_xyz
  'x, y, z'

loop_
  _atom_site_type_symbol
  _atom_site_label
  _atom_site_symmetry_multiplicity
  _atom_site_fract_x
  _atom_site_fract_y
  _atom_site_fract_z
  _atom_site_occupancy
  Cr  Cr1       1.0  0.25000004332228337  0.2499999895638125  0.2499999769815734  1.0000
  Cr  Cr2       1.0  0.7500000617459021  0.7500000234135538  0.7500000633578209  1.0000
  W   W1        1.0  0.9999999329052035  0.9999999110765598  0.999999782001331  1.0000
  Te  Te1       1.0  0.2608322626611694  0.26083221272197304  0.7391677448936986  1.0000
  Te  Te2       1.0  0.7391678545227433  0.7391678412969795  0.2608321348257759  1.0000
  Te  Te3       1.0  0.7391677046363043  0.26083227123936875  0.26083225801110355  1.0000
  Te  Te4       1.0  0.260832065468916  0.7391678905137476  0.7391678935733239  1.0000
  Te  Te5       1.0  0.26083224610873723  0.7391677359448835  0.26083228514518825  1.0000
  Te  Te6       1.0  0.7391678280358743  0.2608321231265316  0.7391678573828112  1.0000
