data_image0
_chemical_formula_structural       Cr2YS6
_chemical_formula_sum              "Cr2 Y1 S6"
_cell_length_a       6.665585397090077
_cell_length_b       6.665585134479336
_cell_length_c       6.665585302826634
_cell_angle_alpha    59.999999978836875
_cell_angle_beta     60.000000535563316
_cell_angle_gamma    59.99999924441543

_space_group_name_H-M_alt    "P 1"
_space_group_IT_number       1

loop_
  _space_group_symop_operation_xyz
  'x, y, z'

loop_
  _atom_site_type_symbol
  _atom_site_label
  _atom_site_symmetry_multiplicity
  _atom_site_fract_x
  _atom_site_fract_y
  _atom_site_fract_z
  _atom_site_occupancy
  Cr  Cr1       1.0  0.24999995199237526  0.25000000228648084  0.25000004981921947  1.0000
  Cr  Cr2       1.0  0.7500000183089242  0.7500000031846097  0.749999867596324  1.0000
  Y   Y1        1.0  0.999999978914798  0.9999999853006768  8.89080247376713e-09  1.0000
  S   S1        1.0  0.2742902439843325  0.2742902855632658  0.72570980714204  1.0000
  S   S2        1.0  0.7257097379539305  0.7257096849969347  0.2742904129576757  1.0000
  S   S3        1.0  0.7257097857917795  0.2742902219682121  0.27429028260691596  1.0000
  S   S4        1.0  0.2742902899025668  0.7257097375674936  0.7257096470866099  1.0000
  S   S5        1.0  0.27429023540517367  0.7257097390281914  0.274290277813263  1.0000
  S   S6        1.0  0.72570976247229  0.27429033442726963  0.7257096548322343  1.0000
