data_image0
_chemical_formula_structural       Cr2YSe6
_chemical_formula_sum              "Cr2 Y1 Se6"
_cell_length_a       6.973645876174144
_cell_length_b       6.97364576730239
_cell_length_c       6.973645489507012
_cell_angle_alpha    59.99999953681742
_cell_angle_beta     60.0000014982141
_cell_angle_gamma    59.999997957710775

_space_group_name_H-M_alt    "P 1"
_space_group_IT_number       1

loop_
  _space_group_symop_operation_xyz
  'x, y, z'

loop_
  _atom_site_type_symbol
  _atom_site_label
  _atom_site_symmetry_multiplicity
  _atom_site_fract_x
  _atom_site_fract_y
  _atom_site_fract_z
  _atom_site_occupancy
  Cr  Cr1       1.0  0.2499999232376899  0.25000003658030284  0.2500001387312439  1.0000
  Cr  Cr2       1.0  0.7499998840670933  0.7499999306036516  0.7500002076783525  1.0000
  Y   Y1        1.0  9.536812924970178e-08  0.9999999771687803  0.9999998805612722  1.0000
  Se  Se1       1.0  0.2768323468969319  0.27683241353863863  0.7231675322538031  1.0000
  Se  Se2       1.0  0.7231676297678113  0.7231675870140235  0.27683239014815736  1.0000
  Se  Se3       1.0  0.7231675799691433  0.2768323945922321  0.2768324297619343  1.0000
  Se  Se4       1.0  0.2768323980328476  0.7231676516228661  0.7231676082352959  1.0000
  Se  Se5       1.0  0.2768324701699131  0.7231676583110117  0.276832227474554  1.0000
  Se  Se6       1.0  0.7231676719749972  0.2768323475103901  0.7231676081189825  1.0000
