data_image0
_chemical_formula_structural       Cr2YO6
_chemical_formula_sum              "Cr2 Y1 O6"
_cell_length_a       5.4871594478771195
_cell_length_b       5.487159505755381
_cell_length_c       5.487159351496657
_cell_angle_alpha    60.000000711854405
_cell_angle_beta     59.99999978409562
_cell_angle_gamma    59.999999312432045

_space_group_name_H-M_alt    "P 1"
_space_group_IT_number       1

loop_
  _space_group_symop_operation_xyz
  'x, y, z'

loop_
  _atom_site_type_symbol
  _atom_site_label
  _atom_site_symmetry_multiplicity
  _atom_site_fract_x
  _atom_site_fract_y
  _atom_site_fract_z
  _atom_site_occupancy
  Cr  Cr1       1.0  0.24999991932972498  0.2500001018958251  0.2500000939455843  1.0000
  Cr  Cr2       1.0  0.7500000153022031  0.7499999441002644  0.7500000897673401  1.0000
  Y   Y1        1.0  6.78284954359861e-08  1.116009809271808e-08  0.9999999841973786  1.0000
  O   O1        1.0  0.2803702877036826  0.2803702978745014  0.7196296063757951  1.0000
  O   O2        1.0  0.7196296208917752  0.7196296052723211  0.28037029911511574  1.0000
  O   O3        1.0  0.7196297077739452  0.28037032535073547  0.2803701748944662  1.0000
  O   O4        1.0  0.2803703218098695  0.7196297072532338  0.7196297548134929  1.0000
  O   O5        1.0  0.28037030280070807  0.719629642287924  0.28037037574116364  1.0000
  O   O6        1.0  0.7196297869600361  0.2803703612997871  0.7196296039941767  1.0000
