data_image0
_chemical_formula_structural       Cr2ZrSe6
_chemical_formula_sum              "Cr2 Zr1 Se6"
_cell_length_a       6.8281129886171135
_cell_length_b       6.828112922248579
_cell_length_c       6.828112924736631
_cell_angle_alpha    60.00000050363452
_cell_angle_beta     60.00000082552476
_cell_angle_gamma    60.000000579436566

_space_group_name_H-M_alt    "P 1"
_space_group_IT_number       1

loop_
  _space_group_symop_operation_xyz
  'x, y, z'

loop_
  _atom_site_type_symbol
  _atom_site_label
  _atom_site_symmetry_multiplicity
  _atom_site_fract_x
  _atom_site_fract_y
  _atom_site_fract_z
  _atom_site_occupancy
  Cr  Cr1       1.0  0.2500000006189021  0.25000002258949944  0.25000001196628774  1.0000
  Cr  Cr2       1.0  0.7500000106375411  0.7500000211328218  0.7500000050321458  1.0000
  Zr  Zr1       1.0  1.8106762280693088e-08  0.9999999964126404  1.5274996213210692e-09  1.0000
  Se  Se1       1.0  0.26683032084364866  0.2668303146887894  0.7331696748334502  1.0000
  Se  Se2       1.0  0.7331696792082053  0.7331696662547363  0.26683031471720225  1.0000
  Se  Se3       1.0  0.733169663226874  0.2668303210159145  0.26683031873302393  1.0000
  Se  Se4       1.0  0.26683031911094646  0.7331696724833702  0.7331696821839665  1.0000
  Se  Se5       1.0  0.2668303011660617  0.7331696886033306  0.26683031303939064  1.0000
  Se  Se6       1.0  0.7331696881413136  0.2668302941338749  0.7331696751285273  1.0000
