data_image0
_chemical_formula_structural       Cr2ZrTe6
_chemical_formula_sum              "Cr2 Zr1 Te6"
_cell_length_a       7.362837540644639
_cell_length_b       7.362837458185584
_cell_length_c       7.362837501134703
_cell_angle_alpha    60.00000066376803
_cell_angle_beta     59.999999234324505
_cell_angle_gamma    60.00000052158647

_space_group_name_H-M_alt    "P 1"
_space_group_IT_number       1

loop_
  _space_group_symop_operation_xyz
  'x, y, z'

loop_
  _atom_site_type_symbol
  _atom_site_label
  _atom_site_symmetry_multiplicity
  _atom_site_fract_x
  _atom_site_fract_y
  _atom_site_fract_z
  _atom_site_occupancy
  Cr  Cr1       1.0  0.25000001225258117  0.2500000319918244  0.2500000292479295  1.0000
  Cr  Cr2       1.0  0.7499999928948158  0.7500000111413453  0.7500000081260804  1.0000
  Zr  Zr1       1.0  0.9999999797401093  0.9999999384536743  1.088117097432654e-07  1.0000
  Te  Te1       1.0  0.26716163475847027  0.267161586474068  0.7328384053531203  1.0000
  Te  Te2       1.0  0.7328384660704499  0.7328384283810598  0.26716156436484684  1.0000
  Te  Te3       1.0  0.7328384377353511  0.26716150785537773  0.26716158189112693  1.0000
  Te  Te4       1.0  0.2671615893381502  0.7328384271558661  0.7328384143741266  1.0000
  Te  Te5       1.0  0.26716156935429025  0.7328384109929772  0.26716154775846707  1.0000
  Te  Te6       1.0  0.7328383173320926  0.2671616487743317  0.732838347668552  1.0000
