data_image0
_chemical_formula_structural       Cr2ZrO6
_chemical_formula_sum              "Cr2 Zr1 O6"
_cell_length_a       5.367717832626498
_cell_length_b       5.367717968956881
_cell_length_c       5.367717868391916
_cell_angle_alpha    60.00000035005224
_cell_angle_beta     59.99999968611071
_cell_angle_gamma    59.99999919699336

_space_group_name_H-M_alt    "P 1"
_space_group_IT_number       1

loop_
  _space_group_symop_operation_xyz
  'x, y, z'

loop_
  _atom_site_type_symbol
  _atom_site_label
  _atom_site_symmetry_multiplicity
  _atom_site_fract_x
  _atom_site_fract_y
  _atom_site_fract_z
  _atom_site_occupancy
  Cr  Cr1       1.0  0.24999992382026903  0.25000002793035764  0.25000007482049924  1.0000
  Cr  Cr2       1.0  0.7500000664169005  0.7499998830026722  0.7500000525573804  1.0000
  Zr  Zr1       1.0  2.468468617132863e-08  0.9999999840281953  1.2325266279558702e-09  1.0000
  O   O1        1.0  0.26980221873344773  0.2698021361698026  0.7301977960255797  1.0000
  O   O2        1.0  0.730197749033555  0.7301979002559759  0.26980213825383553  1.0000
  O   O3        1.0  0.7301978202090905  0.2698022917680797  0.2698021440508701  1.0000
  O   O4        1.0  0.2698021668962745  0.7301977834463658  0.7301978058767693  1.0000
  O   O5        1.0  0.2698021984446868  0.7301977481843732  0.2698022167968183  1.0000
  O   O6        1.0  0.7301978395735639  0.26980225173442285  0.730197747185192  1.0000
