data_image0
_chemical_formula_structural       Cr2ZrS6
_chemical_formula_sum              "Cr2 Zr1 S6"
_cell_length_a       6.479517746407647
_cell_length_b       6.479517687014008
_cell_length_c       6.479517659239915
_cell_angle_alpha    60.00000075478727
_cell_angle_beta     59.999999628842524
_cell_angle_gamma    59.99999977483193

_space_group_name_H-M_alt    "P 1"
_space_group_IT_number       1

loop_
  _space_group_symop_operation_xyz
  'x, y, z'

loop_
  _atom_site_type_symbol
  _atom_site_label
  _atom_site_symmetry_multiplicity
  _atom_site_fract_x
  _atom_site_fract_y
  _atom_site_fract_z
  _atom_site_occupancy
  Cr  Cr1       1.0  0.2499999484024567  0.24999999486895363  0.2500000311257138  1.0000
  Cr  Cr2       1.0  0.7499999966654444  0.7500000167399048  0.7500000586845976  1.0000
  Zr  Zr1       1.0  2.4427132237535514e-08  0.9999999962196418  0.999999988133288  1.0000
  S   S1        1.0  0.2676932532243546  0.2676931891022221  0.7323067615663927  1.0000
  S   S2        1.0  0.7323067499325054  0.7323067979343072  0.26769320653952  1.0000
  S   S3        1.0  0.7323068360228817  0.2676931998435501  0.26769318245090346  1.0000
  S   S4        1.0  0.26769316094148204  0.732306800424233  0.7323068176320999  1.0000
  S   S5        1.0  0.2676931952435529  0.7323068052135897  0.2676932113470997  1.0000
  S   S6        1.0  0.7323068348421307  0.2676932026149092  0.7323067421583649  1.0000
