data_image0
_chemical_formula_structural       Cs2AsS6
_chemical_formula_sum              "Cs2 As1 S6"
_cell_length_a       7.316418221734947
_cell_length_b       7.316420985965473
_cell_length_c       7.316418538210478
_cell_angle_alpha    59.999998162040086
_cell_angle_beta     60.00001881819047
_cell_angle_gamma    60.00000531789733

_space_group_name_H-M_alt    "P 1"
_space_group_IT_number       1

loop_
  _space_group_symop_operation_xyz
  'x, y, z'

loop_
  _atom_site_type_symbol
  _atom_site_label
  _atom_site_symmetry_multiplicity
  _atom_site_fract_x
  _atom_site_fract_y
  _atom_site_fract_z
  _atom_site_occupancy
  Cs  Cs1       1.0  0.2500000892280567  0.24999986524847392  0.2500001023656481  1.0000
  Cs  Cs2       1.0  0.7499999789549743  0.7500000878918603  0.7499998978607173  1.0000
  As  As1       1.0  1.394644730316322e-07  0.9999996384230453  2.559359259565591e-07  1.0000
  S   S1        1.0  0.23216279242490556  0.2321629542243689  0.7678370810337349  1.0000
  S   S2        1.0  0.7678370030084335  0.767837149573022  0.23216298980641434  1.0000
  S   S3        1.0  0.7678368595198868  0.23216324755117435  0.232163119753048  1.0000
  S   S4        1.0  0.2321629018403647  0.7678371809959265  0.7678364913872952  1.0000
  S   S5        1.0  0.23216271342812536  0.7678372384127543  0.23216286086391763  1.0000
  S   S6        1.0  0.7678374960627082  0.2321626979879164  0.7678370169396879  1.0000
