data_image0
_chemical_formula_structural       Cs2AsO6
_chemical_formula_sum              "Cs2 As1 O6"
_cell_length_a       6.523272477546802
_cell_length_b       6.523273245427233
_cell_length_c       6.523272813241144
_cell_angle_alpha    60.00000583815664
_cell_angle_beta     60.0000019627538
_cell_angle_gamma    60.0000053656934

_space_group_name_H-M_alt    "P 1"
_space_group_IT_number       1

loop_
  _space_group_symop_operation_xyz
  'x, y, z'

loop_
  _atom_site_type_symbol
  _atom_site_label
  _atom_site_symmetry_multiplicity
  _atom_site_fract_x
  _atom_site_fract_y
  _atom_site_fract_z
  _atom_site_occupancy
  Cs  Cs1       1.0  0.25000013518622205  0.2500000028494733  0.24999989012753762  1.0000
  Cs  Cs2       1.0  0.74999999667831  0.7499999766309211  0.7500001728485292  1.0000
  As  As1       1.0  9.631994051117438e-08  0.9999999924900013  4.297448303084786e-08  1.0000
  O   O1        1.0  0.1942826395609202  0.1942825540878234  0.805717307639193  1.0000
  O   O2        1.0  0.8057174434549033  0.8057174498000678  0.19428249162236924  1.0000
  O   O3        1.0  0.8057171193160588  0.19428271209990447  0.19428262316052194  1.0000
  O   O4        1.0  0.19428244066927938  0.8057174908030311  0.8057176707638563  1.0000
  O   O5        1.0  0.1942826846351069  0.8057172806130378  0.19428244271875833  1.0000
  O   O6        1.0  0.8057174225766197  0.1942824754448089  0.8057174898214885  1.0000
