data_image0
_chemical_formula_structural       Cs2BiTe6
_chemical_formula_sum              "Cs2 Bi1 Te6"
_cell_length_a       7.834470879218913
_cell_length_b       7.834472497831736
_cell_length_c       7.8344718428882585
_cell_angle_alpha    60.00000479473105
_cell_angle_beta     59.99999928125142
_cell_angle_gamma    59.99999833708744

_space_group_name_H-M_alt    "P 1"
_space_group_IT_number       1

loop_
  _space_group_symop_operation_xyz
  'x, y, z'

loop_
  _atom_site_type_symbol
  _atom_site_label
  _atom_site_symmetry_multiplicity
  _atom_site_fract_x
  _atom_site_fract_y
  _atom_site_fract_z
  _atom_site_occupancy
  Cs  Cs1       1.0  0.24999997969721277  0.24999999883240218  0.24999999773941528  1.0000
  Cs  Cs2       1.0  0.7499999444506968  0.7500000246361871  0.7500000670943532  1.0000
  Bi  Bi1       1.0  1.5574045115036397e-08  0.9999999046401225  8.967291407355113e-08  1.0000
  Te  Te1       1.0  0.28496856668673604  0.2849687649129  0.715031358181238  1.0000
  Te  Te2       1.0  0.7150311779963543  0.7150309568433075  0.28496897659855697  1.0000
  Te  Te3       1.0  0.7150312917284047  0.28496901915030065  0.2849687166687708  1.0000
  Te  Te4       1.0  0.2849689690267564  0.7150310777922635  0.7150310907915748  1.0000
  Te  Te5       1.0  0.28496879716835005  0.7150312093480796  0.28496879690717486  1.0000
  Te  Te6       1.0  0.7150312434561856  0.2849690439221684  0.7150309211956665  1.0000
