data_image0
_chemical_formula_structural       Cs2BiS6
_chemical_formula_sum              "Cs2 Bi1 S6"
_cell_length_a       7.931006929600172
_cell_length_b       7.931005203384708
_cell_length_c       7.931010569740967
_cell_angle_alpha    59.999973753835214
_cell_angle_beta     59.99997212164417
_cell_angle_gamma    60.00003621787789

_space_group_name_H-M_alt    "P 1"
_space_group_IT_number       1

loop_
  _space_group_symop_operation_xyz
  'x, y, z'

loop_
  _atom_site_type_symbol
  _atom_site_label
  _atom_site_symmetry_multiplicity
  _atom_site_fract_x
  _atom_site_fract_y
  _atom_site_fract_z
  _atom_site_occupancy
  Cs  Cs1       1.0  0.2500001637046711  0.24999994888616447  0.2500000832831234  1.0000
  Cs  Cs2       1.0  0.7500002884670636  0.7500003191986587  0.7499996181186616  1.0000
  Bi  Bi1       1.0  0.9999994337989587  0.9999994317158688  0.9999999922844018  1.0000
  S   S1        1.0  0.21468674942464055  0.21468753335005722  0.785313411780183  1.0000
  S   S2        1.0  0.7853121487098524  0.7853117711221652  0.21468885092888837  1.0000
  S   S3        1.0  0.7853123155765825  0.21468767612777995  0.2146878100529813  1.0000
  S   S4        1.0  0.21468880606648538  0.7853121472136667  0.7853113099398815  1.0000
  S   S5        1.0  0.2146881425504502  0.7853124567683124  0.21468811929248272  1.0000
  S   S6        1.0  0.7853117899117413  0.2146887502197722  0.7853110358592766  1.0000
