data_image0
_chemical_formula_structural       Cs2BiSe6
_chemical_formula_sum              "Cs2 Bi1 Se6"
_cell_length_a       7.26247655854424
_cell_length_b       7.2624763711439195
_cell_length_c       7.262476434425748
_cell_angle_alpha    60.0000008983217
_cell_angle_beta     59.99999037636084
_cell_angle_gamma    60.000009524336896

_space_group_name_H-M_alt    "P 1"
_space_group_IT_number       1

loop_
  _space_group_symop_operation_xyz
  'x, y, z'

loop_
  _atom_site_type_symbol
  _atom_site_label
  _atom_site_symmetry_multiplicity
  _atom_site_fract_x
  _atom_site_fract_y
  _atom_site_fract_z
  _atom_site_occupancy
  Cs  Cs1       1.0  0.2500000434505982  0.2500000739737633  0.24999989850076831  1.0000
  Cs  Cs2       1.0  0.7499999732577927  0.7499998441674427  0.7500002259219279  1.0000
  Bi  Bi1       1.0  0.9999999520341518  0.9999996526013937  6.09387522394032e-07  1.0000
  Se  Se1       1.0  0.2964752793981013  0.29647497535664125  0.7035250514987166  1.0000
  Se  Se2       1.0  0.7035256022204162  0.7035254723146305  0.29647474197007045  1.0000
  Se  Se3       1.0  0.703525373780868  0.2964741070600899  0.2964751119389019  1.0000
  Se  Se4       1.0  0.29647512646409346  0.7035249948630383  0.7035248359662482  1.0000
  Se  Se5       1.0  0.2964740732464198  0.7035256803175755  0.2964747434453525  1.0000
  Se  Se6       1.0  0.70352461398712  0.29647519738563394  0.703524770062105  1.0000
