data_image0
_chemical_formula_structural       Cs2GaSe6
_chemical_formula_sum              "Cs2 Ga1 Se6"
_cell_length_a       7.225752911122065
_cell_length_b       7.225749612741586
_cell_length_c       7.225755376002468
_cell_angle_alpha    59.99994333177702
_cell_angle_beta     59.99995471897858
_cell_angle_gamma    59.99991774490228

_space_group_name_H-M_alt    "P 1"
_space_group_IT_number       1

loop_
  _space_group_symop_operation_xyz
  'x, y, z'

loop_
  _atom_site_type_symbol
  _atom_site_label
  _atom_site_symmetry_multiplicity
  _atom_site_fract_x
  _atom_site_fract_y
  _atom_site_fract_z
  _atom_site_occupancy
  Cs  Cs1       1.0  0.2499993406388175  0.24999902668961904  0.25000075882407846  1.0000
  Cs  Cs2       1.0  0.7500003790734805  0.7500004022168743  0.7500001952165647  1.0000
  Ga  Ga1       1.0  1.5070825392992234e-07  0.9999976829703471  1.1053042047472906e-06  1.0000
  Se  Se1       1.0  0.30212537348212487  0.3021252481242792  0.6978739215894056  1.0000
  Se  Se2       1.0  0.6978798480087451  0.6978778826033202  0.30212190198468647  1.0000
  Se  Se3       1.0  0.6978736302434376  0.30212493340199886  0.3021242697158228  1.0000
  Se  Se4       1.0  0.3021239848326493  0.6978748599245398  0.697878999265002  1.0000
  Se  Se5       1.0  0.3021231407130435  0.6978743856078576  0.3021223817429152  1.0000
  Se  Se6       1.0  0.6978741514611105  0.3021255806071454  0.6978764713647291  1.0000
