data_image0
_chemical_formula_structural       Cs2GaS6
_chemical_formula_sum              "Cs2 Ga1 S6"
_cell_length_a       6.94126015092197
_cell_length_b       6.9412631073767725
_cell_length_c       6.941263311189843
_cell_angle_alpha    59.999984158032774
_cell_angle_beta     59.99999222262593
_cell_angle_gamma    60.000004492572174

_space_group_name_H-M_alt    "P 1"
_space_group_IT_number       1

loop_
  _space_group_symop_operation_xyz
  'x, y, z'

loop_
  _atom_site_type_symbol
  _atom_site_label
  _atom_site_symmetry_multiplicity
  _atom_site_fract_x
  _atom_site_fract_y
  _atom_site_fract_z
  _atom_site_occupancy
  Cs  Cs1       1.0  0.2500004019488476  0.24999991216389109  0.24999962466943126  1.0000
  Cs  Cs2       1.0  0.7499993956443157  0.750000391099086  0.7499999329859482  1.0000
  Ga  Ga1       1.0  9.94830959652497e-08  5.699144293878755e-07  0.9999999188573285  1.0000
  S   S1        1.0  0.2301437726894056  0.23014379657041928  0.769856167426264  1.0000
  S   S2        1.0  0.769856423678556  0.7698566478477817  0.23014359568189136  1.0000
  S   S3        1.0  0.7698562382963475  0.23014372441054842  0.23014378893702  1.0000
  S   S4        1.0  0.23014370199479664  0.7698553472724974  0.7698566301046683  1.0000
  S   S5        1.0  0.23014373868820612  0.769855911864574  0.23014422345937832  1.0000
  S   S6        1.0  0.7698561707107481  0.2301436168086477  0.7698563081224108  1.0000
