data_image0
_chemical_formula_structural       Cs2NO6
_chemical_formula_sum              "Cs2 N1 O6"
_cell_length_a       6.65313298344084
_cell_length_b       6.653134762587803
_cell_length_c       6.653132127585256
_cell_angle_alpha    60.000004945921056
_cell_angle_beta     60.000003329512175
_cell_angle_gamma    59.99998333947667

_space_group_name_H-M_alt    "P 1"
_space_group_IT_number       1

loop_
  _space_group_symop_operation_xyz
  'x, y, z'

loop_
  _atom_site_type_symbol
  _atom_site_label
  _atom_site_symmetry_multiplicity
  _atom_site_fract_x
  _atom_site_fract_y
  _atom_site_fract_z
  _atom_site_occupancy
  Cs  Cs1       1.0  0.2500000415809632  0.24999969783303672  0.2500006190933494  1.0000
  Cs  Cs2       1.0  0.749999953485983  0.7499998832255605  0.7500004327810408  1.0000
  N   N1        1.0  0.99999993618602  1.0713773171317263e-06  0.9999955026105198  1.0000
  O   O1        1.0  0.16765111996776635  0.16765116060323237  0.8323480008502153  1.0000
  O   O2        1.0  0.8323481681068083  0.8323484222966211  0.16765105132419236  1.0000
  O   O3        1.0  0.8323474236151069  0.16765272415922455  0.1676516422250755  1.0000
  O   O4        1.0  0.16764926535456798  0.8323511571348083  0.8323497738284806  1.0000
  O   O5        1.0  0.16765270775967195  0.8323471903137897  0.1676521080240537  1.0000
  O   O6        1.0  0.8323516927868005  0.16764853599543392  0.8323508524192473  1.0000
