data_image0
_chemical_formula_structural       Cs2SbO6
_chemical_formula_sum              "Cs2 Sb1 O6"
_cell_length_a       6.752344520528805
_cell_length_b       6.7523449168160345
_cell_length_c       6.752344337541027
_cell_angle_alpha    60.000000664270544
_cell_angle_beta     60.000002046175716
_cell_angle_gamma    60.00000165532359

_space_group_name_H-M_alt    "P 1"
_space_group_IT_number       1

loop_
  _space_group_symop_operation_xyz
  'x, y, z'

loop_
  _atom_site_type_symbol
  _atom_site_label
  _atom_site_symmetry_multiplicity
  _atom_site_fract_x
  _atom_site_fract_y
  _atom_site_fract_z
  _atom_site_occupancy
  Cs  Cs1       1.0  0.24999997479099131  0.25000004513185725  0.25000002679131156  1.0000
  Cs  Cs2       1.0  0.7500000239752155  0.7499999340630299  0.750000003875916  1.0000
  Sb  Sb1       1.0  1.1383708112023129e-08  0.9999999709790941  0.9999999540228157  1.0000
  O   O1        1.0  0.20046017571622496  0.20046034218186623  0.799539741344931  1.0000
  O   O2        1.0  0.7995397678771031  0.7995397204481304  0.20046026482440957  1.0000
  O   O3        1.0  0.7995397827948633  0.20046032010707737  0.20046015440356713  1.0000
  O   O4        1.0  0.2004602972605978  0.7995396409497428  0.7995398461690348  1.0000
  O   O5        1.0  0.20046027978108938  0.7995396982177676  0.2004602299470324  1.0000
  O   O6        1.0  0.7995397285016272  0.2004603499017757  0.799539733361236  1.0000
