data_image0
_chemical_formula_structural       Cs2YSe6
_chemical_formula_sum              "Cs2 Y1 Se6"
_cell_length_a       7.394531726453112
_cell_length_b       7.39451981437712
_cell_length_c       7.394555564141126
_cell_angle_alpha    59.99994690551498
_cell_angle_beta     59.99974950943566
_cell_angle_gamma    60.00007919487189

_space_group_name_H-M_alt    "P 1"
_space_group_IT_number       1

loop_
  _space_group_symop_operation_xyz
  'x, y, z'

loop_
  _atom_site_type_symbol
  _atom_site_label
  _atom_site_symmetry_multiplicity
  _atom_site_fract_x
  _atom_site_fract_y
  _atom_site_fract_z
  _atom_site_occupancy
  Cs  Cs1       1.0  0.24999913732396678  0.2500002009317321  0.2500035427979831  1.0000
  Cs  Cs2       1.0  0.7500009027960151  0.7500008114733868  0.7499968928673699  1.0000
  Y   Y1        1.0  0.9999939915160746  0.9999993756029475  2.325544064873834e-05  1.0000
  Se  Se1       1.0  0.2864783735943518  0.28649217439011593  0.7135181979285113  1.0000
  Se  Se2       1.0  0.7135249632712665  0.7135121539178378  0.2864845531153485  1.0000
  Se  Se3       1.0  0.7135226082150179  0.28647530966518164  0.2864690760733081  1.0000
  Se  Se4       1.0  0.2864977326878475  0.7135022778821855  0.7135149286207177  1.0000
  Se  Se5       1.0  0.2864701348988505  0.7135298079644851  0.28648078953033046  1.0000
  Se  Se6       1.0  0.7135117398072454  0.2864879047256654  0.7135087701918772  1.0000
