data_image0
_chemical_formula_structural       Cs2YO6
_chemical_formula_sum              "Cs2 Y1 O6"
_cell_length_a       6.772606479672486
_cell_length_b       6.772606219452637
_cell_length_c       6.772606812538313
_cell_angle_alpha    60.00000062307917
_cell_angle_beta     60.000000355920555
_cell_angle_gamma    60.000007182099424

_space_group_name_H-M_alt    "P 1"
_space_group_IT_number       1

loop_
  _space_group_symop_operation_xyz
  'x, y, z'

loop_
  _atom_site_type_symbol
  _atom_site_label
  _atom_site_symmetry_multiplicity
  _atom_site_fract_x
  _atom_site_fract_y
  _atom_site_fract_z
  _atom_site_occupancy
  Cs  Cs1       1.0  0.24999993164358655  0.24999993116957614  0.25000006625016535  1.0000
  Cs  Cs2       1.0  0.7500000905560757  0.7500000267898239  0.7499998973838926  1.0000
  Y   Y1        1.0  0.9999998691527512  0.9999997685272994  2.3579181070099359e-07  1.0000
  O   O1        1.0  0.23104194743897963  0.2310418947343719  0.7689580925745915  1.0000
  O   O2        1.0  0.7689581100654165  0.7689580596082727  0.23104193199536688  1.0000
  O   O3        1.0  0.768957931419718  0.23104215024021912  0.2310419636250406  1.0000
  O   O4        1.0  0.23104202503998794  0.7689580663175711  0.7689578578071805  1.0000
  O   O5        1.0  0.2310421258707006  0.7689579566541423  0.23104204622556043  1.0000
  O   O6        1.0  0.7689579920458708  0.23104210799971123  0.7689578767408103  1.0000
