data_image0
_chemical_formula_structural       Cs2YS6
_chemical_formula_sum              "Cs2 Y1 S6"
_cell_length_a       7.115601475892999
_cell_length_b       7.115600627353892
_cell_length_c       7.115601613424489
_cell_angle_alpha    59.99999459457223
_cell_angle_beta     59.999994378334435
_cell_angle_gamma    60.00000885294674

_space_group_name_H-M_alt    "P 1"
_space_group_IT_number       1

loop_
  _space_group_symop_operation_xyz
  'x, y, z'

loop_
  _atom_site_type_symbol
  _atom_site_label
  _atom_site_symmetry_multiplicity
  _atom_site_fract_x
  _atom_site_fract_y
  _atom_site_fract_z
  _atom_site_occupancy
  Cs  Cs1       1.0  0.25000003966733897  0.2500000087654793  0.24999994841615666  1.0000
  Cs  Cs2       1.0  0.7499999837550094  0.7499999987570429  0.7499999997205289  1.0000
  Y   Y1        1.0  0.999999939341621  0.9999995783033391  5.939235239226754e-07  1.0000
  S   S1        1.0  0.2802565131869338  0.2802567913014613  0.7197431565012955  1.0000
  S   S2        1.0  0.7197433831191697  0.7197431594210812  0.2802567261929023  1.0000
  S   S3        1.0  0.7197431587921218  0.2802571022462339  0.2802565682690165  1.0000
  S   S4        1.0  0.28025676327283705  0.7197433700031964  0.7197431461844964  1.0000
  S   S5        1.0  0.2802569003452167  0.7197431661603474  0.2802567397864595  1.0000
  S   S6        1.0  0.7197433256453226  0.28025682759252113  0.7197430956812365  1.0000
