data_image0
_chemical_formula_structural       Cs2YTe6
_chemical_formula_sum              "Cs2 Y1 Te6"
_cell_length_a       7.862073044279961
_cell_length_b       7.862072695065654
_cell_length_c       7.8620727750180235
_cell_angle_alpha    59.99999770242868
_cell_angle_beta     59.99999637454849
_cell_angle_gamma    60.0000064523821

_space_group_name_H-M_alt    "P 1"
_space_group_IT_number       1

loop_
  _space_group_symop_operation_xyz
  'x, y, z'

loop_
  _atom_site_type_symbol
  _atom_site_label
  _atom_site_symmetry_multiplicity
  _atom_site_fract_x
  _atom_site_fract_y
  _atom_site_fract_z
  _atom_site_occupancy
  Cs  Cs1       1.0  0.24999994679235304  0.2500000092740506  0.24999997015809572  1.0000
  Cs  Cs2       1.0  0.7500000291721242  0.7499999857618729  0.7500000100892602  1.0000
  Y   Y1        1.0  0.9999998463518662  0.9999999189949651  7.710982041076624e-07  1.0000
  Te  Te1       1.0  0.28082856023882474  0.2808285442974653  0.7191713565165463  1.0000
  Te  Te2       1.0  0.7191715799245259  0.7191713635023038  0.2808284300740821  1.0000
  Te  Te3       1.0  0.7191715159444096  0.280828516437903  0.2808285820189841  1.0000
  Te  Te4       1.0  0.2808287537494685  0.7191711966382818  0.7191712282646663  1.0000
  Te  Te5       1.0  0.2808285383475198  0.7191715490044057  0.2808285536252498  1.0000
  Te  Te6       1.0  0.7191712364867027  0.2808289040213996  0.7191710832362568  1.0000
