data_image0
_chemical_formula_structural       Cu2AsS6
_chemical_formula_sum              "Cu2 As1 S6"
_cell_length_a       6.398118899074022
_cell_length_b       6.398119496429018
_cell_length_c       6.398119255782515
_cell_angle_alpha    59.99999953509172
_cell_angle_beta     59.99999917078108
_cell_angle_gamma    59.99999959149117

_space_group_name_H-M_alt    "P 1"
_space_group_IT_number       1

loop_
  _space_group_symop_operation_xyz
  'x, y, z'

loop_
  _atom_site_type_symbol
  _atom_site_label
  _atom_site_symmetry_multiplicity
  _atom_site_fract_x
  _atom_site_fract_y
  _atom_site_fract_z
  _atom_site_occupancy
  Cu  Cu1       1.0  0.24999999848821086  0.25000005182485296  0.25000002856529213  1.0000
  Cu  Cu2       1.0  0.7499999149796472  0.750000180359504  0.7500000415997677  1.0000
  As  As1       1.0  0.9999999802384425  2.6799169394162985e-08  0.9999999683479261  1.0000
  S   S1        1.0  0.26035200667203506  0.2603518160619652  0.7396480426007198  1.0000
  S   S2        1.0  0.7396481580816402  0.7396480466767144  0.2603518459485446  1.0000
  S   S3        1.0  0.7396481029140646  0.26035187619765954  0.26035189203656145  1.0000
  S   S4        1.0  0.26035185890370444  0.7396480918234688  0.7396481359910683  1.0000
  S   S5        1.0  0.2603519230304904  0.7396480742347524  0.2603518543366558  1.0000
  S   S6        1.0  0.7396480662245233  0.26035181147464465  0.739648168306073  1.0000
