data_image0
_chemical_formula_structural       Cu2AsS6
_chemical_formula_sum              "Cu2 As1 S6"
_cell_length_a       6.398174488838293
_cell_length_b       6.3981747778918345
_cell_length_c       6.398174633221327
_cell_angle_alpha    59.99999854431575
_cell_angle_beta     60.00000025219826
_cell_angle_gamma    59.99999968065706

_space_group_name_H-M_alt    "P 1"
_space_group_IT_number       1

loop_
  _space_group_symop_operation_xyz
  'x, y, z'

loop_
  _atom_site_type_symbol
  _atom_site_label
  _atom_site_symmetry_multiplicity
  _atom_site_fract_x
  _atom_site_fract_y
  _atom_site_fract_z
  _atom_site_occupancy
  Cu  Cu1       1.0  0.24999995496136757  0.24999996518862452  0.2500000928811962  1.0000
  Cu  Cu2       1.0  0.7500000926433992  0.750000002761627  0.749999914234896  1.0000
  As  As1       1.0  0.9999998822355811  5.551208541155142e-08  7.68197829728958e-09  1.0000
  S   S1        1.0  0.2603549002957174  0.26035495099598915  0.7396451121163174  1.0000
  S   S2        1.0  0.7396450854726151  0.7396451050079113  0.2603549616014  1.0000
  S   S3        1.0  0.739644999242705  0.2603549558181567  0.26035490598829825  1.0000
  S   S4        1.0  0.2603549828254623  0.739645073386812  0.7396449876107464  1.0000
  S   S5        1.0  0.26035486406692576  0.7396450795119465  0.26035500015818913  1.0000
  S   S6        1.0  0.7396452139462478  0.26035480804149247  0.7396450553962942  1.0000
