data_image0
_chemical_formula_structural       Cu2AsSe6
_chemical_formula_sum              "Cu2 As1 Se6"
_cell_length_a       6.415903089554967
_cell_length_b       6.41590282676469
_cell_length_c       6.415902998507666
_cell_angle_alpha    60.00000082361239
_cell_angle_beta     60.00000017331089
_cell_angle_gamma    59.99999851332134

_space_group_name_H-M_alt    "P 1"
_space_group_IT_number       1

loop_
  _space_group_symop_operation_xyz
  'x, y, z'

loop_
  _atom_site_type_symbol
  _atom_site_label
  _atom_site_symmetry_multiplicity
  _atom_site_fract_x
  _atom_site_fract_y
  _atom_site_fract_z
  _atom_site_occupancy
  Cu  Cu1       1.0  0.2499999039481091  0.25000001444418507  0.25000008411410796  1.0000
  Cu  Cu2       1.0  0.7500000507239875  0.7500000471503913  0.7500000622900503  1.0000
  As  As1       1.0  4.150336592356618e-08  0.9999999942732363  0.9999999072976001  1.0000
  Se  Se1       1.0  0.29080274200036915  0.29080273117468686  0.7091973774129602  1.0000
  Se  Se2       1.0  0.7091972415051514  0.7091972655165896  0.29080273559144243  1.0000
  Se  Se3       1.0  0.7091973095396  0.29080267896284245  0.29080269791797736  1.0000
  Se  Se4       1.0  0.29080271208813935  0.7091973005481442  0.7091971942008078  1.0000
  Se  Se5       1.0  0.2908026904898761  0.7091972557041805  0.2908027285299668  1.0000
  Se  Se6       1.0  0.7091973060505712  0.29080271808004565  0.7091972101683859  1.0000
