data_image0
_chemical_formula_structural       Cu2AsO6
_chemical_formula_sum              "Cu2 As1 O6"
_cell_length_a       5.2660515121034965
_cell_length_b       5.26605121221655
_cell_length_c       5.266051571348857
_cell_angle_alpha    59.99999559774511
_cell_angle_beta     59.999995294099186
_cell_angle_gamma    59.999997536242674

_space_group_name_H-M_alt    "P 1"
_space_group_IT_number       1

loop_
  _space_group_symop_operation_xyz
  'x, y, z'

loop_
  _atom_site_type_symbol
  _atom_site_label
  _atom_site_symmetry_multiplicity
  _atom_site_fract_x
  _atom_site_fract_y
  _atom_site_fract_z
  _atom_site_occupancy
  Cu  Cu1       1.0  0.24999999449351548  0.24999995750212717  0.24999997460125722  1.0000
  Cu  Cu2       1.0  0.7500000020218903  0.7499997050533295  0.7500000571272625  1.0000
  As  As1       1.0  2.0619963758714794e-08  3.023457880151984e-08  2.2046626473022752e-08  1.0000
  O   O1        1.0  0.2447681547293824  0.24476802702321765  0.7552318873857888  1.0000
  O   O2        1.0  0.7552318386354767  0.755231954158184  0.2447681214308997  1.0000
  O   O3        1.0  0.755231996138094  0.24476811194651785  0.24476798814173634  1.0000
  O   O4        1.0  0.2447681296529119  0.7552319390069906  0.7552319803424106  1.0000
  O   O5        1.0  0.244767933997708  0.7552319942338421  0.24476809790079657  1.0000
  O   O6        1.0  0.7552319002025193  0.24476820789255527  0.755231995862025  1.0000
