data_image0
_chemical_formula_structural       Cu2AsSe6
_chemical_formula_sum              "Cu2 As1 Se6"
_cell_length_a       6.415858062331814
_cell_length_b       6.4158578687646
_cell_length_c       6.415858110550287
_cell_angle_alpha    59.99999917311846
_cell_angle_beta     60.000000421520234
_cell_angle_gamma    60.00000133660899

_space_group_name_H-M_alt    "P 1"
_space_group_IT_number       1

loop_
  _space_group_symop_operation_xyz
  'x, y, z'

loop_
  _atom_site_type_symbol
  _atom_site_label
  _atom_site_symmetry_multiplicity
  _atom_site_fract_x
  _atom_site_fract_y
  _atom_site_fract_z
  _atom_site_occupancy
  Cu  Cu1       1.0  0.2499998930948389  0.2499997331147902  0.25000017098715543  1.0000
  Cu  Cu2       1.0  0.7500000849599605  0.750000136630941  0.7499999848751565  1.0000
  As  As1       1.0  5.1809330900398334e-09  1.145360380616914e-08  3.376595654676679e-08  1.0000
  Se  Se1       1.0  0.2908117622027734  0.2908116698545212  0.7091882987500362  1.0000
  Se  Se2       1.0  0.7091882376642817  0.7091883774220659  0.290811667039719  1.0000
  Se  Se3       1.0  0.709188385413449  0.2908116835403963  0.2908117028679752  1.0000
  Se  Se4       1.0  0.29081169508103916  0.7091882568358926  0.7091882869686784  1.0000
  Se  Se5       1.0  0.29081164242563917  0.7091883685316367  0.2908116983431848  1.0000
  Se  Se6       1.0  0.7091882956849729  0.29081173983083436  0.7091881493253648  1.0000
