data_image0
_chemical_formula_structural       Cu2BSe6
_chemical_formula_sum              "Cu2 B1 Se6"
_cell_length_a       6.258973210037595
_cell_length_b       6.258977377501167
_cell_length_c       6.258974279226134
_cell_angle_alpha    59.999998124308455
_cell_angle_beta     59.999996605433616
_cell_angle_gamma    59.99999467347295

_space_group_name_H-M_alt    "P 1"
_space_group_IT_number       1

loop_
  _space_group_symop_operation_xyz
  'x, y, z'

loop_
  _atom_site_type_symbol
  _atom_site_label
  _atom_site_symmetry_multiplicity
  _atom_site_fract_x
  _atom_site_fract_y
  _atom_site_fract_z
  _atom_site_occupancy
  Cu  Cu1       1.0  0.2500002844016457  0.250000102627339  0.24999982905236978  1.0000
  Cu  Cu2       1.0  0.7499998429055578  0.7500002393948584  0.7499999818146059  1.0000
  B   B1        1.0  0.9999999933495664  0.9999998649820978  1.0758142162595681e-07  1.0000
  Se  Se1       1.0  0.23388430474778774  0.23388421663137035  0.7661156935880913  1.0000
  Se  Se2       1.0  0.766115712545087  0.7661157027261362  0.23388435326203882  1.0000
  Se  Se3       1.0  0.7661155400044802  0.23388433120456154  0.23388438232599032  1.0000
  Se  Se4       1.0  0.23388429596647545  0.7661157446954661  0.7661156625344612  1.0000
  Se  Se5       1.0  0.23388444182507118  0.7661155364793207  0.2338843006147918  1.0000
  Se  Se6       1.0  0.7661155288248382  0.23388434569936226  0.7661157450081785  1.0000
