data_image0
_chemical_formula_structural       Cu2BiS6
_chemical_formula_sum              "Cu2 Bi1 S6"
_cell_length_a       6.512790715185177
_cell_length_b       6.51279039658921
_cell_length_c       6.512790720788878
_cell_angle_alpha    59.99999770171893
_cell_angle_beta     59.99999740835032
_cell_angle_gamma    60.000001310753426

_space_group_name_H-M_alt    "P 1"
_space_group_IT_number       1

loop_
  _space_group_symop_operation_xyz
  'x, y, z'

loop_
  _atom_site_type_symbol
  _atom_site_label
  _atom_site_symmetry_multiplicity
  _atom_site_fract_x
  _atom_site_fract_y
  _atom_site_fract_z
  _atom_site_occupancy
  Cu  Cu1       1.0  0.24999993158768322  0.24999998851814323  0.24999995704056938  1.0000
  Cu  Cu2       1.0  0.7500000504645241  0.7500000069259359  0.749999908373464  1.0000
  Bi  Bi1       1.0  0.9999999710055821  1.8805213463259032e-09  3.965943042577113e-08  1.0000
  S   S1        1.0  0.26781255100485674  0.2678125195823089  0.7321874335115278  1.0000
  S   S2        1.0  0.7321874601308611  0.7321875003085643  0.26781255100416157  1.0000
  S   S3        1.0  0.7321875664855023  0.2678125404118189  0.2678125377152272  1.0000
  S   S4        1.0  0.26781251549850865  0.7321874211828598  0.7321875387925778  1.0000
  S   S5        1.0  0.26781254201374133  0.7321874520842129  0.26781254094146123  1.0000
  S   S6        1.0  0.7321874249051863  0.26781256216509103  0.7321874961413306  1.0000
