data_image0
_chemical_formula_structural       Cu2BiTe6
_chemical_formula_sum              "Cu2 Bi1 Te6"
_cell_length_a       7.513090166321083
_cell_length_b       7.513090235730305
_cell_length_c       7.513090150038531
_cell_angle_alpha    60.000000074171126
_cell_angle_beta     59.99999988883514
_cell_angle_gamma    59.99999962661524

_space_group_name_H-M_alt    "P 1"
_space_group_IT_number       1

loop_
  _space_group_symop_operation_xyz
  'x, y, z'

loop_
  _atom_site_type_symbol
  _atom_site_label
  _atom_site_symmetry_multiplicity
  _atom_site_fract_x
  _atom_site_fract_y
  _atom_site_fract_z
  _atom_site_occupancy
  Cu  Cu1       1.0  0.2500000476821916  0.2500000194919585  0.2499999834607987  1.0000
  Cu  Cu2       1.0  0.7499999923833434  0.7499999802287745  0.7499999876389681  1.0000
  Bi  Bi1       1.0  0.999999964293957  0.9999999918492604  3.390748364569753e-08  1.0000
  Te  Te1       1.0  0.2873217203198303  0.28732174354186785  0.7126782789878391  1.0000
  Te  Te2       1.0  0.7126782427745707  0.71267831649434  0.2873217656592596  1.0000
  Te  Te3       1.0  0.7126782780870747  0.2873217072659017  0.28732171244440297  1.0000
  Te  Te4       1.0  0.2873218049509331  0.7126782419202444  0.7126782358162159  1.0000
  Te  Te5       1.0  0.2873217237955387  0.7126782479784365  0.2873217268333462  1.0000
  Te  Te6       1.0  0.7126782261352019  0.2873217501121491  0.7126782808318197  1.0000
