data_image0
_chemical_formula_structural       Cu2BiO6
_chemical_formula_sum              "Cu2 Bi1 O6"
_cell_length_a       5.642127533189087
_cell_length_b       5.642127795018109
_cell_length_c       5.642127673023309
_cell_angle_alpha    59.999999155730116
_cell_angle_beta     59.99999906845348
_cell_angle_gamma    59.9999986874695

_space_group_name_H-M_alt    "P 1"
_space_group_IT_number       1

loop_
  _space_group_symop_operation_xyz
  'x, y, z'

loop_
  _atom_site_type_symbol
  _atom_site_label
  _atom_site_symmetry_multiplicity
  _atom_site_fract_x
  _atom_site_fract_y
  _atom_site_fract_z
  _atom_site_occupancy
  Cu  Cu1       1.0  0.2499998424254487  0.2500000361889039  0.2500001113249535  1.0000
  Cu  Cu2       1.0  0.7500000139697818  0.7499999501045429  0.7500001361839892  1.0000
  Bi  Bi1       1.0  3.3908670182911138e-09  0.9999999652685679  0.9999999802226625  1.0000
  O   O1        1.0  0.2553981419651039  0.25539807788791147  0.7446018632709459  1.0000
  O   O2        1.0  0.7446019030656458  0.7446019257712533  0.25539801183546257  1.0000
  O   O3        1.0  0.7446019547387499  0.25539808679979914  0.25539805004149757  1.0000
  O   O4        1.0  0.25539802815004686  0.7446019559322267  0.7446019181289834  1.0000
  O   O5        1.0  0.2553981124632438  0.7446019318137274  0.25539803091278546  1.0000
  O   O6        1.0  0.7446019950392955  0.25539808704043626  0.7446019028411844  1.0000
