data_image0
_chemical_formula_structural       Cu2BO6
_chemical_formula_sum              "Cu2 B1 O6"
_cell_length_a       4.936671959726688
_cell_length_b       4.936671298453232
_cell_length_c       4.936671695936029
_cell_angle_alpha    60.00000122281725
_cell_angle_beta     60.0000013205053
_cell_angle_gamma    60.000000500101294

_space_group_name_H-M_alt    "P 1"
_space_group_IT_number       1

loop_
  _space_group_symop_operation_xyz
  'x, y, z'

loop_
  _atom_site_type_symbol
  _atom_site_label
  _atom_site_symmetry_multiplicity
  _atom_site_fract_x
  _atom_site_fract_y
  _atom_site_fract_z
  _atom_site_occupancy
  Cu  Cu1       1.0  0.24999980320808188  0.2499999583295327  0.2500001484228999  1.0000
  Cu  Cu2       1.0  0.7499998911555298  0.7499999320495924  0.7500001840751856  1.0000
  B   B1        1.0  0.9999999608284426  0.9999999280535429  8.189253689950687e-08  1.0000
  O   O1        1.0  0.22750858561222126  0.22750848604627713  0.7724915012921055  1.0000
  O   O2        1.0  0.772491542958954  0.7724914489892729  0.22750845808067133  1.0000
  O   O3        1.0  0.772491527384203  0.22750857701518895  0.2275084679754763  1.0000
  O   O4        1.0  0.2275085602397495  0.7724915019132743  0.7724914216935533  1.0000
  O   O5        1.0  0.22750862983350345  0.7724915811811847  0.22750841225920734  1.0000
  O   O6        1.0  0.7724915361579099  0.22750859946468108  0.7724912840589233  1.0000
