data_image0
_chemical_formula_structural       Cu2BiS6
_chemical_formula_sum              "Cu2 Bi1 S6"
_cell_length_a       6.512929441383397
_cell_length_b       6.512929312021598
_cell_length_c       6.512929536702753
_cell_angle_alpha    59.99999952677721
_cell_angle_beta     59.99999934111985
_cell_angle_gamma    60.00000045131994

_space_group_name_H-M_alt    "P 1"
_space_group_IT_number       1

loop_
  _space_group_symop_operation_xyz
  'x, y, z'

loop_
  _atom_site_type_symbol
  _atom_site_label
  _atom_site_symmetry_multiplicity
  _atom_site_fract_x
  _atom_site_fract_y
  _atom_site_fract_z
  _atom_site_occupancy
  Cu  Cu1       1.0  0.2500000994645175  0.24999995181486648  0.24999991873521932  1.0000
  Cu  Cu2       1.0  0.7500001255030555  0.7499999964807776  0.7500000945683654  1.0000
  Bi  Bi1       1.0  0.999999992173883  7.521929341806004e-09  0.9999999955458717  1.0000
  S   S1        1.0  0.2678406244481082  0.2678405192716916  0.7321594787777498  1.0000
  S   S2        1.0  0.7321594134301969  0.7321594158605728  0.2678405471339391  1.0000
  S   S3        1.0  0.7321594660326648  0.26784052328870733  0.2678404777913243  1.0000
  S   S4        1.0  0.2678403724686557  0.7321595472382841  0.7321594572789047  1.0000
  S   S5        1.0  0.2678405106831688  0.7321595020452216  0.2678405058946935  1.0000
  S   S6        1.0  0.732159405845776  0.2678405365135715  0.7321595274430045  1.0000
