data_image0
_chemical_formula_structural       Cu2BiSe6
_chemical_formula_sum              "Cu2 Bi1 Se6"
_cell_length_a       6.798251131602479
_cell_length_b       6.79825128074117
_cell_length_c       6.798250855323598
_cell_angle_alpha    60.00000104362955
_cell_angle_beta     60.00000141937496
_cell_angle_gamma    59.999998858470384

_space_group_name_H-M_alt    "P 1"
_space_group_IT_number       1

loop_
  _space_group_symop_operation_xyz
  'x, y, z'

loop_
  _atom_site_type_symbol
  _atom_site_label
  _atom_site_symmetry_multiplicity
  _atom_site_fract_x
  _atom_site_fract_y
  _atom_site_fract_z
  _atom_site_occupancy
  Cu  Cu1       1.0  0.24999994569296574  0.25000010695747776  0.24999993544701504  1.0000
  Cu  Cu2       1.0  0.7500000347468097  0.7500000794635622  0.7499999753081874  1.0000
  Bi  Bi1       1.0  3.975196906322822e-08  2.3420261844345885e-08  0.9999999757687175  1.0000
  Se  Se1       1.0  0.30105172411424025  0.301051714979542  0.6989482819183168  1.0000
  Se  Se2       1.0  0.6989482739143498  0.6989482912856287  0.30105169982364804  1.0000
  Se  Se3       1.0  0.6989482724621523  0.3010516368835556  0.30105185302172394  1.0000
  Se  Se4       1.0  0.3010516898650746  0.6989482522803011  0.6989482257151131  1.0000
  Se  Se5       1.0  0.3010517866362829  0.6989481903652404  0.3010518026429674  1.0000
  Se  Se6       1.0  0.6989482356368357  0.30105170240173196  0.6989482516741987  1.0000
