data_image0
_chemical_formula_structural       Cu2BTe6
_chemical_formula_sum              "Cu2 B1 Te6"
_cell_length_a       6.86945349018063
_cell_length_b       6.8694476351656615
_cell_length_c       6.8694548294411195
_cell_angle_alpha    59.99998354610174
_cell_angle_beta     59.99999096316501
_cell_angle_gamma    60.00000021360106

_space_group_name_H-M_alt    "P 1"
_space_group_IT_number       1

loop_
  _space_group_symop_operation_xyz
  'x, y, z'

loop_
  _atom_site_type_symbol
  _atom_site_label
  _atom_site_symmetry_multiplicity
  _atom_site_fract_x
  _atom_site_fract_y
  _atom_site_fract_z
  _atom_site_occupancy
  Cu  Cu1       1.0  0.2500016183096129  0.25000054712535474  0.24999892860549258  1.0000
  Cu  Cu2       1.0  0.7500018092128458  0.7499990490574983  0.7500015511305586  1.0000
  B   B1        1.0  4.3939876493643e-08  1.0519028968535702e-07  0.9999995833408257  1.0000
  Te  Te1       1.0  0.2349794592931148  0.23498147099787517  0.7650195946695805  1.0000
  Te  Te2       1.0  0.7650190971391634  0.7650203181344295  0.23497936219250862  1.0000
  Te  Te3       1.0  0.7650185067693168  0.23498129792845004  0.23497980339047592  1.0000
  Te  Te4       1.0  0.23497899556350166  0.7650190595449946  0.7650201241310328  1.0000
  Te  Te5       1.0  0.2349812725412411  0.7650188559208615  0.23498064766485485  1.0000
  Te  Te6       1.0  0.7650192115302097  0.23497913209653007  0.7650207147556154  1.0000
