data_image0
_chemical_formula_structural       Cu2GaTe6
_chemical_formula_sum              "Cu2 Ga1 Te6"
_cell_length_a       7.121343779831791
_cell_length_b       7.121343323704498
_cell_length_c       7.121342914460136
_cell_angle_alpha    59.99999908666582
_cell_angle_beta     60.00000370093047
_cell_angle_gamma    60.00000128748652

_space_group_name_H-M_alt    "P 1"
_space_group_IT_number       1

loop_
  _space_group_symop_operation_xyz
  'x, y, z'

loop_
  _atom_site_type_symbol
  _atom_site_label
  _atom_site_symmetry_multiplicity
  _atom_site_fract_x
  _atom_site_fract_y
  _atom_site_fract_z
  _atom_site_occupancy
  Cu  Cu1       1.0  0.24999978924835978  0.25000008416521635  0.2500001799303723  1.0000
  Cu  Cu2       1.0  0.7500001591884251  0.7499999601258022  0.7499997566471508  1.0000
  Ga  Ga1       1.0  1.1862821728341855e-07  4.2995578837829366e-08  0.9999997591059345  1.0000
  Te  Te1       1.0  0.27552621839397956  0.2755263679585932  0.724473650525165  1.0000
  Te  Te2       1.0  0.7244736614186597  0.7244735903412742  0.2755266020790285  1.0000
  Te  Te3       1.0  0.7244736767735104  0.27552630170748427  0.2755263450721606  1.0000
  Te  Te4       1.0  0.2755261231572921  0.7244739059666976  0.7244736781501475  1.0000
  Te  Te5       1.0  0.275526252988396  0.7244735499870943  0.2755264552509939  1.0000
  Te  Te6       1.0  0.7244739879556443  0.2755262053736915  0.724473576429861  1.0000
