data_image0
_chemical_formula_structural       Cu2GaTe6
_chemical_formula_sum              "Cu2 Ga1 Te6"
_cell_length_a       7.121303354139931
_cell_length_b       7.121302980291376
_cell_length_c       7.1213032593878545
_cell_angle_alpha    59.999996854209606
_cell_angle_beta     59.999997299790074
_cell_angle_gamma    59.999999827324885

_space_group_name_H-M_alt    "P 1"
_space_group_IT_number       1

loop_
  _space_group_symop_operation_xyz
  'x, y, z'

loop_
  _atom_site_type_symbol
  _atom_site_label
  _atom_site_symmetry_multiplicity
  _atom_site_fract_x
  _atom_site_fract_y
  _atom_site_fract_z
  _atom_site_occupancy
  Cu  Cu1       1.0  0.2500000520291861  0.2499999442876253  0.24999992084108139  1.0000
  Cu  Cu2       1.0  0.7499999209174629  0.7500002611011857  0.7499998653908397  1.0000
  Ga  Ga1       1.0  0.999999868775865  0.999999965603342  2.751909166877499e-07  1.0000
  Te  Te1       1.0  0.27552617190062734  0.2755260021955842  0.7244738563080559  1.0000
  Te  Te2       1.0  0.7244738845309414  0.7244739916538191  0.27552597990873673  1.0000
  Te  Te3       1.0  0.7244740364943001  0.2755259166034648  0.27552619597468514  1.0000
  Te  Te4       1.0  0.27552619058832456  0.7244738863445231  0.724473792195258  1.0000
  Te  Te5       1.0  0.27552602891841776  0.7244740004983059  0.2755262029183982  1.0000
  Te  Te6       1.0  0.7244738425499173  0.27552602774774176  0.7244739164088204  1.0000
