data_image0
_chemical_formula_structural       Cu2GaO6
_chemical_formula_sum              "Cu2 Ga1 O6"
_cell_length_a       5.169112090502818
_cell_length_b       5.1691122067378865
_cell_length_c       5.1691121357669925
_cell_angle_alpha    59.99999958376877
_cell_angle_beta     59.99999957286462
_cell_angle_gamma    60.000001322579614

_space_group_name_H-M_alt    "P 1"
_space_group_IT_number       1

loop_
  _space_group_symop_operation_xyz
  'x, y, z'

loop_
  _atom_site_type_symbol
  _atom_site_label
  _atom_site_symmetry_multiplicity
  _atom_site_fract_x
  _atom_site_fract_y
  _atom_site_fract_z
  _atom_site_occupancy
  Cu  Cu1       1.0  0.2500003790962648  0.25000009494435477  0.24999978856883903  1.0000
  Cu  Cu2       1.0  0.750000425756389  0.7500000336816982  0.7499994659384686  1.0000
  Ga  Ga1       1.0  4.914463329833851e-08  8.841524569161505e-16  0.9999999541474326  1.0000
  O   O1        1.0  0.2547088799810555  0.25470908355735017  0.7452910093713024  1.0000
  O   O2        1.0  0.7452909128266649  0.7452910118977495  0.2547092939465022  1.0000
  O   O3        1.0  0.7452908358891837  0.25470895526807447  0.25470902635461057  1.0000
  O   O4        1.0  0.25470879750635256  0.7452909482694782  0.7452910618452833  1.0000
  O   O5        1.0  0.2547088006062254  0.7452909410085371  0.25470923993067435  1.0000
  O   O6        1.0  0.7452909023095782  0.25470894831289875  0.7452911572320122  1.0000
