data_image0
_chemical_formula_structural       Cu2GaS6
_chemical_formula_sum              "Cu2 Ga1 S6"
_cell_length_a       6.200704370010696
_cell_length_b       6.200704517939624
_cell_length_c       6.200704633847899
_cell_angle_alpha    59.99999779371258
_cell_angle_beta     59.99999707451085
_cell_angle_gamma    59.9999993161908

_space_group_name_H-M_alt    "P 1"
_space_group_IT_number       1

loop_
  _space_group_symop_operation_xyz
  'x, y, z'

loop_
  _atom_site_type_symbol
  _atom_site_label
  _atom_site_symmetry_multiplicity
  _atom_site_fract_x
  _atom_site_fract_y
  _atom_site_fract_z
  _atom_site_occupancy
  Cu  Cu1       1.0  0.2499998551437342  0.2499999876572085  0.25000011031996855  1.0000
  Cu  Cu2       1.0  0.74999999264503  0.7500001506128319  0.7499998396823085  1.0000
  Ga  Ga1       1.0  0.9999999751328965  1.975170320290598e-09  1.7896846610847993e-08  1.0000
  S   S1        1.0  0.2641991635385146  0.26419894935065613  0.7358009286697638  1.0000
  S   S2        1.0  0.7358009654858475  0.7358009262217023  0.2641991088267516  1.0000
  S   S3        1.0  0.7358009990244277  0.26419893918045206  0.26419904984981485  1.0000
  S   S4        1.0  0.2641990267102001  0.7358011121820844  0.7358009288183984  1.0000
  S   S5        1.0  0.26419892329377864  0.7358009915554793  0.2641991532032631  1.0000
  S   S6        1.0  0.7358010982291455  0.2641989551230187  0.7358008621729033  1.0000
