data_image0
_chemical_formula_structural       Cu2IrS6
_chemical_formula_sum              "Cu2 Ir1 S6"
_cell_length_a       6.145726457672943
_cell_length_b       6.145726020412059
_cell_length_c       6.145726141062367
_cell_angle_alpha    60.00000038475756
_cell_angle_beta     60.00000022774031
_cell_angle_gamma    60.0000000332499

_space_group_name_H-M_alt    "P 1"
_space_group_IT_number       1

loop_
  _space_group_symop_operation_xyz
  'x, y, z'

loop_
  _atom_site_type_symbol
  _atom_site_label
  _atom_site_symmetry_multiplicity
  _atom_site_fract_x
  _atom_site_fract_y
  _atom_site_fract_z
  _atom_site_occupancy
  Cu  Cu1       1.0  0.2499998610116855  0.249999975687193  0.25000020276454527  1.0000
  Cu  Cu2       1.0  0.7500001232371056  0.7499999748897391  0.7499999546790336  1.0000
  Ir  Ir1       1.0  2.3341924583069463e-07  0.999999812673049  4.2441928006578886e-07  1.0000
  S   S1        1.0  0.2633501321781983  0.2633501472812659  0.7366498478271419  1.0000
  S   S2        1.0  0.7366499119664071  0.7366498152527059  0.26335021673986364  1.0000
  S   S3        1.0  0.7366498720815035  0.26335026203503764  0.26334997237626695  1.0000
  S   S4        1.0  0.26335003951327757  0.7366499515967687  0.7366496977244498  1.0000
  S   S5        1.0  0.2633499704861264  0.7366499374289223  0.263350016354277  1.0000
  S   S6        1.0  0.7366498688032721  0.2633501267398803  0.736649655611782  1.0000
