data_image0
_chemical_formula_structural       Cu2MoSe6
_chemical_formula_sum              "Cu2 Mo1 Se6"
_cell_length_a       6.646960949018273
_cell_length_b       6.646960963741054
_cell_length_c       6.646960764339169
_cell_angle_alpha    60.000000581847935
_cell_angle_beta     60.00000169076933
_cell_angle_gamma    59.99999775252417

_space_group_name_H-M_alt    "P 1"
_space_group_IT_number       1

loop_
  _space_group_symop_operation_xyz
  'x, y, z'

loop_
  _atom_site_type_symbol
  _atom_site_label
  _atom_site_symmetry_multiplicity
  _atom_site_fract_x
  _atom_site_fract_y
  _atom_site_fract_z
  _atom_site_occupancy
  Cu  Cu1       1.0  0.24999996325974122  0.25000003291106787  0.24999999926169067  1.0000
  Cu  Cu2       1.0  0.749999998610841  0.7499999181619608  0.7500000065748403  1.0000
  Mo  Mo1       1.0  7.829681403156024e-08  0.9999999631487244  0.9999999371527162  1.0000
  Se  Se1       1.0  0.25650142808949905  0.256501396901393  0.7434985845429933  1.0000
  Se  Se2       1.0  0.7434985553287968  0.7434985781249621  0.2565014421719801  1.0000
  Se  Se3       1.0  0.7434986541692021  0.25650136086206693  0.2565013187009567  1.0000
  Se  Se4       1.0  0.2565013243867256  0.7434987173478538  0.7434986994734858  1.0000
  Se  Se5       1.0  0.2565013262144065  0.743498726561941  0.25650127591957633  1.0000
  Se  Se6       1.0  0.7434986829274591  0.2565012963710686  0.7434987380514363  1.0000
