data_image0
_chemical_formula_structural       Cu2NO6
_chemical_formula_sum              "Cu2 N1 O6"
_cell_length_a       5.006661231305091
_cell_length_b       5.006661385358607
_cell_length_c       5.006660962414132
_cell_angle_alpha    60.00000046576247
_cell_angle_beta     60.00000303648671
_cell_angle_gamma    59.99999927608725

_space_group_name_H-M_alt    "P 1"
_space_group_IT_number       1

loop_
  _space_group_symop_operation_xyz
  'x, y, z'

loop_
  _atom_site_type_symbol
  _atom_site_label
  _atom_site_symmetry_multiplicity
  _atom_site_fract_x
  _atom_site_fract_y
  _atom_site_fract_z
  _atom_site_occupancy
  Cu  Cu1       1.0  0.24999214123469102  0.24999929546366903  0.25002041389602214  1.0000
  Cu  Cu2       1.0  0.7499921617517036  0.7499998800696838  0.7500197892366357  1.0000
  N   N1        1.0  3.0536987232966388e-06  0.9999997920705039  0.9999927708504817  1.0000
  O   O1        1.0  0.22432671816939506  0.2243240369688899  0.7756686640713462  1.0000
  O   O2        1.0  0.7756766197523947  0.7756742089977287  0.22431903426375732  1.0000
  O   O3        1.0  0.7756754744096073  0.224327653655882  0.22432057290356097  1.0000
  O   O4        1.0  0.22432475929821846  0.7756781682870889  0.7756702504084905  1.0000
  O   O5        1.0  0.22432984704181055  0.7756733248063767  0.2243188822625218  1.0000
  O   O6        1.0  0.7756792160472354  0.22432366624367184  0.7756697047857612  1.0000
