data_image0
_chemical_formula_structural       Cu2PS6
_chemical_formula_sum              "Cu2 P1 S6"
_cell_length_a       6.353647705486191
_cell_length_b       6.353647846559019
_cell_length_c       6.353647531629538
_cell_angle_alpha    60.00000116433516
_cell_angle_beta     60.000002340530024
_cell_angle_gamma    60.00000175085297

_space_group_name_H-M_alt    "P 1"
_space_group_IT_number       1

loop_
  _space_group_symop_operation_xyz
  'x, y, z'

loop_
  _atom_site_type_symbol
  _atom_site_label
  _atom_site_symmetry_multiplicity
  _atom_site_fract_x
  _atom_site_fract_y
  _atom_site_fract_z
  _atom_site_occupancy
  Cu  Cu1       1.0  0.24999994732637348  0.25000007388748396  0.25000000603075234  1.0000
  Cu  Cu2       1.0  0.7500000174432196  0.7499999787817416  0.7499999337581346  1.0000
  P   P1        1.0  0.9999999942171254  1.7348622663289492e-08  0.9999999595913461  1.0000
  S   S1        1.0  0.24080367057758703  0.24080371603120934  0.7591963192035754  1.0000
  S   S2        1.0  0.7591962604334481  0.7591962961578963  0.24080376000809048  1.0000
  S   S3        1.0  0.7591963558411294  0.24080369811957397  0.24080369141896332  1.0000
  S   S4        1.0  0.2408037373767904  0.759196258168416  0.7591963299181227  1.0000
  S   S5        1.0  0.24080369188347117  0.7591962522076285  0.24080369165122878  1.0000
  S   S6        1.0  0.7591963185789867  0.24080372335660893  0.7591962701393169  1.0000
