data_image0
_chemical_formula_structural       Cu2PSe6
_chemical_formula_sum              "Cu2 P1 Se6"
_cell_length_a       6.404172256267624
_cell_length_b       6.404172459127721
_cell_length_c       6.404172255844846
_cell_angle_alpha    60.000002347238215
_cell_angle_beta     60.000001185379254
_cell_angle_gamma    60.000002449638735

_space_group_name_H-M_alt    "P 1"
_space_group_IT_number       1

loop_
  _space_group_symop_operation_xyz
  'x, y, z'

loop_
  _atom_site_type_symbol
  _atom_site_label
  _atom_site_symmetry_multiplicity
  _atom_site_fract_x
  _atom_site_fract_y
  _atom_site_fract_z
  _atom_site_occupancy
  Cu  Cu1       1.0  0.249999994189261  0.24999997993696854  0.25000003043957164  1.0000
  Cu  Cu2       1.0  0.7499999809459545  0.7499999933585813  0.7500000091424379  1.0000
  P   P1        1.0  2.4148889225950834e-08  5.7372510052236955e-08  0.9999999264481781  1.0000
  Se  Se1       1.0  0.2529532966444977  0.2529532732855346  0.7470466720196421  1.0000
  Se  Se2       1.0  0.7470467156796425  0.7470467669446101  0.2529532499183631  1.0000
  Se  Se3       1.0  0.7470467293456727  0.2529532623886743  0.2529533220672537  1.0000
  Se  Se4       1.0  0.2529532759319587  0.7470466745709532  0.7470467768248629  1.0000
  Se  Se5       1.0  0.25295326043336697  0.7470467574853243  0.25295324694155474  1.0000
  Se  Se6       1.0  0.7470467267762935  0.2529532444964806  0.7470467628912132  1.0000
