data_image0
_chemical_formula_structural       Cu2PO6
_chemical_formula_sum              "Cu2 P1 O6"
_cell_length_a       5.112317807896726
_cell_length_b       5.1123171064604644
_cell_length_c       5.112317188001133
_cell_angle_alpha    59.99999928427562
_cell_angle_beta     59.99999811570267
_cell_angle_gamma    59.99999544639638

_space_group_name_H-M_alt    "P 1"
_space_group_IT_number       1

loop_
  _space_group_symop_operation_xyz
  'x, y, z'

loop_
  _atom_site_type_symbol
  _atom_site_label
  _atom_site_symmetry_multiplicity
  _atom_site_fract_x
  _atom_site_fract_y
  _atom_site_fract_z
  _atom_site_occupancy
  Cu  Cu1       1.0  0.25000002919625586  0.2500000799448693  0.2499998959877538  1.0000
  Cu  Cu2       1.0  0.7499998948783699  0.7499998828790778  0.7500002659855598  1.0000
  P   P1        1.0  0.9999999841423329  8.145294295717583e-08  4.367505761776566e-09  1.0000
  O   O1        1.0  0.23327207251777998  0.23327231764757575  0.7667278376167159  1.0000
  O   O2        1.0  0.7667279601761957  0.7667277529817308  0.23327208117608664  1.0000
  O   O3        1.0  0.7667277581038808  0.23327228575425885  0.23327211393541097  1.0000
  O   O4        1.0  0.233272285609386  0.7667277992490972  0.7667278469304053  1.0000
  O   O5        1.0  0.2332722846062721  0.7667277956897793  0.23327206786830615  1.0000
  O   O6        1.0  0.7667278238802172  0.2332721695298348  0.7667277874906759  1.0000
