data_image0
_chemical_formula_structural       Cu2RuO6
_chemical_formula_sum              "Cu2 Ru1 O6"
_cell_length_a       5.371186423967604
_cell_length_b       5.371186846791866
_cell_length_c       5.371186549630409
_cell_angle_alpha    59.99999971412
_cell_angle_beta     59.9999987007924
_cell_angle_gamma    59.99999833898107

_space_group_name_H-M_alt    "P 1"
_space_group_IT_number       1

loop_
  _space_group_symop_operation_xyz
  'x, y, z'

loop_
  _atom_site_type_symbol
  _atom_site_label
  _atom_site_symmetry_multiplicity
  _atom_site_fract_x
  _atom_site_fract_y
  _atom_site_fract_z
  _atom_site_occupancy
  Cu  Cu1       1.0  0.2500001730012944  0.2499997348494749  0.24999998247235505  1.0000
  Cu  Cu2       1.0  0.7500002324270714  0.750000554434388  0.7499991178767067  1.0000
  Ru  Ru1       1.0  1.3029239523482548e-08  0.9999999931593667  0.999999754873515  1.0000
  O   O1        1.0  0.24337302471259403  0.24337295606678963  0.7566271872760246  1.0000
  O   O2        1.0  0.7566271946032317  0.7566268338504644  0.24337325745349636  1.0000
  O   O3        1.0  0.7566269819052479  0.24337286447707102  0.2433731929849877  1.0000
  O   O4        1.0  0.24337268861760594  0.756627294834671  0.7566270528669389  1.0000
  O   O5        1.0  0.24337287543790548  0.7566267360745103  0.2433732465342468  1.0000
  O   O6        1.0  0.7566269292486643  0.24337300139786924  0.756627128261221  1.0000
