data_image0
_chemical_formula_structural       Cu2RhO6
_chemical_formula_sum              "Cu2 Rh1 O6"
_cell_length_a       5.4856550628448
_cell_length_b       5.48565462185628
_cell_length_c       5.485655167599556
_cell_angle_alpha    60.00000019038559
_cell_angle_beta     60.00000091025943
_cell_angle_gamma    59.999999449912224

_space_group_name_H-M_alt    "P 1"
_space_group_IT_number       1

loop_
  _space_group_symop_operation_xyz
  'x, y, z'

loop_
  _atom_site_type_symbol
  _atom_site_label
  _atom_site_symmetry_multiplicity
  _atom_site_fract_x
  _atom_site_fract_y
  _atom_site_fract_z
  _atom_site_occupancy
  Cu  Cu1       1.0  0.24999992751150937  0.24999992392011566  0.2500003638145871  1.0000
  Cu  Cu2       1.0  0.7500003219551498  0.7499996690592375  0.7499998449479289  1.0000
  Rh  Rh1       1.0  0.999999945610658  5.5815802109554975e-08  0.9999999701197898  1.0000
  O   O1        1.0  0.24621585613838778  0.2462162744754666  0.7537839535925774  1.0000
  O   O2        1.0  0.7537841505077932  0.7537837627976892  0.24621641875905054  1.0000
  O   O3        1.0  0.7537839191485396  0.24621598769162198  0.24621602783594976  1.0000
  O   O4        1.0  0.24621564281770644  0.7537843353584215  0.7537837348972782  1.0000
  O   O5        1.0  0.24621621009264774  0.7537838538970296  0.2462157853445554  1.0000
  O   O6        1.0  0.7537840307351428  0.24621611862977896  0.7537840082737021  1.0000
