data_image0
_chemical_formula_structural       Cu2RhS6
_chemical_formula_sum              "Cu2 Rh1 S6"
_cell_length_a       6.126996091963511
_cell_length_b       6.126995593865537
_cell_length_c       6.126995835915312
_cell_angle_alpha    59.999999407421384
_cell_angle_beta     60.000000181115766
_cell_angle_gamma    59.99999952869201

_space_group_name_H-M_alt    "P 1"
_space_group_IT_number       1

loop_
  _space_group_symop_operation_xyz
  'x, y, z'

loop_
  _atom_site_type_symbol
  _atom_site_label
  _atom_site_symmetry_multiplicity
  _atom_site_fract_x
  _atom_site_fract_y
  _atom_site_fract_z
  _atom_site_occupancy
  Cu  Cu1       1.0  0.2499999450475929  0.24999994909434647  0.24999997563246418  1.0000
  Cu  Cu2       1.0  0.7499999441431199  0.7499999952040286  0.7500001085397617  1.0000
  Rh  Rh1       1.0  2.4954464546761043e-09  0.9999999020523213  2.4876418339035613e-08  1.0000
  S   S1        1.0  0.2624090878402647  0.2624090569045938  0.7375909142713921  1.0000
  S   S2        1.0  0.7375909062027491  0.7375909233745616  0.26240903746368527  1.0000
  S   S3        1.0  0.7375909739424332  0.2624091659834997  0.2624090066464322  1.0000
  S   S4        1.0  0.26240908779303096  0.7375908882561494  0.7375909313864163  1.0000
  S   S5        1.0  0.26240913605427846  0.7375909981896671  0.2624090473767965  1.0000
  S   S6        1.0  0.7375909012367148  0.26240915199872916  0.7375909511990673  1.0000
