data_image0
_chemical_formula_structural       Cu2SbTe6
_chemical_formula_sum              "Cu2 Sb1 Te6"
_cell_length_a       7.373864714341871
_cell_length_b       7.373864525071508
_cell_length_c       7.373864587651637
_cell_angle_alpha    60.000000603643116
_cell_angle_beta     60.000000441538525
_cell_angle_gamma    59.99999944316384

_space_group_name_H-M_alt    "P 1"
_space_group_IT_number       1

loop_
  _space_group_symop_operation_xyz
  'x, y, z'

loop_
  _atom_site_type_symbol
  _atom_site_label
  _atom_site_symmetry_multiplicity
  _atom_site_fract_x
  _atom_site_fract_y
  _atom_site_fract_z
  _atom_site_occupancy
  Cu  Cu1       1.0  0.24999999868580086  0.25000006942306074  0.24999994922825106  1.0000
  Cu  Cu2       1.0  0.7499999956178472  0.7500000122798283  0.7499999635290394  1.0000
  Sb  Sb1       1.0  0.9999999945748654  0.999999983390733  4.492072528472231e-08  1.0000
  Te  Te1       1.0  0.2797658171473768  0.2797658646683171  0.7202341813545097  1.0000
  Te  Te2       1.0  0.7202342262865469  0.7202341589021373  0.27976585253198466  1.0000
  Te  Te3       1.0  0.7202341846709854  0.2797658000263427  0.2797658224897972  1.0000
  Te  Te4       1.0  0.27976584482969064  0.7202341056183131  0.7202341986700421  1.0000
  Te  Te5       1.0  0.27976578288881626  0.7202341474972573  0.27976582724482174  1.0000
  Te  Te6       1.0  0.7202341533340881  0.27976585946392946  0.720234160060537  1.0000
