data_image0
_chemical_formula_structural       Cu2SbSe6
_chemical_formula_sum              "Cu2 Sb1 Se6"
_cell_length_a       6.622355486657489
_cell_length_b       6.6223552310992115
_cell_length_c       6.622355195611403
_cell_angle_alpha    60.00000124032192
_cell_angle_beta     60.00000148461263
_cell_angle_gamma    59.999998938292805

_space_group_name_H-M_alt    "P 1"
_space_group_IT_number       1

loop_
  _space_group_symop_operation_xyz
  'x, y, z'

loop_
  _atom_site_type_symbol
  _atom_site_label
  _atom_site_symmetry_multiplicity
  _atom_site_fract_x
  _atom_site_fract_y
  _atom_site_fract_z
  _atom_site_occupancy
  Cu  Cu1       1.0  0.2499999931532845  0.24999992753056452  0.25000018852967365  1.0000
  Cu  Cu2       1.0  0.7499998234084521  0.7500000415090641  0.7500001608074288  1.0000
  Sb  Sb1       1.0  3.857162400150305e-08  0.99999998890354  0.9999999409613141  1.0000
  Se  Se1       1.0  0.2956524319607445  0.29565243627384385  0.7043475659694056  1.0000
  Se  Se2       1.0  0.7043476614498839  0.704347675170332  0.2956522838139143  1.0000
  Se  Se3       1.0  0.7043475518593711  0.29565243340183106  0.29565233817568964  1.0000
  Se  Se4       1.0  0.29565244968532317  0.7043476188612321  0.7043475478701968  1.0000
  Se  Se5       1.0  0.2956524159429647  0.7043475418565966  0.29565239435583407  1.0000
  Se  Se6       1.0  0.7043476366811148  0.29565233101371496  0.7043475769872489  1.0000
