data_image0
_chemical_formula_structural       Cu2SbTe6
_chemical_formula_sum              "Cu2 Sb1 Te6"
_cell_length_a       7.373888054468879
_cell_length_b       7.37388806556009
_cell_length_c       7.373888196600511
_cell_angle_alpha    60.0000004931419
_cell_angle_beta     60.000000602991015
_cell_angle_gamma    60.00000145430616

_space_group_name_H-M_alt    "P 1"
_space_group_IT_number       1

loop_
  _space_group_symop_operation_xyz
  'x, y, z'

loop_
  _atom_site_type_symbol
  _atom_site_label
  _atom_site_symmetry_multiplicity
  _atom_site_fract_x
  _atom_site_fract_y
  _atom_site_fract_z
  _atom_site_occupancy
  Cu  Cu1       1.0  0.25000002641755903  0.2499999948706924  0.2499999831236615  1.0000
  Cu  Cu2       1.0  0.7500000707119943  0.7499999397671996  0.750000065568783  1.0000
  Sb  Sb1       1.0  0.9999999337722156  0.9999999966781556  0.9999999452697951  1.0000
  Te  Te1       1.0  0.2797718141036807  0.2797718808544604  0.7202281483977233  1.0000
  Te  Te2       1.0  0.7202281545379828  0.7202281949617494  0.27977176918493585  1.0000
  Te  Te3       1.0  0.7202281178727772  0.27977193442008963  0.27977181787187894  1.0000
  Te  Te4       1.0  0.27977175355353606  0.720228202850212  0.7202282206577937  1.0000
  Te  Te5       1.0  0.2797719064652325  0.7202280799311457  0.2797718543572478  1.0000
  Te  Te6       1.0  0.7202282234077994  0.27977177996528285  0.7202281949921389  1.0000
