data_image0
_chemical_formula_structural       Cu2SbO6
_chemical_formula_sum              "Cu2 Sb1 O6"
_cell_length_a       5.370167212076885
_cell_length_b       5.370167466429241
_cell_length_c       5.370166822805566
_cell_angle_alpha    60.00000006460506
_cell_angle_beta     60.00000053115094
_cell_angle_gamma    59.99999861597317

_space_group_name_H-M_alt    "P 1"
_space_group_IT_number       1

loop_
  _space_group_symop_operation_xyz
  'x, y, z'

loop_
  _atom_site_type_symbol
  _atom_site_label
  _atom_site_symmetry_multiplicity
  _atom_site_fract_x
  _atom_site_fract_y
  _atom_site_fract_z
  _atom_site_occupancy
  Cu  Cu1       1.0  0.2499998816932317  0.25000025068460907  0.2499999152056892  1.0000
  Cu  Cu2       1.0  0.7500000762259543  0.7499997166407055  0.7500003922463389  1.0000
  Sb  Sb1       1.0  0.9999999653357208  1.3683872844007057e-08  5.331941278460283e-08  1.0000
  O   O1        1.0  0.26202363296128967  0.26202374060535144  0.7379762994124734  1.0000
  O   O2        1.0  0.7379763741743216  0.7379762016328785  0.2620235136807423  1.0000
  O   O3        1.0  0.7379762244807517  0.26202399025348144  0.2620236691080545  1.0000
  O   O4        1.0  0.26202371245419015  0.7379761754880116  0.7379762367885573  1.0000
  O   O5        1.0  0.26202383792120754  0.7379762387864208  0.2620236917025146  1.0000
  O   O6        1.0  0.7379763018754703  0.2620237376614812  0.7379762595499347  1.0000
