data_image0
_chemical_formula_structural       Cu2SbS6
_chemical_formula_sum              "Cu2 Sb1 S6"
_cell_length_a       6.497853284943186
_cell_length_b       6.497853169023921
_cell_length_c       6.497853345841752
_cell_angle_alpha    59.9999990055839
_cell_angle_beta     59.99999872245196
_cell_angle_gamma    60.0000005883812

_space_group_name_H-M_alt    "P 1"
_space_group_IT_number       1

loop_
  _space_group_symop_operation_xyz
  'x, y, z'

loop_
  _atom_site_type_symbol
  _atom_site_label
  _atom_site_symmetry_multiplicity
  _atom_site_fract_x
  _atom_site_fract_y
  _atom_site_fract_z
  _atom_site_occupancy
  Cu  Cu1       1.0  0.2500000941111603  0.2499999989904467  0.24999990328551772  1.0000
  Cu  Cu2       1.0  0.7500000017752871  0.7499999856622628  0.749999928121771  1.0000
  Sb  Sb1       1.0  0.9999999841143528  0.9999999943454634  0.9999999984583338  1.0000
  S   S1        1.0  0.2654470506590661  0.2654470231370113  0.734552904669967  1.0000
  S   S2        1.0  0.7345529970314575  0.7345529728247702  0.2654470544476031  1.0000
  S   S3        1.0  0.7345529145154817  0.26544699519254383  0.2654470580512145  1.0000
  S   S4        1.0  0.26544713215256455  0.7345529611874838  0.7345529644596254  1.0000
  S   S5        1.0  0.26544698347904316  0.7345529411252276  0.2654471044850411  1.0000
  S   S6        1.0  0.7345528491515279  0.2654471189212945  0.7345530947899042  1.0000
