data_image0
_chemical_formula_structural       Cu2SbSe6
_chemical_formula_sum              "Cu2 Sb1 Se6"
_cell_length_a       6.622264996256715
_cell_length_b       6.622265136782581
_cell_length_c       6.6222649987027085
_cell_angle_alpha    59.99999910555395
_cell_angle_beta     59.99999939632184
_cell_angle_gamma    59.999999654063785

_space_group_name_H-M_alt    "P 1"
_space_group_IT_number       1

loop_
  _space_group_symop_operation_xyz
  'x, y, z'

loop_
  _atom_site_type_symbol
  _atom_site_label
  _atom_site_symmetry_multiplicity
  _atom_site_fract_x
  _atom_site_fract_y
  _atom_site_fract_z
  _atom_site_occupancy
  Cu  Cu1       1.0  0.25000018596288154  0.25000013954272166  0.2499997894428708  1.0000
  Cu  Cu2       1.0  0.7499998944081435  0.7499998249595338  0.7500001992508748  1.0000
  Sb  Sb1       1.0  0.9999999661844281  0.9999999445169502  7.183034413808927e-08  1.0000
  Se  Se1       1.0  0.29565075086607956  0.295650817180721  0.7043492173515061  1.0000
  Se  Se2       1.0  0.7043492127852247  0.7043491417732298  0.29565081133544974  1.0000
  Se  Se3       1.0  0.7043491714521602  0.29565089552998974  0.2956507380715112  1.0000
  Se  Se4       1.0  0.2956508419705632  0.7043491965832801  0.7043491749891561  1.0000
  Se  Se5       1.0  0.29565084966203153  0.7043491808163331  0.29565070191518195  1.0000
  Se  Se6       1.0  0.7043491161892023  0.2956508761576713  0.7043492978025843  1.0000
