data_image0
_chemical_formula_structural       Cu2SbO6
_chemical_formula_sum              "Cu2 Sb1 O6"
_cell_length_a       5.370256508732407
_cell_length_b       5.370257123226491
_cell_length_c       5.370256238263465
_cell_angle_alpha    60.00000382263046
_cell_angle_beta     60.000002344292405
_cell_angle_gamma    59.99999953786965

_space_group_name_H-M_alt    "P 1"
_space_group_IT_number       1

loop_
  _space_group_symop_operation_xyz
  'x, y, z'

loop_
  _atom_site_type_symbol
  _atom_site_label
  _atom_site_symmetry_multiplicity
  _atom_site_fract_x
  _atom_site_fract_y
  _atom_site_fract_z
  _atom_site_occupancy
  Cu  Cu1       1.0  0.24999989602500125  0.24999978572024606  0.25000018914940886  1.0000
  Cu  Cu2       1.0  0.7499999283392715  0.7500001006387518  0.7499997795018202  1.0000
  Sb  Sb1       1.0  4.910755112437087e-08  0.9999999429848123  0.9999999816085168  1.0000
  O   O1        1.0  0.26202217075138806  0.26202200116575947  0.7379779311040368  1.0000
  O   O2        1.0  0.7379779110901025  0.7379779513308348  0.2620221252623298  1.0000
  O   O3        1.0  0.7379779287738669  0.2620219331507529  0.26202211816047416  1.0000
  O   O4        1.0  0.262022152653954  0.7379780786416353  0.7379778622121161  1.0000
  O   O5        1.0  0.26202201920489715  0.7379780886485252  0.2620220278647248  1.0000
  O   O6        1.0  0.7379779648313192  0.262022144362787  0.7379779520437844  1.0000
