data_image0
_chemical_formula_structural       Cu2TaTe6
_chemical_formula_sum              "Cu2 Ta1 Te6"
_cell_length_a       7.208299665228808
_cell_length_b       7.20829973713947
_cell_length_c       7.208299529634279
_cell_angle_alpha    60.000000087707505
_cell_angle_beta     60.00000152617321
_cell_angle_gamma    59.99999812342272

_space_group_name_H-M_alt    "P 1"
_space_group_IT_number       1

loop_
  _space_group_symop_operation_xyz
  'x, y, z'

loop_
  _atom_site_type_symbol
  _atom_site_label
  _atom_site_symmetry_multiplicity
  _atom_site_fract_x
  _atom_site_fract_y
  _atom_site_fract_z
  _atom_site_occupancy
  Cu  Cu1       1.0  0.24999994331233522  0.2500000564432681  0.2500000189503343  1.0000
  Cu  Cu2       1.0  0.7499999545330519  0.7499999637416119  0.7499999183867014  1.0000
  Ta  Ta1       1.0  1.1878527216124538e-07  0.999999903152666  6.255738873840702e-08  1.0000
  Te  Te1       1.0  0.26708977287990743  0.26708977848863236  0.7329102091857193  1.0000
  Te  Te2       1.0  0.7329101930228322  0.732910200918421  0.2670898657261363  1.0000
  Te  Te3       1.0  0.7329102383881169  0.2670897862019945  0.267089772303728  1.0000
  Te  Te4       1.0  0.2670898574632045  0.7329101830105995  0.7329102344073288  1.0000
  Te  Te5       1.0  0.2670897132571835  0.7329102809172261  0.26708972440690437  1.0000
  Te  Te6       1.0  0.7329102123202424  0.2670898531057424  0.732910187925629  1.0000
