data_image0
_chemical_formula_structural       Cu2TaO6
_chemical_formula_sum              "Cu2 Ta1 O6"
_cell_length_a       5.329398629684437
_cell_length_b       5.3293988475945575
_cell_length_c       5.32939861371247
_cell_angle_alpha    59.9999977536637
_cell_angle_beta     59.99999553193926
_cell_angle_gamma    59.999997357014905

_space_group_name_H-M_alt    "P 1"
_space_group_IT_number       1

loop_
  _space_group_symop_operation_xyz
  'x, y, z'

loop_
  _atom_site_type_symbol
  _atom_site_label
  _atom_site_symmetry_multiplicity
  _atom_site_fract_x
  _atom_site_fract_y
  _atom_site_fract_z
  _atom_site_occupancy
  Cu  Cu1       1.0  0.24999996882477923  0.24999978767018957  0.25000029248831535  1.0000
  Cu  Cu2       1.0  0.7499998163790998  0.7500002247950962  0.749999735437399  1.0000
  Ta  Ta1       1.0  0.9999999746572009  0.9999999655286174  1.4249015198533666e-07  1.0000
  O   O1        1.0  0.26070333500725207  0.2607030399260212  0.7392967186202873  1.0000
  O   O2        1.0  0.7392968534173998  0.7392968093747221  0.26070329247844015  1.0000
  O   O3        1.0  0.739296964840573  0.26070313447317267  0.26070318142487375  1.0000
  O   O4        1.0  0.26070328891058303  0.7392968113474343  0.7392967506270491  1.0000
  O   O5        1.0  0.2607031638256232  0.7392969081807302  0.26070320760418253  1.0000
  O   O6        1.0  0.7392967324449716  0.260703226083429  0.7392967770677185  1.0000
