data_image0
_chemical_formula_structural       Cu2TaSe6
_chemical_formula_sum              "Cu2 Ta1 Se6"
_cell_length_a       6.499083206022067
_cell_length_b       6.499082942382296
_cell_length_c       6.499083057624034
_cell_angle_alpha    60.00000213000879
_cell_angle_beta     60.00000122894903
_cell_angle_gamma    60.00000071697478

_space_group_name_H-M_alt    "P 1"
_space_group_IT_number       1

loop_
  _space_group_symop_operation_xyz
  'x, y, z'

loop_
  _atom_site_type_symbol
  _atom_site_label
  _atom_site_symmetry_multiplicity
  _atom_site_fract_x
  _atom_site_fract_y
  _atom_site_fract_z
  _atom_site_occupancy
  Cu  Cu1       1.0  0.2499998989651913  0.25000009130093687  0.24999996183948636  1.0000
  Cu  Cu2       1.0  0.7500000621688486  0.7499999083120087  0.7500002103384004  1.0000
  Ta  Ta1       1.0  0.9999999750705436  9.610892463036272e-08  0.9999999628715891  1.0000
  Se  Se1       1.0  0.27207196025979247  0.2720719557097237  0.7279280427857363  1.0000
  Se  Se2       1.0  0.7279280602786979  0.7279279722926423  0.27207184622363745  1.0000
  Se  Se3       1.0  0.7279281060524837  0.27207204581762273  0.2720718484804405  1.0000
  Se  Se4       1.0  0.27207189529930015  0.7279279877161136  0.7279280665971406  1.0000
  Se  Se5       1.0  0.27207198256096243  0.7279280498730435  0.27207197285689366  1.0000
  Se  Se6       1.0  0.7279280621155695  0.27207188566728263  0.7279280772625181  1.0000
