data_image0
_chemical_formula_structural       Cu2YS6
_chemical_formula_sum              "Cu2 Y1 S6"
_cell_length_a       6.62997997985911
_cell_length_b       6.629980046584581
_cell_length_c       6.629980185250224
_cell_angle_alpha    59.9999990470347
_cell_angle_beta     59.99999981364207
_cell_angle_gamma    60.00000050792261

_space_group_name_H-M_alt    "P 1"
_space_group_IT_number       1

loop_
  _space_group_symop_operation_xyz
  'x, y, z'

loop_
  _atom_site_type_symbol
  _atom_site_label
  _atom_site_symmetry_multiplicity
  _atom_site_fract_x
  _atom_site_fract_y
  _atom_site_fract_z
  _atom_site_occupancy
  Cu  Cu1       1.0  0.2500000111774729  0.2500000119672044  0.2499999845975868  1.0000
  Cu  Cu2       1.0  0.7500000187210127  0.7499999601630136  0.7500000790076702  1.0000
  Y   Y1        1.0  0.9999998513271365  3.325109033691608e-08  1.3765079265091497e-07  1.0000
  S   S1        1.0  0.27785864368686325  0.27785874593557275  0.722141310134112  1.0000
  S   S2        1.0  0.722141376305068  0.7221413499626003  0.27785859850093575  1.0000
  S   S3        1.0  0.7221414147343443  0.2778586388886386  0.277858587031016  1.0000
  S   S4        1.0  0.277858700048521  0.7221412353355872  0.7221413443214355  1.0000
  S   S5        1.0  0.27785862586083887  0.7221413525897525  0.277858636008364  1.0000
  S   S6        1.0  0.7221413564671347  0.27785867865351854  0.7221413237861131  1.0000
