data_image0
_chemical_formula_structural       Cu2YO6
_chemical_formula_sum              "Cu2 Y1 O6"
_cell_length_a       5.535222777596569
_cell_length_b       5.535222869690781
_cell_length_c       5.535222632135476
_cell_angle_alpha    60.00000037136043
_cell_angle_beta     60.00000046244703
_cell_angle_gamma    59.99999904154828

_space_group_name_H-M_alt    "P 1"
_space_group_IT_number       1

loop_
  _space_group_symop_operation_xyz
  'x, y, z'

loop_
  _atom_site_type_symbol
  _atom_site_label
  _atom_site_symmetry_multiplicity
  _atom_site_fract_x
  _atom_site_fract_y
  _atom_site_fract_z
  _atom_site_occupancy
  Cu  Cu1       1.0  0.25000009225536696  0.2500000576280412  0.24999988869368486  1.0000
  Cu  Cu2       1.0  0.7499999698606491  0.7499999671087212  0.7500001175355876  1.0000
  Y   Y1        1.0  0.9999999862397064  2.876430461530239e-08  0.9999999545591409  1.0000
  O   O1        1.0  0.28067182796097434  0.28067184967962633  0.719328219132009  1.0000
  O   O2        1.0  0.7193282361363061  0.7193281440801933  0.28067179617526655  1.0000
  O   O3        1.0  0.7193281094442227  0.2806718334445968  0.28067179961701477  1.0000
  O   O4        1.0  0.2806718630130943  0.7193281160624503  0.7193281625936209  1.0000
  O   O5        1.0  0.28067186719602033  0.7193281714917558  0.28067179836952294  1.0000
  O   O6        1.0  0.7193280533185622  0.2806718399691769  0.719328245552916  1.0000
