data_image0
_chemical_formula_structural       Cu2YTe6
_chemical_formula_sum              "Cu2 Y1 Te6"
_cell_length_a       7.605843295316038
_cell_length_b       7.605843237649368
_cell_length_c       7.605843104965298
_cell_angle_alpha    60.00000119859044
_cell_angle_beta     60.000001094253676
_cell_angle_gamma    60.00000087154966

_space_group_name_H-M_alt    "P 1"
_space_group_IT_number       1

loop_
  _space_group_symop_operation_xyz
  'x, y, z'

loop_
  _atom_site_type_symbol
  _atom_site_label
  _atom_site_symmetry_multiplicity
  _atom_site_fract_x
  _atom_site_fract_y
  _atom_site_fract_z
  _atom_site_occupancy
  Cu  Cu1       1.0  0.24999988019276928  0.25000017779627826  0.24999998418961653  1.0000
  Cu  Cu2       1.0  0.7500000684383755  0.7499999102149886  0.7500000765213095  1.0000
  Y   Y1        1.0  1.7007810517896807e-08  0.9999999307584612  0.9999999787848332  1.0000
  Te  Te1       1.0  0.2808020399642276  0.2808021875644248  0.7191979032444239  1.0000
  Te  Te2       1.0  0.7191978975187328  0.719197874682548  0.2808020957212443  1.0000
  Te  Te3       1.0  0.7191979478353172  0.2808021599360083  0.280802046432008  1.0000
  Te  Te4       1.0  0.28080214069956444  0.7191978362899626  0.7191978653157269  1.0000
  Te  Te5       1.0  0.2808021048584741  0.7191978400835247  0.2808021592632318  1.0000
  Te  Te6       1.0  0.7191979025395644  0.2808020852906394  0.7191978823847518  1.0000
