data_image0
_chemical_formula_structural       Cu2YSe6
_chemical_formula_sum              "Cu2 Y1 Se6"
_cell_length_a       6.8488075935343975
_cell_length_b       6.848807513794249
_cell_length_c       6.848808291835399
_cell_angle_alpha    59.999997913586604
_cell_angle_beta     59.99999702928264
_cell_angle_gamma    60.000009393079786

_space_group_name_H-M_alt    "P 1"
_space_group_IT_number       1

loop_
  _space_group_symop_operation_xyz
  'x, y, z'

loop_
  _atom_site_type_symbol
  _atom_site_label
  _atom_site_symmetry_multiplicity
  _atom_site_fract_x
  _atom_site_fract_y
  _atom_site_fract_z
  _atom_site_occupancy
  Cu  Cu1       1.0  0.2499998899867221  0.2500000637551563  0.25000005246476537  1.0000
  Cu  Cu2       1.0  0.7500000219430375  0.7500000052864729  0.7499999926263076  1.0000
  Y   Y1        1.0  1.9334512746358206e-07  0.9999999105870215  0.9999997567597727  1.0000
  Se  Se1       1.0  0.288287551398521  0.2882869758431861  0.7117121682666231  1.0000
  Se  Se2       1.0  0.7117127064864499  0.7117118378399524  0.2882871342374882  1.0000
  Se  Se3       1.0  0.71171178984936  0.28828854556972344  0.28828817672986695  1.0000
  Se  Se4       1.0  0.28828621704492113  0.7117138750335866  0.7117135636800834  1.0000
  Se  Se5       1.0  0.2882880298294198  0.7117121491358622  0.2882869127994256  1.0000
  Se  Se6       1.0  0.7117135958006471  0.28828664308833807  0.7117122451207181  1.0000
