data_image0
_chemical_formula_structural       Fe2AsO6
_chemical_formula_sum              "Fe2 As1 O6"
_cell_length_a       4.802039701338446
_cell_length_b       4.802041427180007
_cell_length_c       4.802038697436418
_cell_angle_alpha    59.999978599205214
_cell_angle_beta     59.99999367262918
_cell_angle_gamma    59.99999204090658

_space_group_name_H-M_alt    "P 1"
_space_group_IT_number       1

loop_
  _space_group_symop_operation_xyz
  'x, y, z'

loop_
  _atom_site_type_symbol
  _atom_site_label
  _atom_site_symmetry_multiplicity
  _atom_site_fract_x
  _atom_site_fract_y
  _atom_site_fract_z
  _atom_site_occupancy
  Fe  Fe1       1.0  0.24999970705991995  0.25000010786882826  0.25000076024276086  1.0000
  Fe  Fe2       1.0  0.7499992219943529  0.7499994079898531  0.7499996227648515  1.0000
  As  As1       1.0  5.605596351404119e-08  1.7088129829568893e-07  0.9999999614994705  1.0000
  O   O1        1.0  0.2569143415984921  0.2569147020208129  0.7430858955599833  1.0000
  O   O2        1.0  0.7430848109081761  0.7430865889625603  0.2569153644449443  1.0000
  O   O3        1.0  0.7430859208242426  0.2569147531009493  0.25691440634120316  1.0000
  O   O4        1.0  0.25691442313283014  0.743086224175567  0.7430847175961077  1.0000
  O   O5        1.0  0.2569150460762725  0.7430846437554594  0.25691424747380825  1.0000
  O   O6        1.0  0.7430862726593186  0.25691401514640744  0.7430844778834622  1.0000
