data_image0
_chemical_formula_structural       Fe2AsN6
_chemical_formula_sum              "Fe2 As1 N6"
_cell_length_a       4.801566206272608
_cell_length_b       4.801566223124154
_cell_length_c       4.801566228979346
_cell_angle_alpha    60.000001873774224
_cell_angle_beta     59.99999974497221
_cell_angle_gamma    60.00000099009635

_space_group_name_H-M_alt    "P 1"
_space_group_IT_number       1

loop_
  _space_group_symop_operation_xyz
  'x, y, z'

loop_
  _atom_site_type_symbol
  _atom_site_label
  _atom_site_symmetry_multiplicity
  _atom_site_fract_x
  _atom_site_fract_y
  _atom_site_fract_z
  _atom_site_occupancy
  Fe  Fe1       1.0  0.25000001151501217  0.24999995176853074  0.2500000833329944  1.0000
  Fe  Fe2       1.0  0.7500001602260697  0.7499999904937207  0.7499999633653717  1.0000
  As  As1       1.0  2.8591370307561495e-08  0.999999971942084  0.9999999143444679  1.0000
  N   N1        1.0  0.2766713954199671  0.2766713058619  0.7233286825249342  1.0000
  N   N2        1.0  0.7233286390742457  0.7233286874147418  0.2766714635213236  1.0000
  N   N3        1.0  0.723328493152186  0.27667138019574106  0.27667138030632155  1.0000
  N   N4        1.0  0.2766711862964722  0.7233288196891704  0.7233285150645943  1.0000
  N   N5        1.0  0.27667132380145437  0.723328646584771  0.27667136565578243  1.0000
  N   N6        1.0  0.7233287622406045  0.27667124976452756  0.7233286406332288  1.0000
