data_image0
_chemical_formula_structural       Fe2AsS6
_chemical_formula_sum              "Fe2 As1 S6"
_cell_length_a       6.316082832414187
_cell_length_b       6.316082859671206
_cell_length_c       6.316082848017239
_cell_angle_alpha    60.00000082359534
_cell_angle_beta     60.00000197770518
_cell_angle_gamma    60.0000014166685

_space_group_name_H-M_alt    "P 1"
_space_group_IT_number       1

loop_
  _space_group_symop_operation_xyz
  'x, y, z'

loop_
  _atom_site_type_symbol
  _atom_site_label
  _atom_site_symmetry_multiplicity
  _atom_site_fract_x
  _atom_site_fract_y
  _atom_site_fract_z
  _atom_site_occupancy
  Fe  Fe1       1.0  0.24999999367116196  0.2500000995998666  0.2499998963144696  1.0000
  Fe  Fe2       1.0  0.7500001442296763  0.7499997926972973  0.7499998049723716  1.0000
  As  As1       1.0  0.9999999648207796  2.3269071176217533e-08  4.371814429050723e-09  1.0000
  S   S1        1.0  0.2625348894689008  0.26253525360085  0.737465094287405  1.0000
  S   S2        1.0  0.7374649256499778  0.73746491598608  0.2625352915481215  1.0000
  S   S3        1.0  0.7374648938268421  0.2625351228500941  0.2625350577688416  1.0000
  S   S4        1.0  0.26253500249295425  0.7374648470106397  0.7374650548447685  1.0000
  S   S5        1.0  0.26253505755569007  0.7374647729156154  0.26253509080274917  1.0000
  S   S6        1.0  0.7374651454946333  0.26253515428515617  0.7374646902848496  1.0000
