data_image0
_chemical_formula_structural       Fe2AsSe6
_chemical_formula_sum              "Fe2 As1 Se6"
_cell_length_a       6.439993660069136
_cell_length_b       6.439993703186894
_cell_length_c       6.439993732085271
_cell_angle_alpha    59.999999415655196
_cell_angle_beta     59.99999975226186
_cell_angle_gamma    60.000000690450186

_space_group_name_H-M_alt    "P 1"
_space_group_IT_number       1

loop_
  _space_group_symop_operation_xyz
  'x, y, z'

loop_
  _atom_site_type_symbol
  _atom_site_label
  _atom_site_symmetry_multiplicity
  _atom_site_fract_x
  _atom_site_fract_y
  _atom_site_fract_z
  _atom_site_occupancy
  Fe  Fe1       1.0  0.24999997759777323  0.2500000802745081  0.24999991518493797  1.0000
  Fe  Fe2       1.0  0.7499998991269712  0.7500000943864923  0.7500000871595444  1.0000
  As  As1       1.0  1.11030444951009e-08  0.99999995055373  4.7121950687513145e-08  1.0000
  Se  Se1       1.0  0.29268899869925963  0.2926889826889091  0.7073110129465469  1.0000
  Se  Se2       1.0  0.7073110467896252  0.707310992285234  0.2926889598281951  1.0000
  Se  Se3       1.0  0.7073109878868891  0.2926889557709483  0.2926890555784905  1.0000
  Se  Se4       1.0  0.29268903212070935  0.7073109450337896  0.707310968574394  1.0000
  Se  Se5       1.0  0.2926890486475374  0.7073110176399274  0.2926889568005916  1.0000
  Se  Se6       1.0  0.7073109967139222  0.29268899536980786  0.7073109768337116  1.0000
