data_image0
_chemical_formula_structural       Fe2AsSe6
_chemical_formula_sum              "Fe2 As1 Se6"
_cell_length_a       6.439148853998284
_cell_length_b       6.4391488531552525
_cell_length_c       6.439148845935553
_cell_angle_alpha    59.999997279029664
_cell_angle_beta     59.99999773430425
_cell_angle_gamma    59.999996450420404

_space_group_name_H-M_alt    "P 1"
_space_group_IT_number       1

loop_
  _space_group_symop_operation_xyz
  'x, y, z'

loop_
  _atom_site_type_symbol
  _atom_site_label
  _atom_site_symmetry_multiplicity
  _atom_site_fract_x
  _atom_site_fract_y
  _atom_site_fract_z
  _atom_site_occupancy
  Fe  Fe1       1.0  0.2499996673224852  0.2500004762482582  0.25000011852075055  1.0000
  Fe  Fe2       1.0  0.7500001262587027  0.7499995514419514  0.7499998484108964  1.0000
  As  As1       1.0  7.109600241155429e-08  1.902027006222152e-09  0.99999999611399  1.0000
  Se  Se1       1.0  0.29265701501445757  0.2926572025885569  0.7073428480137638  1.0000
  Se  Se2       1.0  0.70734298937469  0.7073427414123595  0.2926572339535807  1.0000
  Se  Se3       1.0  0.7073429692062467  0.2926571131668695  0.2926570589092513  1.0000
  Se  Se4       1.0  0.29265711772520203  0.7073429221314474  0.707342914396235  1.0000
  Se  Se5       1.0  0.29265712086464646  0.7073427641032305  0.29265710184361504  1.0000
  Se  Se6       1.0  0.7073429397306071  0.2926572103301534  0.7073428793434307  1.0000
