data_image0
_chemical_formula_structural       Fe2BO6
_chemical_formula_sum              "Fe2 B1 O6"
_cell_length_a       4.745955455622011
_cell_length_b       4.745955546757718
_cell_length_c       4.745955456066624
_cell_angle_alpha    59.99999926731382
_cell_angle_beta     60.00000196537521
_cell_angle_gamma    60.0000026842347

_space_group_name_H-M_alt    "P 1"
_space_group_IT_number       1

loop_
  _space_group_symop_operation_xyz
  'x, y, z'

loop_
  _atom_site_type_symbol
  _atom_site_label
  _atom_site_symmetry_multiplicity
  _atom_site_fract_x
  _atom_site_fract_y
  _atom_site_fract_z
  _atom_site_occupancy
  Fe  Fe1       1.0  0.2499999938798923  0.2500000392382817  0.24999993231941378  1.0000
  Fe  Fe2       1.0  0.7500000343312407  0.7500000764251231  0.7499999008243005  1.0000
  B   B1        1.0  5.176017029987156e-07  0.999998118737091  1.5920793756118873e-06  1.0000
  O   O1        1.0  0.20549026368461484  0.20548999145274496  0.7945100048351396  1.0000
  O   O2        1.0  0.7945110019172927  0.7945106454934129  0.20548919128341103  1.0000
  O   O3        1.0  0.7945102000056204  0.20548959104195186  0.20548995304962855  1.0000
  O   O4        1.0  0.20548964062278444  0.7945101968842774  0.7945106603042437  1.0000
  O   O5        1.0  0.2054888418556624  0.7945109742386903  0.20548894379933197  1.0000
  O   O6        1.0  0.794509496713049  0.2054903491490347  0.7945096616844702  1.0000
