data_image0
_chemical_formula_structural       Fe2BS6
_chemical_formula_sum              "Fe2 B1 S6"
_cell_length_a       6.069060615783078
_cell_length_b       6.069060171940703
_cell_length_c       6.069060450581065
_cell_angle_alpha    60.00000229623295
_cell_angle_beta     60.00000146441596
_cell_angle_gamma    59.99999859924177

_space_group_name_H-M_alt    "P 1"
_space_group_IT_number       1

loop_
  _space_group_symop_operation_xyz
  'x, y, z'

loop_
  _atom_site_type_symbol
  _atom_site_label
  _atom_site_symmetry_multiplicity
  _atom_site_fract_x
  _atom_site_fract_y
  _atom_site_fract_z
  _atom_site_occupancy
  Fe  Fe1       1.0  0.25000000082012314  0.24999984228267477  0.2500000298285023  1.0000
  Fe  Fe2       1.0  0.7499999942066787  0.7500000596037348  0.7499999557552293  1.0000
  B   B1        1.0  0.9999998795952292  1.6144112241100992e-07  0.9999999185168729  1.0000
  S   S1        1.0  0.23075754798000872  0.23075748589145686  0.7692424461172536  1.0000
  S   S2        1.0  0.7692425808025702  0.7692425855081323  0.23075746033087094  1.0000
  S   S3        1.0  0.7692427142376336  0.230757243174219  0.23075733148895605  1.0000
  S   S4        1.0  0.23075739559814074  0.7692426910004138  0.7692425986708956  1.0000
  S   S5        1.0  0.2307572680615558  0.7692426991300509  0.23075739090811634  1.0000
  S   S6        1.0  0.7692426608358335  0.23075717854019817  0.7692428029708491  1.0000
