data_image0
_chemical_formula_structural       Fe2GaO6
_chemical_formula_sum              "Fe2 Ga1 O6"
_cell_length_a       5.122706289114359
_cell_length_b       5.122706271612889
_cell_length_c       5.12270615825903
_cell_angle_alpha    59.999997158035995
_cell_angle_beta     60.00000033540628
_cell_angle_gamma    59.99999822622778

_space_group_name_H-M_alt    "P 1"
_space_group_IT_number       1

loop_
  _space_group_symop_operation_xyz
  'x, y, z'

loop_
  _atom_site_type_symbol
  _atom_site_label
  _atom_site_symmetry_multiplicity
  _atom_site_fract_x
  _atom_site_fract_y
  _atom_site_fract_z
  _atom_site_occupancy
  Fe  Fe1       1.0  0.2500001796948257  0.24999981402386112  0.25000000145154644  1.0000
  Fe  Fe2       1.0  0.7499998762158135  0.7499999632695082  0.7500003113932775  1.0000
  Ga  Ga1       1.0  0.9999999590397656  0.9999999808734734  0.9999999578159318  1.0000
  O   O1        1.0  0.25797348023693817  0.25797359945757325  0.7420265325670244  1.0000
  O   O2        1.0  0.7420263805410097  0.7420265603663958  0.25797349722579277  1.0000
  O   O3        1.0  0.7420264709525822  0.2579736331636849  0.25797335490886003  1.0000
  O   O4        1.0  0.25797348196930286  0.7420265410051855  0.7420265103702233  1.0000
  O   O5        1.0  0.2579736503356849  0.7420265572937347  0.2579732665649595  1.0000
  O   O6        1.0  0.742026481322995  0.2579733849659638  0.742026619444038  1.0000
