data_image0
_chemical_formula_structural       Fe2GaSe6
_chemical_formula_sum              "Fe2 Ga1 Se6"
_cell_length_a       6.4193314184214865
_cell_length_b       6.419332482402764
_cell_length_c       6.419332194143271
_cell_angle_alpha    59.99998826192263
_cell_angle_beta     59.999989132462446
_cell_angle_gamma    59.999984227517245

_space_group_name_H-M_alt    "P 1"
_space_group_IT_number       1

loop_
  _space_group_symop_operation_xyz
  'x, y, z'

loop_
  _atom_site_type_symbol
  _atom_site_label
  _atom_site_symmetry_multiplicity
  _atom_site_fract_x
  _atom_site_fract_y
  _atom_site_fract_z
  _atom_site_occupancy
  Fe  Fe1       1.0  0.250000764876046  0.24999988957885336  0.24999976300342017  1.0000
  Fe  Fe2       1.0  0.7500000013935209  0.7499996572895465  0.7499995502927763  1.0000
  Ga  Ga1       1.0  0.9999998692154328  3.8158181183169485e-09  6.192658649173732e-08  1.0000
  Se  Se1       1.0  0.28707082596444267  0.2870704430900185  0.7129293274646371  1.0000
  Se  Se2       1.0  0.7129296212122449  0.7129290465412997  0.28707092329568784  1.0000
  Se  Se3       1.0  0.7129287004878615  0.2870708102084105  0.28707064783620534  1.0000
  Se  Se4       1.0  0.287070819349823  0.7129297993609236  0.712929062653134  1.0000
  Se  Se5       1.0  0.28707057807282144  0.712929230168124  0.2870708306774986  1.0000
  Se  Se6       1.0  0.7129288149271403  0.28707114472931744  0.7129298160969819  1.0000
