data_image0
_chemical_formula_structural       Fe2MoS6
_chemical_formula_sum              "Fe2 Mo1 S6"
_cell_length_a       6.116252293927166
_cell_length_b       6.1162523430425795
_cell_length_c       6.116252533905122
_cell_angle_alpha    60.000001710661635
_cell_angle_beta     60.000000621336234
_cell_angle_gamma    60.00000110568431

_space_group_name_H-M_alt    "P 1"
_space_group_IT_number       1

loop_
  _space_group_symop_operation_xyz
  'x, y, z'

loop_
  _atom_site_type_symbol
  _atom_site_label
  _atom_site_symmetry_multiplicity
  _atom_site_fract_x
  _atom_site_fract_y
  _atom_site_fract_z
  _atom_site_occupancy
  Fe  Fe1       1.0  0.25000002773931324  0.24999991462208365  0.25000004630113115  1.0000
  Fe  Fe2       1.0  0.7499998441945928  0.7499998039395516  0.7500003068578422  1.0000
  Mo  Mo1       1.0  1.2563681345844521e-09  1.3216125762475628e-07  0.9999999496410708  1.0000
  S   S1        1.0  0.26604511974022743  0.266045088131822  0.7339548835446275  1.0000
  S   S2        1.0  0.7339549127781695  0.733954822664361  0.26604494822234775  1.0000
  S   S3        1.0  0.7339549894510261  0.26604507662061583  0.26604496639337805  1.0000
  S   S4        1.0  0.26604509928286413  0.7339549883637044  0.7339549204006179  1.0000
  S   S5        1.0  0.26604503859066947  0.7339550753273977  0.2660450353072517  1.0000
  S   S6        1.0  0.7339549484604215  0.26604510780107943  0.7339549528002679  1.0000
