data_image0
_chemical_formula_structural       Fe2MoO6
_chemical_formula_sum              "Fe2 Mo1 O6"
_cell_length_a       5.255244959653459
_cell_length_b       5.255245345156434
_cell_length_c       5.255244981432723
_cell_angle_alpha    60.000000930721285
_cell_angle_beta     60.00000136703198
_cell_angle_gamma    60.000000006131955

_space_group_name_H-M_alt    "P 1"
_space_group_IT_number       1

loop_
  _space_group_symop_operation_xyz
  'x, y, z'

loop_
  _atom_site_type_symbol
  _atom_site_label
  _atom_site_symmetry_multiplicity
  _atom_site_fract_x
  _atom_site_fract_y
  _atom_site_fract_z
  _atom_site_occupancy
  Fe  Fe1       1.0  0.2500000648950915  0.25000002003797256  0.24999992342027058  1.0000
  Fe  Fe2       1.0  0.7499999221177865  0.7500000274866576  0.7499999818468699  1.0000
  Mo  Mo1       1.0  0.9999999946078583  0.9999999370759896  4.938096355475538e-08  1.0000
  O   O1        1.0  0.2550233911170262  0.2550234871469506  0.7449765760983997  1.0000
  O   O2        1.0  0.7449765898601571  0.7449764927926296  0.25502346873360043  1.0000
  O   O3        1.0  0.7449765595028416  0.2550233675623294  0.2550234910846519  1.0000
  O   O4        1.0  0.25502348621468207  0.7449766356824382  0.744976519238889  1.0000
  O   O5        1.0  0.2550234647584579  0.744976625039484  0.2550234105346186  1.0000
  O   O6        1.0  0.744976488275365  0.2550233991799554  0.744976643254879  1.0000
