data_image0
_chemical_formula_structural       Fe2NO6
_chemical_formula_sum              "Fe2 N1 O6"
_cell_length_a       4.462757031414476
_cell_length_b       4.462757852426234
_cell_length_c       4.462757499228647
_cell_angle_alpha    60.000010090153786
_cell_angle_beta     60.00000125024645
_cell_angle_gamma    60.00001777295412

_space_group_name_H-M_alt    "P 1"
_space_group_IT_number       1

loop_
  _space_group_symop_operation_xyz
  'x, y, z'

loop_
  _atom_site_type_symbol
  _atom_site_label
  _atom_site_symmetry_multiplicity
  _atom_site_fract_x
  _atom_site_fract_y
  _atom_site_fract_z
  _atom_site_occupancy
  Fe  Fe1       1.0  0.25000047890091054  0.2500004504527419  0.24999913941764285  1.0000
  Fe  Fe2       1.0  0.750001556159587  0.7499987496981473  0.7499999545177579  1.0000
  N   N1        1.0  6.181006233953742e-07  2.415042991959758e-07  0.9999982615896115  1.0000
  O   O1        1.0  0.25337742114598594  0.25337798255022576  0.7466225995224778  1.0000
  O   O2        1.0  0.7466213828248542  0.7466217747069087  0.2533783602255713  1.0000
  O   O3        1.0  0.7466210096775118  0.253378985063009  0.2533786106404251  1.0000
  O   O4        1.0  0.25337717971223117  0.7466226081758285  0.7466226526403634  1.0000
  O   O5        1.0  0.25337841611537265  0.7466211728170912  0.25337887086746913  1.0000
  O   O6        1.0  0.7466217271231453  0.2533782304168268  0.7466218696319584  1.0000
