data_image0
_chemical_formula_structural       Fe2NO6
_chemical_formula_sum              "Fe2 N1 O6"
_cell_length_a       4.462763921414714
_cell_length_b       4.4627638519272175
_cell_length_c       4.462763825391368
_cell_angle_alpha    60.00000036831851
_cell_angle_beta     59.999999094277904
_cell_angle_gamma    60.00000008387865

_space_group_name_H-M_alt    "P 1"
_space_group_IT_number       1

loop_
  _space_group_symop_operation_xyz
  'x, y, z'

loop_
  _atom_site_type_symbol
  _atom_site_label
  _atom_site_symmetry_multiplicity
  _atom_site_fract_x
  _atom_site_fract_y
  _atom_site_fract_z
  _atom_site_occupancy
  Fe  Fe1       1.0  0.2500001054111251  0.25000001566642366  0.24999996973687333  1.0000
  Fe  Fe2       1.0  0.7499999205702743  0.7499999454577971  0.7499998216983296  1.0000
  N   N1        1.0  0.9999999074540763  1.3721820734239965e-08  1.424871912764932e-07  1.0000
  O   O1        1.0  0.25335825529643835  0.2533582732900687  0.7466417743047158  1.0000
  O   O2        1.0  0.74664178079686  0.7466418360298137  0.25335829425816414  1.0000
  O   O3        1.0  0.7466418146495121  0.2533581248305479  0.25335819176649865  1.0000
  O   O4        1.0  0.25335825382913335  0.7466417786620294  0.7466417685709019  1.0000
  O   O5        1.0  0.25335820977313833  0.7466417719429627  0.2533582423004102  1.0000
  O   O6        1.0  0.7466417633613621  0.25335824681290514  0.746641804430266  1.0000
