data_image0
_chemical_formula_structural       Fe2PS6
_chemical_formula_sum              "Fe2 P1 S6"
_cell_length_a       6.287935879723129
_cell_length_b       6.287935548439796
_cell_length_c       6.2879361225031545
_cell_angle_alpha    59.99999922749685
_cell_angle_beta     59.99999944881431
_cell_angle_gamma    59.99999962593959

_space_group_name_H-M_alt    "P 1"
_space_group_IT_number       1

loop_
  _space_group_symop_operation_xyz
  'x, y, z'

loop_
  _atom_site_type_symbol
  _atom_site_label
  _atom_site_symmetry_multiplicity
  _atom_site_fract_x
  _atom_site_fract_y
  _atom_site_fract_z
  _atom_site_occupancy
  Fe  Fe1       1.0  0.24999972813437943  0.2500002079297511  0.250000131217571  1.0000
  Fe  Fe2       1.0  0.7500002154977106  0.7499996460089859  0.75000000757714  1.0000
  P   P1        1.0  0.9999999969765073  0.9999999980522303  0.9999999945338964  1.0000
  S   S1        1.0  0.24258797401199952  0.24258825326292255  0.757412029776279  1.0000
  S   S2        1.0  0.7574120522918892  0.7574117272808375  0.2425883160880249  1.0000
  S   S3        1.0  0.7574118697150466  0.2425882784246014  0.24258792158927805  1.0000
  S   S4        1.0  0.24258801175059327  0.7574120429788008  0.7574117839560258  1.0000
  S   S5        1.0  0.24258814548287486  0.7574117021011396  0.24258805711242512  1.0000
  S   S6        1.0  0.7574119952905481  0.2425881498898252  0.7574117693886689  1.0000
