data_image0
_chemical_formula_structural       Fe2PSe6
_chemical_formula_sum              "Fe2 P1 Se6"
_cell_length_a       6.318687579838943
_cell_length_b       6.318687643281984
_cell_length_c       6.3186867705575
_cell_angle_alpha    60.00000444435538
_cell_angle_beta     60.00000380454236
_cell_angle_gamma    60.00000324371856

_space_group_name_H-M_alt    "P 1"
_space_group_IT_number       1

loop_
  _space_group_symop_operation_xyz
  'x, y, z'

loop_
  _atom_site_type_symbol
  _atom_site_label
  _atom_site_symmetry_multiplicity
  _atom_site_fract_x
  _atom_site_fract_y
  _atom_site_fract_z
  _atom_site_occupancy
  Fe  Fe1       1.0  0.25000001679131173  0.24999983100740078  0.2500001834131701  1.0000
  Fe  Fe2       1.0  0.749999747665455  0.7499994910839115  0.7499998938505511  1.0000
  P   P1        1.0  2.7098019340657244e-08  0.9999999844936813  6.700408680411787e-08  1.0000
  Se  Se1       1.0  0.28900678336879454  0.2890067573061391  0.7109932758364277  1.0000
  Se  Se2       1.0  0.710993309275695  0.7109933071501869  0.28900680423741565  1.0000
  Se  Se3       1.0  0.7109932202330409  0.2890067757630776  0.289006723594201  1.0000
  Se  Se4       1.0  0.2890067779357148  0.7109934515095957  0.7109931782920689  1.0000
  Se  Se5       1.0  0.2890068501184439  0.7109932459574714  0.2890066381355567  1.0000
  Se  Se6       1.0  0.7109932523218245  0.28900716739102794  0.7109932166986976  1.0000
