data_image0
_chemical_formula_structural       Fe2PO6
_chemical_formula_sum              "Fe2 P1 O6"
_cell_length_a       3.7981200491521805
_cell_length_b       3.1638081404327663
_cell_length_c       3.943889519897828
_cell_angle_alpha    40.40830868707152
_cell_angle_beta     60.734644317865175
_cell_angle_gamma    39.517067045550405

_space_group_name_H-M_alt    "P 1"
_space_group_IT_number       1

loop_
  _space_group_symop_operation_xyz
  'x, y, z'

loop_
  _atom_site_type_symbol
  _atom_site_label
  _atom_site_symmetry_multiplicity
  _atom_site_fract_x
  _atom_site_fract_y
  _atom_site_fract_z
  _atom_site_occupancy
  Fe  Fe1       1.0  0.7209640330352802  0.8400680142536344  0.08101950229476021  1.0000
  Fe  Fe2       1.0  0.668428346708181  0.18199111179135996  0.8156034831125227  1.0000
  P   P1        1.0  0.5525327250113043  0.25070761275729425  0.9331126486328651  1.0000
  O   O1        1.0  0.43478490181090257  0.4419713329033719  0.5326124249166238  1.0000
  O   O2        1.0  0.34845341792062956  0.1631638830705997  0.15922316664032327  1.0000
  O   O3        1.0  0.5357314946347069  0.6076055325224963  0.614116513838274  1.0000
  O   O4        1.0  0.048698306793389476  0.3845322436613774  0.08978053261804275  1.0000
  O   O5        1.0  0.9996091417098504  0.3739072974554196  0.2665843780399133  1.0000
  O   O6        1.0  0.5531039102649359  0.49815180181452434  0.6993062856710566  1.0000
