data_image0
_chemical_formula_structural       Fe2RhS6
_chemical_formula_sum              "Fe2 Rh1 S6"
_cell_length_a       6.081130434070272
_cell_length_b       6.081130714061308
_cell_length_c       6.081131180882572
_cell_angle_alpha    59.9999978398801
_cell_angle_beta     59.99999594180301
_cell_angle_gamma    59.99999915037173

_space_group_name_H-M_alt    "P 1"
_space_group_IT_number       1

loop_
  _space_group_symop_operation_xyz
  'x, y, z'

loop_
  _atom_site_type_symbol
  _atom_site_label
  _atom_site_symmetry_multiplicity
  _atom_site_fract_x
  _atom_site_fract_y
  _atom_site_fract_z
  _atom_site_occupancy
  Fe  Fe1       1.0  0.2499997169309208  0.2500001469929142  0.24999985820299034  1.0000
  Fe  Fe2       1.0  0.7499998276074709  0.7499999656727424  0.7499999244286809  1.0000
  Rh  Rh1       1.0  0.9999999966433192  1.0070042525426853e-08  1.802092083465887e-08  1.0000
  S   S1        1.0  0.26517255407701695  0.26517248473014643  0.7348274433979811  1.0000
  S   S2        1.0  0.7348275778336686  0.7348274950109521  0.26517244418486313  1.0000
  S   S3        1.0  0.7348276320516663  0.2651724200494154  0.2651726016004067  1.0000
  S   S4        1.0  0.2651728081237183  0.7348273925289807  0.7348275492509108  1.0000
  S   S5        1.0  0.2651724181885664  0.7348275596940167  0.2651726433295515  1.0000
  S   S6        1.0  0.7348274675822705  0.2651725489436259  0.7348275561173033  1.0000
