data_image0
_chemical_formula_structural       Fe2RuO6
_chemical_formula_sum              "Fe2 Ru1 O6"
_cell_length_a       5.2611226959883775
_cell_length_b       5.2611231048611895
_cell_length_c       5.261122601603181
_cell_angle_alpha    60.00000131975261
_cell_angle_beta     60.000001231991455
_cell_angle_gamma    59.99999918373873

_space_group_name_H-M_alt    "P 1"
_space_group_IT_number       1

loop_
  _space_group_symop_operation_xyz
  'x, y, z'

loop_
  _atom_site_type_symbol
  _atom_site_label
  _atom_site_symmetry_multiplicity
  _atom_site_fract_x
  _atom_site_fract_y
  _atom_site_fract_z
  _atom_site_occupancy
  Fe  Fe1       1.0  0.2500000848608696  0.2500000149577024  0.2499999590642048  1.0000
  Fe  Fe2       1.0  0.7500000624385493  0.7500001077268291  0.7499997631686889  1.0000
  Ru  Ru1       1.0  5.163246960409007e-08  1.6295405226243617e-08  0.9999999489294474  1.0000
  O   O1        1.0  0.249095589836297  0.24909542202919632  0.7509045047973631  1.0000
  O   O2        1.0  0.7509043845434624  0.7509045609804235  0.24909555050117468  1.0000
  O   O3        1.0  0.75090450623186  0.24909533418231908  0.24909558074075078  1.0000
  O   O4        1.0  0.24909548408958535  0.7509045417431998  0.7509045277319362  1.0000
  O   O5        1.0  0.24909536649030817  0.7509044766256089  0.24909560038483614  1.0000
  O   O6        1.0  0.7509044973973369  0.2490954691373696  0.7509045839043952  1.0000
