data_image0
_chemical_formula_structural       Fe2RhSe6
_chemical_formula_sum              "Fe2 Rh1 Se6"
_cell_length_a       6.299019653254657
_cell_length_b       6.299019186043065
_cell_length_c       6.299019745998816
_cell_angle_alpha    59.99999745415899
_cell_angle_beta     59.999999008995246
_cell_angle_gamma    59.99999854822552

_space_group_name_H-M_alt    "P 1"
_space_group_IT_number       1

loop_
  _space_group_symop_operation_xyz
  'x, y, z'

loop_
  _atom_site_type_symbol
  _atom_site_label
  _atom_site_symmetry_multiplicity
  _atom_site_fract_x
  _atom_site_fract_y
  _atom_site_fract_z
  _atom_site_occupancy
  Fe  Fe1       1.0  0.24999989851907986  0.25000002108992286  0.250000001411942  1.0000
  Fe  Fe2       1.0  0.749999990988741  0.7500001118783306  0.750000078285827  1.0000
  Rh  Rh1       1.0  0.9999999568941528  0.9999999533357855  5.282277384860361e-08  1.0000
  Se  Se1       1.0  0.28061720266239876  0.2806173739983689  0.7193826596842445  1.0000
  Se  Se2       1.0  0.7193827558949125  0.7193826948065898  0.28061716356264954  1.0000
  Se  Se3       1.0  0.7193827662006284  0.2806172425287244  0.2806173958489211  1.0000
  Se  Se4       1.0  0.28061737285943056  0.7193826532297787  0.7193826983157342  1.0000
  Se  Se5       1.0  0.28061742292306346  0.7193826582078554  0.2806172578501776  1.0000
  Se  Se6       1.0  0.7193826285527567  0.2806172803261749  0.7193827126643623  1.0000
