data_image0
_chemical_formula_structural       Fe2RuSe6
_chemical_formula_sum              "Fe2 Ru1 Se6"
_cell_length_a       6.2580138172991955
_cell_length_b       6.258014180229209
_cell_length_c       6.258013942490388
_cell_angle_alpha    59.99999986233811
_cell_angle_beta     59.99999653757099
_cell_angle_gamma    60.00000687466146

_space_group_name_H-M_alt    "P 1"
_space_group_IT_number       1

loop_
  _space_group_symop_operation_xyz
  'x, y, z'

loop_
  _atom_site_type_symbol
  _atom_site_label
  _atom_site_symmetry_multiplicity
  _atom_site_fract_x
  _atom_site_fract_y
  _atom_site_fract_z
  _atom_site_occupancy
  Fe  Fe1       1.0  0.2500000604264242  0.24999942300745542  0.2500004371184099  1.0000
  Fe  Fe2       1.0  0.7499999890371235  0.7499999971259554  0.7499999617703105  1.0000
  Ru  Ru1       1.0  0.9999999482972607  6.654079184005932e-08  0.9999999558280998  1.0000
  Se  Se1       1.0  0.2780930809089471  0.2780929796131109  0.7219070084629414  1.0000
  Se  Se2       1.0  0.7219069040922085  0.7219071763832102  0.2780930099828839  1.0000
  Se  Se3       1.0  0.7219069695702403  0.278093054882317  0.2780929931244403  1.0000
  Se  Se4       1.0  0.2780930020479302  0.721907157869389  0.7219067319835049  1.0000
  Se  Se5       1.0  0.2780929778309284  0.7219070466769268  0.27809308410314154  1.0000
  Se  Se6       1.0  0.7219070726268687  0.27809309561982415  0.7219068221747897  1.0000
