data_image0
_chemical_formula_structural       Fe2RuS6
_chemical_formula_sum              "Fe2 Ru1 S6"
_cell_length_a       6.009607601161503
_cell_length_b       6.00960827313058
_cell_length_c       6.009608304463231
_cell_angle_alpha    59.99999727948337
_cell_angle_beta     59.99999741637735
_cell_angle_gamma    59.999998136460654

_space_group_name_H-M_alt    "P 1"
_space_group_IT_number       1

loop_
  _space_group_symop_operation_xyz
  'x, y, z'

loop_
  _atom_site_type_symbol
  _atom_site_label
  _atom_site_symmetry_multiplicity
  _atom_site_fract_x
  _atom_site_fract_y
  _atom_site_fract_z
  _atom_site_occupancy
  Fe  Fe1       1.0  0.24999995781645126  0.24999995396984562  0.2500001079142926  1.0000
  Fe  Fe2       1.0  0.7500001148129157  0.749999766124575  0.7500000845533863  1.0000
  Ru  Ru1       1.0  0.9999999486511773  0.9999996698475792  1.5747058845727607e-07  1.0000
  S   S1        1.0  0.2661034286599977  0.26610345133099583  0.7338965001510693  1.0000
  S   S2        1.0  0.7338966547117448  0.7338968475491617  0.2661031662562698  1.0000
  S   S3        1.0  0.7338966659297391  0.2661033389815502  0.26610341208910154  1.0000
  S   S4        1.0  0.26610338864406957  0.7338967234931608  0.7338966331922221  1.0000
  S   S5        1.0  0.26610334526646223  0.7338968411806082  0.26610325784051014  1.0000
  S   S6        1.0  0.7338964996355652  0.26610343528179403  0.7338966438426856  1.0000
