data_image0
_chemical_formula_structural       Fe2RhO6
_chemical_formula_sum              "Fe2 Rh1 O6"
_cell_length_a       5.226737864473512
_cell_length_b       5.226737494526908
_cell_length_c       5.226738018081945
_cell_angle_alpha    59.9999987175875
_cell_angle_beta     59.999997700566794
_cell_angle_gamma    59.99999778107415

_space_group_name_H-M_alt    "P 1"
_space_group_IT_number       1

loop_
  _space_group_symop_operation_xyz
  'x, y, z'

loop_
  _atom_site_type_symbol
  _atom_site_label
  _atom_site_symmetry_multiplicity
  _atom_site_fract_x
  _atom_site_fract_y
  _atom_site_fract_z
  _atom_site_occupancy
  Fe  Fe1       1.0  0.2500001561926915  0.24999947700966382  0.25000003759278155  1.0000
  Fe  Fe2       1.0  0.7500004971322912  0.7500002938969844  0.74999956310778  1.0000
  Rh  Rh1       1.0  2.0664041215546637e-08  0.9999999976567716  5.397648654334277e-08  1.0000
  O   O1        1.0  0.25730257842308757  0.2573025802483859  0.7426974702309611  1.0000
  O   O2        1.0  0.7426972640037565  0.7426973898328318  0.2573026276553151  1.0000
  O   O3        1.0  0.7426976104738611  0.2573023811671416  0.2573027000506734  1.0000
  O   O4        1.0  0.2573023516068273  0.742697647494829  0.7426972551476066  1.0000
  O   O5        1.0  0.25730236578289606  0.742697584676119  0.2573027253085448  1.0000
  O   O6        1.0  0.7426971587805615  0.25730260332550997  0.742697621526101  1.0000
