data_image0
_chemical_formula_structural       Fe2SbTe6
_chemical_formula_sum              "Fe2 Sb1 Te6"
_cell_length_a       7.359622927103913
_cell_length_b       7.359622770562522
_cell_length_c       7.359622887221768
_cell_angle_alpha    59.999999042705895
_cell_angle_beta     60.000000525379285
_cell_angle_gamma    60.00000040974628

_space_group_name_H-M_alt    "P 1"
_space_group_IT_number       1

loop_
  _space_group_symop_operation_xyz
  'x, y, z'

loop_
  _atom_site_type_symbol
  _atom_site_label
  _atom_site_symmetry_multiplicity
  _atom_site_fract_x
  _atom_site_fract_y
  _atom_site_fract_z
  _atom_site_occupancy
  Fe  Fe1       1.0  0.2499999782059849  0.24999998975413165  0.25000006835711425  1.0000
  Fe  Fe2       1.0  0.7499999929851101  0.7500000624542837  0.7500000015678848  1.0000
  Sb  Sb1       1.0  6.218763568858298e-08  2.995453618803492e-08  0.999999918601017  1.0000
  Te  Te1       1.0  0.28062019259086785  0.2806201918521286  0.7193797794377973  1.0000
  Te  Te2       1.0  0.7193796738004213  0.7193796240482866  0.28062030750062955  1.0000
  Te  Te3       1.0  0.719379762439675  0.2806202754993137  0.2806202906752387  1.0000
  Te  Te4       1.0  0.280620264568014  0.7193798116560604  0.7193796835936691  1.0000
  Te  Te5       1.0  0.28062026334959356  0.7193797777721969  0.280620244378817  1.0000
  Te  Te6       1.0  0.7193798056884959  0.28062024448168515  0.7193797100740357  1.0000
