data_image0
_chemical_formula_structural       Fe2SbS6
_chemical_formula_sum              "Fe2 Sb1 S6"
_cell_length_a       6.413535568576819
_cell_length_b       6.413535688222852
_cell_length_c       6.4135355175853554
_cell_angle_alpha    59.99999543982112
_cell_angle_beta     59.99999575483099
_cell_angle_gamma    59.999997229683565

_space_group_name_H-M_alt    "P 1"
_space_group_IT_number       1

loop_
  _space_group_symop_operation_xyz
  'x, y, z'

loop_
  _atom_site_type_symbol
  _atom_site_label
  _atom_site_symmetry_multiplicity
  _atom_site_fract_x
  _atom_site_fract_y
  _atom_site_fract_z
  _atom_site_occupancy
  Fe  Fe1       1.0  0.2499998013657709  0.24999979558874968  0.250000298295603  1.0000
  Fe  Fe2       1.0  0.7500003534385475  0.7499995796384485  0.7499990467932823  1.0000
  Sb  Sb1       1.0  2.977077181438848e-08  0.9999999809037475  8.69556174326696e-09  1.0000
  S   S1        1.0  0.2705991985673004  0.27059970977038666  0.729400463494395  1.0000
  S   S2        1.0  0.7294004931874037  0.729400627907844  0.2705999728078252  1.0000
  S   S3        1.0  0.7294005133899341  0.2705992936891499  0.2705996909759434  1.0000
  S   S4        1.0  0.2705995786804557  0.7294006964373084  0.7294004663535313  1.0000
  S   S5        1.0  0.270599196337191  0.7294004476597761  0.2705997427785456  1.0000
  S   S6        1.0  0.7294008462076802  0.2705998422778347  0.7294003174737447  1.0000
