data_image0
_chemical_formula_structural       Fe2SbO6
_chemical_formula_sum              "Fe2 Sb1 O6"
_cell_length_a       5.346503334603103
_cell_length_b       5.3465036752348984
_cell_length_c       5.346503335693879
_cell_angle_alpha    60.000001808989246
_cell_angle_beta     60.000001785355295
_cell_angle_gamma    60.000001861434455

_space_group_name_H-M_alt    "P 1"
_space_group_IT_number       1

loop_
  _space_group_symop_operation_xyz
  'x, y, z'

loop_
  _atom_site_type_symbol
  _atom_site_label
  _atom_site_symmetry_multiplicity
  _atom_site_fract_x
  _atom_site_fract_y
  _atom_site_fract_z
  _atom_site_occupancy
  Fe  Fe1       1.0  0.24999980913587178  0.2500001771752659  0.2499999165626854  1.0000
  Fe  Fe2       1.0  0.7500000801368101  0.7499999015723643  0.7500000656169178  1.0000
  Sb  Sb1       1.0  3.5581283021482443e-08  0.9999999839648219  0.9999999677823721  1.0000
  O   O1        1.0  0.2588279782407491  0.2588278377507112  0.741172112577826  1.0000
  O   O2        1.0  0.7411721459223508  0.7411720417025598  0.25882796589701235  1.0000
  O   O3        1.0  0.7411721622807405  0.25882798692326536  0.2588278313926497  1.0000
  O   O4        1.0  0.25882779946460327  0.7411719910318161  0.7411721724284236  1.0000
  O   O5        1.0  0.25882797966890697  0.7411720462900874  0.2588278218256718  1.0000
  O   O6        1.0  0.7411720437915478  0.2588279797705286  0.7411720765847833  1.0000
