data_image0
_chemical_formula_structural       Fe2TaTe6
_chemical_formula_sum              "Fe2 Ta1 Te6"
_cell_length_a       7.278085963194068
_cell_length_b       7.278085854435403
_cell_length_c       7.278086055701378
_cell_angle_alpha    60.00000033442396
_cell_angle_beta     59.99999975899223
_cell_angle_gamma    59.99999873586967

_space_group_name_H-M_alt    "P 1"
_space_group_IT_number       1

loop_
  _space_group_symop_operation_xyz
  'x, y, z'

loop_
  _atom_site_type_symbol
  _atom_site_label
  _atom_site_symmetry_multiplicity
  _atom_site_fract_x
  _atom_site_fract_y
  _atom_site_fract_z
  _atom_site_occupancy
  Fe  Fe1       1.0  0.25000007310381067  0.2499999461421602  0.2500000016155047  1.0000
  Fe  Fe2       1.0  0.7499999880415829  0.750000013436053  0.7500000494645048  1.0000
  Ta  Ta1       1.0  3.163464498924896e-08  5.048352302360777e-09  0.9999999637966627  1.0000
  Te  Te1       1.0  0.26668733036230036  0.26668731364510206  0.733312659482548  1.0000
  Te  Te2       1.0  0.7333126025287041  0.733312688002719  0.2666873055350179  1.0000
  Te  Te3       1.0  0.7333126433797176  0.266687358296828  0.2666873058048397  1.0000
  Te  Te4       1.0  0.2666872385795797  0.7333127628286814  0.7333126977610798  1.0000
  Te  Te5       1.0  0.26668735057218945  0.7333126623011731  0.26668731359684655  1.0000
  Te  Te6       1.0  0.7333127435386984  0.2666872602557841  0.733312696917428  1.0000
