data_image0
_chemical_formula_structural       Fe2TaO6
_chemical_formula_sum              "Fe2 Ta1 O6"
_cell_length_a       5.300398849579681
_cell_length_b       5.300399242085466
_cell_length_c       5.3003991238281225
_cell_angle_alpha    59.999998545379825
_cell_angle_beta     59.99999925604047
_cell_angle_gamma    59.999999860754826

_space_group_name_H-M_alt    "P 1"
_space_group_IT_number       1

loop_
  _space_group_symop_operation_xyz
  'x, y, z'

loop_
  _atom_site_type_symbol
  _atom_site_label
  _atom_site_symmetry_multiplicity
  _atom_site_fract_x
  _atom_site_fract_y
  _atom_site_fract_z
  _atom_site_occupancy
  Fe  Fe1       1.0  0.24999991381880163  0.250000001442388  0.2500000396937282  1.0000
  Fe  Fe2       1.0  0.7500000179278148  0.7500001291030889  0.7499999807169796  1.0000
  Ta  Ta1       1.0  0.9999999669258082  2.079598765696962e-08  2.689225562039129e-08  1.0000
  O   O1        1.0  0.25992584775335875  0.2599257135103317  0.7400742464258745  1.0000
  O   O2        1.0  0.7400741802256358  0.7400742067646007  0.25992576497115755  1.0000
  O   O3        1.0  0.7400742676608877  0.25992573373925576  0.2599257976701215  1.0000
  O   O4        1.0  0.25992582232841244  0.7400742096423283  0.7400742126747403  1.0000
  O   O5        1.0  0.25992571810826576  0.7400742533714367  0.2599257860693455  1.0000
  O   O6        1.0  0.7400742234549522  0.2599257431554522  0.7400742360695457  1.0000
