data_image0
_chemical_formula_structural       Ga2AsSe6
_chemical_formula_sum              "Ga2 As1 Se6"
_cell_length_a       6.510792664842137
_cell_length_b       6.5107929280738555
_cell_length_c       6.510792815179538
_cell_angle_alpha    60.00000007912734
_cell_angle_beta     60.000000921324364
_cell_angle_gamma    60.000000533492674

_space_group_name_H-M_alt    "P 1"
_space_group_IT_number       1

loop_
  _space_group_symop_operation_xyz
  'x, y, z'

loop_
  _atom_site_type_symbol
  _atom_site_label
  _atom_site_symmetry_multiplicity
  _atom_site_fract_x
  _atom_site_fract_y
  _atom_site_fract_z
  _atom_site_occupancy
  Ga  Ga1       1.0  0.2500000012003743  0.24999997879737282  0.2500000187646228  1.0000
  Ga  Ga2       1.0  0.7500000108734423  0.749999989062901  0.7500000800792115  1.0000
  As  As1       1.0  3.57561817801736e-08  4.70274847010937e-08  0.9999999724313684  1.0000
  Se  Se1       1.0  0.2927838480346486  0.29278387234713876  0.7072161431841442  1.0000
  Se  Se2       1.0  0.707216188186006  0.7072161933303046  0.2927838255616795  1.0000
  Se  Se3       1.0  0.707216223533357  0.29278376041965254  0.2927837915104592  1.0000
  Se  Se4       1.0  0.29278385151114167  0.7072160983368581  0.7072161476264767  1.0000
  Se  Se5       1.0  0.29278377087391905  0.7072162180459608  0.29278380831081363  1.0000
  Se  Se6       1.0  0.7072160718181537  0.29278385891808034  0.7072161931913719  1.0000
