data_image0
_chemical_formula_structural       Ga2AsN6
_chemical_formula_sum              "Ga2 As1 N6"
_cell_length_a       5.067854522699274
_cell_length_b       5.06785638529774
_cell_length_c       5.067859463865857
_cell_angle_alpha    60.00005223503323
_cell_angle_beta     60.00003978611224
_cell_angle_gamma    60.00000424881701

_space_group_name_H-M_alt    "P 1"
_space_group_IT_number       1

loop_
  _space_group_symop_operation_xyz
  'x, y, z'

loop_
  _atom_site_type_symbol
  _atom_site_label
  _atom_site_symmetry_multiplicity
  _atom_site_fract_x
  _atom_site_fract_y
  _atom_site_fract_z
  _atom_site_occupancy
  Ga  Ga1       1.0  0.2500014346059457  0.2500000487774631  0.24999816522649776  1.0000
  Ga  Ga2       1.0  0.7499973810082053  0.7499994309986625  0.7500058129817744  1.0000
  As  As1       1.0  0.9999944387954771  8.869314691941092e-07  9.05200053513614e-06  1.0000
  N   N1        1.0  0.2979390753802081  0.29793654512921364  0.7020738837445448  1.0000
  N   N2        1.0  0.7020652861695432  0.7020736454212817  0.2979253600554564  1.0000
  N   N3        1.0  0.702071001441612  0.29793208789749903  0.2979233210998402  1.0000
  N   N4        1.0  0.2979433315487872  0.7020488171753748  0.7020642136854361  1.0000
  N   N5        1.0  0.2979383378268747  0.7020709840482688  0.29792670353662376  1.0000
  N   N6        1.0  0.7020497347596953  0.29793753898738073  0.7020734598634617  1.0000
