data_image0
_chemical_formula_structural       Ga2AsO6
_chemical_formula_sum              "Ga2 As1 O6"
_cell_length_a       5.036906349680238
_cell_length_b       5.0369063632665805
_cell_length_c       5.036906211955312
_cell_angle_alpha    60.000000447480275
_cell_angle_beta     59.99999980771129
_cell_angle_gamma    59.99999964220057

_space_group_name_H-M_alt    "P 1"
_space_group_IT_number       1

loop_
  _space_group_symop_operation_xyz
  'x, y, z'

loop_
  _atom_site_type_symbol
  _atom_site_label
  _atom_site_symmetry_multiplicity
  _atom_site_fract_x
  _atom_site_fract_y
  _atom_site_fract_z
  _atom_site_occupancy
  Ga  Ga1       1.0  0.2499999209536703  0.24999998525175457  0.2500000505475732  1.0000
  Ga  Ga2       1.0  0.7500001244926863  0.7500000262699744  0.75000039219903  1.0000
  As  As1       1.0  6.345049401795939e-09  0.9999999878422906  1.4818404076480344e-08  1.0000
  O   O1        1.0  0.25356514626035537  0.25356548776934784  0.7464346595948972  1.0000
  O   O2        1.0  0.746434866050374  0.7464344581007526  0.2535651039234693  1.0000
  O   O3        1.0  0.7464345963140375  0.2535653439251661  0.25356525302351135  1.0000
  O   O4        1.0  0.25356536437806154  0.7464347843105741  0.7464345483593253  1.0000
  O   O5        1.0  0.25356534684213217  0.746434770730692  0.25356526368932686  1.0000
  O   O6        1.0  0.7464346074851514  0.25356517027632475  0.7464347178747989  1.0000
