data_image0
_chemical_formula_structural       Ga2BeO6
_chemical_formula_sum              "Ga2 Be1 O6"
_cell_length_a       4.952491768141993
_cell_length_b       4.952491511606399
_cell_length_c       4.95249116831923
_cell_angle_alpha    59.999999142157456
_cell_angle_beta     59.999998656548115
_cell_angle_gamma    59.99999731572638

_space_group_name_H-M_alt    "P 1"
_space_group_IT_number       1

loop_
  _space_group_symop_operation_xyz
  'x, y, z'

loop_
  _atom_site_type_symbol
  _atom_site_label
  _atom_site_symmetry_multiplicity
  _atom_site_fract_x
  _atom_site_fract_y
  _atom_site_fract_z
  _atom_site_occupancy
  Ga  Ga1       1.0  0.2500009848620899  0.2500004891007465  0.2499994137100189  1.0000
  Ga  Ga2       1.0  0.7499995129209454  0.750000544877966  0.7500024443800346  1.0000
  Be  Be1       1.0  9.323791804964296e-08  4.20407828167809e-08  9.089706410568109e-09  1.0000
  O   O1        1.0  0.2364922273922264  0.23649106097614114  0.7635083409619866  1.0000
  O   O2        1.0  0.7635081271325195  0.7635084372774763  0.2364905928574107  1.0000
  O   O3        1.0  0.7635079675812966  0.23649222282012694  0.23649097469944838  1.0000
  O   O4        1.0  0.23649083041812477  0.7635080000188047  0.7635087102748479  1.0000
  O   O5        1.0  0.23649201884456664  0.763508045283551  0.23649105063338738  1.0000
  O   O6        1.0  0.7635083291382267  0.23649114384663772  0.7635085518727236  1.0000
