data_image0
_chemical_formula_structural       Ga2BeTe6
_chemical_formula_sum              "Ga2 Be1 Te6"
_cell_length_a       7.101886386255229
_cell_length_b       7.101885598930059
_cell_length_c       7.101885874083996
_cell_angle_alpha    60.000004217540706
_cell_angle_beta     60.00000365396654
_cell_angle_gamma    60.00000130325313

_space_group_name_H-M_alt    "P 1"
_space_group_IT_number       1

loop_
  _space_group_symop_operation_xyz
  'x, y, z'

loop_
  _atom_site_type_symbol
  _atom_site_label
  _atom_site_symmetry_multiplicity
  _atom_site_fract_x
  _atom_site_fract_y
  _atom_site_fract_z
  _atom_site_occupancy
  Ga  Ga1       1.0  0.24999999160432412  0.24999968466450437  0.2500001680280574  1.0000
  Ga  Ga2       1.0  0.7500000047014651  0.7500001301031819  0.7499999482689831  1.0000
  Be  Be1       1.0  1.1886861682052775e-07  1.8969881126224845e-07  0.9999996866036283  1.0000
  Te  Te1       1.0  0.23188332083275412  0.23188311907732664  0.7681168363881217  1.0000
  Te  Te2       1.0  0.7681163900826399  0.7681168543475582  0.23188343057627606  1.0000
  Te  Te3       1.0  0.7681167460283218  0.23188311826747007  0.23188334123700835  1.0000
  Te  Te4       1.0  0.2318833246379106  0.7681169465577516  0.7681166072187471  1.0000
  Te  Te5       1.0  0.23188331309389038  0.7681168484421234  0.2318832421485048  1.0000
  Te  Te6       1.0  0.7681167919644083  0.23188311808461984  0.7681167509331435  1.0000
