data_image0
_chemical_formula_structural       Ga2BTe6
_chemical_formula_sum              "Ga2 B1 Te6"
_cell_length_a       7.181713481534554
_cell_length_b       7.181713462340234
_cell_length_c       7.1817133474211285
_cell_angle_alpha    60.0000002435634
_cell_angle_beta     60.000001917757245
_cell_angle_gamma    60.00000062076864

_space_group_name_H-M_alt    "P 1"
_space_group_IT_number       1

loop_
  _space_group_symop_operation_xyz
  'x, y, z'

loop_
  _atom_site_type_symbol
  _atom_site_label
  _atom_site_symmetry_multiplicity
  _atom_site_fract_x
  _atom_site_fract_y
  _atom_site_fract_z
  _atom_site_occupancy
  Ga  Ga1       1.0  0.24999997561084658  0.24999998068816306  0.2500000371743791  1.0000
  Ga  Ga2       1.0  0.7500000717159547  0.7499999608235133  0.7500000589428523  1.0000
  B   B1        1.0  0.9999999855433522  1.398399982582179e-07  0.9999998579400772  1.0000
  Te  Te1       1.0  0.22691219037333907  0.22691220364640446  0.7730878343294761  1.0000
  Te  Te2       1.0  0.7730876735460873  0.7730877719725886  0.2269122640316622  1.0000
  Te  Te3       1.0  0.773087778417782  0.22691223965879084  0.22691211464091532  1.0000
  Te  Te4       1.0  0.2269122591477445  0.7730877359602039  0.7730877325909778  1.0000
  Te  Te5       1.0  0.2269122460252261  0.7730878069218693  0.22691221458584812  1.0000
  Te  Te6       1.0  0.7730878234211295  0.22691215505419676  0.773087888087919  1.0000
