data_image0
_chemical_formula_structural       Ga2BSe6
_chemical_formula_sum              "Ga2 B1 Se6"
_cell_length_a       6.433422206895913
_cell_length_b       6.433422113148764
_cell_length_c       6.433422256682531
_cell_angle_alpha    59.999998991930774
_cell_angle_beta     60.00000013262526
_cell_angle_gamma    59.99999884144355

_space_group_name_H-M_alt    "P 1"
_space_group_IT_number       1

loop_
  _space_group_symop_operation_xyz
  'x, y, z'

loop_
  _atom_site_type_symbol
  _atom_site_label
  _atom_site_symmetry_multiplicity
  _atom_site_fract_x
  _atom_site_fract_y
  _atom_site_fract_z
  _atom_site_occupancy
  Ga  Ga1       1.0  0.24999995930848043  0.249999971755511  0.2500000769182122  1.0000
  Ga  Ga2       1.0  0.7500000746866213  0.7499999818968117  0.7499999762626777  1.0000
  B   B1        1.0  6.042756829325327e-08  0.9999999371771652  0.9999999840994244  1.0000
  Se  Se1       1.0  0.2306710788138507  0.23067116334465587  0.7693288718712179  1.0000
  Se  Se2       1.0  0.7693287779237418  0.7693289559315045  0.23067115914761888  1.0000
  Se  Se3       1.0  0.7693288993604861  0.2306710705259915  0.23067115460851753  1.0000
  Se  Se4       1.0  0.23067113380096965  0.7693288640891094  0.7693287592870709  1.0000
  Se  Se5       1.0  0.23067105639986563  0.7693289445816983  0.2306711799023476  1.0000
  Se  Se6       1.0  0.769328951033319  0.23067111567907123  0.7693288270377463  1.0000
