data_image0
_chemical_formula_structural       Ga2BeSe6
_chemical_formula_sum              "Ga2 Be1 Se6"
_cell_length_a       6.570635920891339
_cell_length_b       6.2123592011483835
_cell_length_c       6.207924770633484
_cell_angle_alpha    79.27733615098153
_cell_angle_beta     50.54263428786681
_cell_angle_gamma    60.12880601490971

_space_group_name_H-M_alt    "P 1"
_space_group_IT_number       1

loop_
  _space_group_symop_operation_xyz
  'x, y, z'

loop_
  _atom_site_type_symbol
  _atom_site_label
  _atom_site_symmetry_multiplicity
  _atom_site_fract_x
  _atom_site_fract_y
  _atom_site_fract_z
  _atom_site_occupancy
  Ga  Ga1       1.0  0.803231730322419  0.751756409657342  0.22881692169894352  1.0000
  Ga  Ga2       1.0  0.012216469793552509  0.2920409941374578  0.01685634279478165  1.0000
  Be  Be1       1.0  0.9182454915016889  0.46090503567760077  0.07005140028795598  1.0000
  Se  Se1       1.0  0.9548082731504101  0.05916269972067838  0.7779953221213021  1.0000
  Se  Se2       1.0  0.8212626524083121  0.4046094436154077  0.11383285707302766  1.0000
  Se  Se3       1.0  0.45470801738889033  0.018823009815415195  0.17125204941537786  1.0000
  Se  Se4       1.0  0.8791034566321935  0.5039916232462811  0.9872671500685221  1.0000
  Se  Se5       1.0  0.5521746194887874  0.1500780434145992  0.07335031312521169  1.0000
  Se  Se6       1.0  0.9058218798872107  0.45164251869395466  0.09497845899929347  1.0000
