data_image0
_chemical_formula_structural       Ga2BO6
_chemical_formula_sum              "Ga2 B1 O6"
_cell_length_a       4.784443846513798
_cell_length_b       4.784443412851035
_cell_length_c       4.784443976857377
_cell_angle_alpha    60.000004438943414
_cell_angle_beta     60.00000272020395
_cell_angle_gamma    60.00000472985571

_space_group_name_H-M_alt    "P 1"
_space_group_IT_number       1

loop_
  _space_group_symop_operation_xyz
  'x, y, z'

loop_
  _atom_site_type_symbol
  _atom_site_label
  _atom_site_symmetry_multiplicity
  _atom_site_fract_x
  _atom_site_fract_y
  _atom_site_fract_z
  _atom_site_occupancy
  Ga  Ga1       1.0  0.2500008827920005  0.24999957694972624  0.25000100322624663  1.0000
  Ga  Ga2       1.0  0.7500002926615738  0.750001272777968  0.7500001492699447  1.0000
  B   B1        1.0  0.9999998990492798  2.0478780792111953e-08  4.6506289313970645e-08  1.0000
  O   O1        1.0  0.22511260953564194  0.22511151167529003  0.7748876656934434  1.0000
  O   O2        1.0  0.7748870806148889  0.7748884216265224  0.22511193917636554  1.0000
  O   O3        1.0  0.7748875788483812  0.22511235636596647  0.22511166837830443  1.0000
  O   O4        1.0  0.2251114807062311  0.7748877817236454  0.774887917393679  1.0000
  O   O5        1.0  0.22511166239908315  0.7748872995442005  0.2251123543621662  1.0000
  O   O6        1.0  0.7748884021415551  0.22511185812364942  0.7748872024067947  1.0000
