data_image0
_chemical_formula_structural       Ga2BeS6
_chemical_formula_sum              "Ga2 Be1 S6"
_cell_length_a       5.415962141518677
_cell_length_b       5.4159579293006574
_cell_length_c       5.415962937843368
_cell_angle_alpha    60.00001476375834
_cell_angle_beta     60.00003414329902
_cell_angle_gamma    59.999988809397706

_space_group_name_H-M_alt    "P 1"
_space_group_IT_number       1

loop_
  _space_group_symop_operation_xyz
  'x, y, z'

loop_
  _atom_site_type_symbol
  _atom_site_label
  _atom_site_symmetry_multiplicity
  _atom_site_fract_x
  _atom_site_fract_y
  _atom_site_fract_z
  _atom_site_occupancy
  Ga  Ga1       1.0  0.24999728943245017  0.24999994408709125  0.25000134895882065  1.0000
  Ga  Ga2       1.0  0.7500004748889818  0.7500016436119431  0.7499980661158911  1.0000
  Be  Be1       1.0  2.0220585631869366e-06  0.9999982383982692  1.507522812893089e-06  1.0000
  S   S1        1.0  0.25812519586232113  0.25812372609519985  0.7418747586374009  1.0000
  S   S2        1.0  0.7418754865094465  0.7418760344210977  0.2581220615067075  1.0000
  S   S3        1.0  0.7418743130413349  0.25812417187236514  0.25812364553043426  1.0000
  S   S4        1.0  0.25812411977252997  0.7418747451564103  0.7418767023159044  1.0000
  S   S5        1.0  0.25812583952608625  0.741875603440877  0.258124455237493  1.0000
  S   S6        1.0  0.7418753389143936  0.25812579656606327  0.7418774566971228  1.0000
