data_image0
_chemical_formula_structural       Ga2CN6
_chemical_formula_sum              "Ga2 C1 N6"
_cell_length_a       4.754670446306651
_cell_length_b       4.754670475705976
_cell_length_c       4.754669904332427
_cell_angle_alpha    60.00000348423209
_cell_angle_beta     60.000004331337415
_cell_angle_gamma    59.999997562636395

_space_group_name_H-M_alt    "P 1"
_space_group_IT_number       1

loop_
  _space_group_symop_operation_xyz
  'x, y, z'

loop_
  _atom_site_type_symbol
  _atom_site_label
  _atom_site_symmetry_multiplicity
  _atom_site_fract_x
  _atom_site_fract_y
  _atom_site_fract_z
  _atom_site_occupancy
  Ga  Ga1       1.0  0.24999994039672474  0.25000010506482184  0.25000001900915153  1.0000
  Ga  Ga2       1.0  0.7500000654226399  0.7500001580659283  0.749999771608018  1.0000
  C   C1        1.0  0.9999999551073719  6.182106099539271e-08  7.566360019773418e-08  1.0000
  N   N1        1.0  0.23430063318826877  0.2343004097508938  0.7656996291726451  1.0000
  N   N2        1.0  0.7656996676741695  0.7656992815350382  0.2343009244944417  1.0000
  N   N3        1.0  0.7656995457560472  0.2343006109035135  0.2343001531354651  1.0000
  N   N4        1.0  0.2343005760493023  0.7656994281258945  0.765699226733195  1.0000
  N   N5        1.0  0.23430022192269256  0.7656995197893246  0.23430061718200992  1.0000
  N   N6        1.0  0.7656994842579654  0.23430036726333378  0.7656994208561555  1.0000
