data_image0
_chemical_formula_structural       Ga2CuSe6
_chemical_formula_sum              "Ga2 Cu1 Se6"
_cell_length_a       6.438640046877459
_cell_length_b       6.438639820856123
_cell_length_c       6.438640430105756
_cell_angle_alpha    59.999996758669745
_cell_angle_beta     59.99999559207064
_cell_angle_gamma    59.99999636689457

_space_group_name_H-M_alt    "P 1"
_space_group_IT_number       1

loop_
  _space_group_symop_operation_xyz
  'x, y, z'

loop_
  _atom_site_type_symbol
  _atom_site_label
  _atom_site_symmetry_multiplicity
  _atom_site_fract_x
  _atom_site_fract_y
  _atom_site_fract_z
  _atom_site_occupancy
  Ga  Ga1       1.0  0.24999991135834138  0.2500000572293447  0.2500000442717774  1.0000
  Ga  Ga2       1.0  0.7499998698320897  0.7500000119049479  0.7500000920221611  1.0000
  Cu  Cu1       1.0  2.050749183712146e-08  0.9999999277171756  0.9999999994845764  1.0000
  Se  Se1       1.0  0.28656219036496705  0.28656213992780555  0.7134377314674618  1.0000
  Se  Se2       1.0  0.7134380524327446  0.7134379862718692  0.2865619529028954  1.0000
  Se  Se3       1.0  0.7134379674132307  0.2865619940946902  0.2865618328389617  1.0000
  Se  Se4       1.0  0.28656216412592284  0.7134378848216401  0.7134380183773655  1.0000
  Se  Se5       1.0  0.286561882410082  0.7134379974584049  0.2865620085245937  1.0000
  Se  Se6       1.0  0.7134379604270655  0.28656200509960333  0.7134382979714028  1.0000
