data_image0
_chemical_formula_structural       Ga2CoS6
_chemical_formula_sum              "Ga2 Co1 S6"
_cell_length_a       6.170980985129508
_cell_length_b       6.170981072078851
_cell_length_c       6.170980827854275
_cell_angle_alpha    60.00000109278669
_cell_angle_beta     59.999999067612094
_cell_angle_gamma    60.00000160119193

_space_group_name_H-M_alt    "P 1"
_space_group_IT_number       1

loop_
  _space_group_symop_operation_xyz
  'x, y, z'

loop_
  _atom_site_type_symbol
  _atom_site_label
  _atom_site_symmetry_multiplicity
  _atom_site_fract_x
  _atom_site_fract_y
  _atom_site_fract_z
  _atom_site_occupancy
  Ga  Ga1       1.0  0.2500000784983595  0.24999998097508974  0.2499999447971866  1.0000
  Ga  Ga2       1.0  0.7499999288455168  0.7500001275008946  0.7500000104831754  1.0000
  Co  Co1       1.0  7.155879655160699e-08  0.9999999761837909  1.0158952094802723e-08  1.0000
  S   S1        1.0  0.24660109413566422  0.24660106057892558  0.753398752367968  1.0000
  S   S2        1.0  0.753398849062913  0.7533988137043238  0.2466009971945534  1.0000
  S   S3        1.0  0.7533988997777876  0.2466011325936174  0.24660114555050872  1.0000
  S   S4        1.0  0.24660116818324626  0.75339883893916  0.7533990067006952  1.0000
  S   S5        1.0  0.2466010507841998  0.7533989320470522  0.24660118439449355  1.0000
  S   S6        1.0  0.7533988991596243  0.24660107917940757  0.7533990005365239  1.0000
