data_image0
_chemical_formula_structural       Ga2CS6
_chemical_formula_sum              "Ga2 C1 S6"
_cell_length_a       5.7495464901277655
_cell_length_b       5.749545906794136
_cell_length_c       5.749544579568897
_cell_angle_alpha    60.000000366138224
_cell_angle_beta     59.99999632734477
_cell_angle_gamma    60.0000124864159

_space_group_name_H-M_alt    "P 1"
_space_group_IT_number       1

loop_
  _space_group_symop_operation_xyz
  'x, y, z'

loop_
  _atom_site_type_symbol
  _atom_site_label
  _atom_site_symmetry_multiplicity
  _atom_site_fract_x
  _atom_site_fract_y
  _atom_site_fract_z
  _atom_site_occupancy
  Ga  Ga1       1.0  0.2500000488012753  0.24999983532877687  0.2500000756642509  1.0000
  Ga  Ga2       1.0  0.7500001144897064  0.7499997403038396  0.750000017956421  1.0000
  C   C1        1.0  7.365632175134189e-06  0.9999965022800118  0.9999909124332128  1.0000
  S   S1        1.0  0.23941255260411953  0.23941149314609472  0.7605870156995758  1.0000
  S   S2        1.0  0.7605858269506356  0.7605851854697692  0.23941360076268298  1.0000
  S   S3        1.0  0.760582981561683  0.23941664979036562  0.23941742352828996  1.0000
  S   S4        1.0  0.2394096971860835  0.7605908351218905  0.7605905018399479  1.0000
  S   S5        1.0  0.23941407134923207  0.7605867763295727  0.23941348074699453  1.0000
  S   S6        1.0  0.760587363153839  0.23941290794134507  0.7605869595521771  1.0000
