data_image0
_chemical_formula_structural       Ga2CoO6
_chemical_formula_sum              "Ga2 Co1 O6"
_cell_length_a       5.103106145369455
_cell_length_b       5.103105785131185
_cell_length_c       5.1031058043757875
_cell_angle_alpha    59.9999996896281
_cell_angle_beta     60.000000237233245
_cell_angle_gamma    59.9999982709506

_space_group_name_H-M_alt    "P 1"
_space_group_IT_number       1

loop_
  _space_group_symop_operation_xyz
  'x, y, z'

loop_
  _atom_site_type_symbol
  _atom_site_label
  _atom_site_symmetry_multiplicity
  _atom_site_fract_x
  _atom_site_fract_y
  _atom_site_fract_z
  _atom_site_occupancy
  Ga  Ga1       1.0  0.24999875751776773  0.25000099465321646  0.2500000292658125  1.0000
  Ga  Ga2       1.0  0.7499994595956551  0.7499999191608796  0.7499993310208125  1.0000
  Co  Co1       1.0  3.4215626079243387e-08  0.9999999856000056  0.999999972455865  1.0000
  O   O1        1.0  0.2461443015923655  0.24614376692176027  0.7538561313539917  1.0000
  O   O2        1.0  0.7538563394895085  0.753855692492926  0.24614450777994207  1.0000
  O   O3        1.0  0.753856252591869  0.24614410619706775  0.24614394084013907  1.0000
  O   O4        1.0  0.24614445979559335  0.7538556484174964  0.7538562465770987  1.0000
  O   O5        1.0  0.2461440086245538  0.753855715300248  0.2461441965454433  1.0000
  O   O6        1.0  0.7538564880927203  0.24614411611428322  0.7538555566920315  1.0000
