data_image0
_chemical_formula_structural       Ga2CoTe6
_chemical_formula_sum              "Ga2 Co1 Te6"
_cell_length_a       6.992726775584851
_cell_length_b       6.992726696348516
_cell_length_c       6.992726998484279
_cell_angle_alpha    59.999996144220766
_cell_angle_beta     59.99999500701735
_cell_angle_gamma    60.00000048501681

_space_group_name_H-M_alt    "P 1"
_space_group_IT_number       1

loop_
  _space_group_symop_operation_xyz
  'x, y, z'

loop_
  _atom_site_type_symbol
  _atom_site_label
  _atom_site_symmetry_multiplicity
  _atom_site_fract_x
  _atom_site_fract_y
  _atom_site_fract_z
  _atom_site_occupancy
  Ga  Ga1       1.0  0.25000000223186125  0.2500000134320188  0.24999999455107702  1.0000
  Ga  Ga2       1.0  0.7500000071134371  0.7499999895038492  0.7500000231409817  1.0000
  Co  Co1       1.0  0.9999999057277977  0.9999999211845004  2.667310697338484e-07  1.0000
  Te  Te1       1.0  0.24791376324609962  0.24791382222311223  0.7520861312039957  1.0000
  Te  Te2       1.0  0.7520862973549294  0.7520862350078776  0.24791368069650738  1.0000
  Te  Te3       1.0  0.7520861795403865  0.2479138029887971  0.24791374865431628  1.0000
  Te  Te4       1.0  0.2479138446665053  0.752086199947072  0.7520862215653413  1.0000
  Te  Te5       1.0  0.24791378292596586  0.7520861677800472  0.24791376746707755  1.0000
  Te  Te6       1.0  0.7520862129085293  0.2479138509189202  0.7520861747358555  1.0000
