data_image0
_chemical_formula_structural       Ga2CO6
_chemical_formula_sum              "Ga2 C1 O6"
_cell_length_a       4.75313974741839
_cell_length_b       4.753139395271293
_cell_length_c       4.753139429237155
_cell_angle_alpha    59.999999539667556
_cell_angle_beta     60.000000624155376
_cell_angle_gamma    59.99999906405673

_space_group_name_H-M_alt    "P 1"
_space_group_IT_number       1

loop_
  _space_group_symop_operation_xyz
  'x, y, z'

loop_
  _atom_site_type_symbol
  _atom_site_label
  _atom_site_symmetry_multiplicity
  _atom_site_fract_x
  _atom_site_fract_y
  _atom_site_fract_z
  _atom_site_occupancy
  Ga  Ga1       1.0  0.2499999674736605  0.2500003500108126  0.24999957808205636  1.0000
  Ga  Ga2       1.0  0.749999806957163  0.7500000683069659  0.7499998934832459  1.0000
  C   C1        1.0  0.9999999981348316  1.2883536171115846e-08  0.9999999313746368  1.0000
  O   O1        1.0  0.22475794592329104  0.22475780882334004  0.7752423090541198  1.0000
  O   O2        1.0  0.7752422518618661  0.7752419807778665  0.22475796998963196  1.0000
  O   O3        1.0  0.7752421286284453  0.22475778727122597  0.22475798891718832  1.0000
  O   O4        1.0  0.22475791249986624  0.7752420641709541  0.7752421734324353  1.0000
  O   O5        1.0  0.22475797842216766  0.775242031340048  0.22475789296941837  1.0000
  O   O6        1.0  0.7752420532329325  0.2247578922499358  0.7752422317312915  1.0000
