data_image0
_chemical_formula_structural       Ga2CrN6
_chemical_formula_sum              "Ga2 Cr1 N6"
_cell_length_a       4.855888335116345
_cell_length_b       4.8558878671637755
_cell_length_c       4.85589904379548
_cell_angle_alpha    59.999884322704006
_cell_angle_beta     59.999872922488635
_cell_angle_gamma    59.99982590285374

_space_group_name_H-M_alt    "P 1"
_space_group_IT_number       1

loop_
  _space_group_symop_operation_xyz
  'x, y, z'

loop_
  _atom_site_type_symbol
  _atom_site_label
  _atom_site_symmetry_multiplicity
  _atom_site_fract_x
  _atom_site_fract_y
  _atom_site_fract_z
  _atom_site_occupancy
  Ga  Ga1       1.0  0.2500010990098686  0.2500014249047989  0.2499988016259766  1.0000
  Ga  Ga2       1.0  0.7499992709161466  0.7499998810655584  0.7499995912646479  1.0000
  Cr  Cr1       1.0  0.9999999586440823  0.9999996746376532  1.8747794817326856e-07  1.0000
  N   N1        1.0  0.29088845272885777  0.2908908627705419  0.7091105865528361  1.0000
  N   N2        1.0  0.7091092013191839  0.7091104154566777  0.2908971231251828  1.0000
  N   N3        1.0  0.7090975935855806  0.29089749482234506  0.2908817604809578  1.0000
  N   N4        1.0  0.2908991379287998  0.7091033622026006  0.70911709038963  1.0000
  N   N5        1.0  0.2908996940458153  0.7090981977920024  0.290879397848505  1.0000
  N   N6        1.0  0.7091055015546519  0.2908985329230458  0.7091157004909271  1.0000
