data_image0
_chemical_formula_structural       Ga2CoN6
_chemical_formula_sum              "Ga2 Co1 N6"
_cell_length_a       4.948833641865796
_cell_length_b       4.948833767222771
_cell_length_c       4.948833706390656
_cell_angle_alpha    60.0000004183544
_cell_angle_beta     59.999999646996315
_cell_angle_gamma    60.00000087762663

_space_group_name_H-M_alt    "P 1"
_space_group_IT_number       1

loop_
  _space_group_symop_operation_xyz
  'x, y, z'

loop_
  _atom_site_type_symbol
  _atom_site_label
  _atom_site_symmetry_multiplicity
  _atom_site_fract_x
  _atom_site_fract_y
  _atom_site_fract_z
  _atom_site_occupancy
  Ga  Ga1       1.0  0.2500003145426958  0.2499999680642208  0.2500000198752277  1.0000
  Ga  Ga2       1.0  0.7500001189172908  0.7500000823793478  0.7499996412988674  1.0000
  Co  Co1       1.0  0.9999999853169297  0.9999999950503697  6.841601581536588e-08  1.0000
  N   N1        1.0  0.2539363358419788  0.2539362480517983  0.74606368874845  1.0000
  N   N2        1.0  0.7460635620477621  0.7460638271399195  0.2539365046695957  1.0000
  N   N3        1.0  0.7460636677490153  0.25393627208528835  0.25393631763241625  1.0000
  N   N4        1.0  0.2539362840690761  0.7460635853226997  0.7460636869424507  1.0000
  N   N5        1.0  0.2539362134656016  0.7460636769710259  0.2539364188694258  1.0000
  N   N6        1.0  0.7460635643675078  0.2539363314006835  0.7460636436916682  1.0000
