data_image0
_chemical_formula_structural       Ga2GeO6
_chemical_formula_sum              "Ga2 Ge1 O6"
_cell_length_a       5.088464906279302
_cell_length_b       5.088464759626064
_cell_length_c       5.088464890226061
_cell_angle_alpha    59.9999990292241
_cell_angle_beta     60.00000016972998
_cell_angle_gamma    59.99999852893128

_space_group_name_H-M_alt    "P 1"
_space_group_IT_number       1

loop_
  _space_group_symop_operation_xyz
  'x, y, z'

loop_
  _atom_site_type_symbol
  _atom_site_label
  _atom_site_symmetry_multiplicity
  _atom_site_fract_x
  _atom_site_fract_y
  _atom_site_fract_z
  _atom_site_occupancy
  Ga  Ga1       1.0  0.25000053403847294  0.24999942672231834  0.2500002975707954  1.0000
  Ga  Ga2       1.0  0.74999994721239  0.7500009710862402  0.7499993645764244  1.0000
  Ge  Ge1       1.0  2.3746502342354717e-08  2.406904522042828e-08  0.9999999839531432  1.0000
  O   O1        1.0  0.25866354428727056  0.25866313650539385  0.7413364354128821  1.0000
  O   O2        1.0  0.7413364562797814  0.7413368039913056  0.2586635581661259  1.0000
  O   O3        1.0  0.7413364530673557  0.2586630424959138  0.2586636554124422  1.0000
  O   O4        1.0  0.2586632583452705  0.7413367102622336  0.7413365628564502  1.0000
  O   O5        1.0  0.25866327197482186  0.7413368386136071  0.25866344940919145  1.0000
  O   O6        1.0  0.7413365429502055  0.2586630393035755  0.7413366997242552  1.0000
