data_image0
_chemical_formula_structural       Ga2GeN6
_chemical_formula_sum              "Ga2 Ge1 N6"
_cell_length_a       5.129698702369716
_cell_length_b       5.129700571146151
_cell_length_c       5.129703280018284
_cell_angle_alpha    60.00002358575984
_cell_angle_beta     60.000011996831525
_cell_angle_gamma    59.999980702001274

_space_group_name_H-M_alt    "P 1"
_space_group_IT_number       1

loop_
  _space_group_symop_operation_xyz
  'x, y, z'

loop_
  _atom_site_type_symbol
  _atom_site_label
  _atom_site_symmetry_multiplicity
  _atom_site_fract_x
  _atom_site_fract_y
  _atom_site_fract_z
  _atom_site_occupancy
  Ga  Ga1       1.0  0.2500014734639006  0.2499998807061701  0.24999822543719818  1.0000
  Ga  Ga2       1.0  0.7499990356127988  0.749999582432985  0.7500005897598196  1.0000
  Ge  Ge1       1.0  0.9999996532865439  0.9999994126616291  1.2039103492807929e-06  1.0000
  N   N1        1.0  0.3014497188113549  0.30144485586595027  0.6985557917752808  1.0000
  N   N2        1.0  0.6985523104444528  0.6985574413015254  0.3014412946883924  1.0000
  N   N3        1.0  0.6985513913870859  0.3014488230065263  0.301444689837647  1.0000
  N   N4        1.0  0.3014513754296211  0.6985467842296563  0.698557554222102  1.0000
  N   N5        1.0  0.3014509453948608  0.6985541061112351  0.30144148232591395  1.0000
  N   N6        1.0  0.69854410955493  0.30144913175653065  0.6985591784758478  1.0000
