data_image0
_chemical_formula_structural       Ga2GeS6
_chemical_formula_sum              "Ga2 Ge1 S6"
_cell_length_a       6.613772147177553
_cell_length_b       6.6137715180705525
_cell_length_c       6.613771925081092
_cell_angle_alpha    60.0000007862754
_cell_angle_beta     59.999998672248886
_cell_angle_gamma    59.9999983877001

_space_group_name_H-M_alt    "P 1"
_space_group_IT_number       1

loop_
  _space_group_symop_operation_xyz
  'x, y, z'

loop_
  _atom_site_type_symbol
  _atom_site_label
  _atom_site_symmetry_multiplicity
  _atom_site_fract_x
  _atom_site_fract_y
  _atom_site_fract_z
  _atom_site_occupancy
  Ga  Ga1       1.0  0.2499998873695147  0.25000007462459894  0.2500000722630787  1.0000
  Ga  Ga2       1.0  0.750000004417721  0.7499998516599614  0.7500000034300797  1.0000
  Ge  Ge1       1.0  0.9999999790855034  0.9999999370384599  1.0090588086618347e-07  1.0000
  S   S1        1.0  0.24912004059392243  0.24912005211974536  0.7508799354527839  1.0000
  S   S2        1.0  0.7508800464167437  0.7508798908311055  0.24912004487948644  1.0000
  S   S3        1.0  0.7508800104049603  0.24912006095257305  0.24911992336092484  1.0000
  S   S4        1.0  0.24912005759128886  0.7508800856973883  0.7508800084769023  1.0000
  S   S5        1.0  0.24912002602431318  0.7508799816905517  0.2491199705947084  1.0000
  S   S6        1.0  0.7508799591580954  0.24912005199899037  0.7508799472425066  1.0000
