data_image0
_chemical_formula_structural       Ga2IrO6
_chemical_formula_sum              "Ga2 Ir1 O6"
_cell_length_a       5.519713786423296
_cell_length_b       5.519713920350734
_cell_length_c       5.519714496178061
_cell_angle_alpha    59.999998811793375
_cell_angle_beta     60.000000978660765
_cell_angle_gamma    60.000000424387096

_space_group_name_H-M_alt    "P 1"
_space_group_IT_number       1

loop_
  _space_group_symop_operation_xyz
  'x, y, z'

loop_
  _atom_site_type_symbol
  _atom_site_label
  _atom_site_symmetry_multiplicity
  _atom_site_fract_x
  _atom_site_fract_y
  _atom_site_fract_z
  _atom_site_occupancy
  Ga  Ga1       1.0  0.2499995792640386  0.2500008263789646  0.24999964138683986  1.0000
  Ga  Ga2       1.0  0.7499998862113869  0.7500025922985486  0.7499994673438674  1.0000
  Ir  Ir1       1.0  1.4074523625762322e-08  0.9999999201211938  9.350197687072048e-09  1.0000
  O   O1        1.0  0.23957423897167918  0.23957317477591086  0.760425859901941  1.0000
  O   O2        1.0  0.7604265234033598  0.7604257507187551  0.23957322369799325  1.0000
  O   O3        1.0  0.7604266483479354  0.23957283865966889  0.23957455719844883  1.0000
  O   O4        1.0  0.23957357455974737  0.7604258538551526  0.7604265304623609  1.0000
  O   O5        1.0  0.2395736601495433  0.7604261924965127  0.23957396049555396  1.0000
  O   O6        1.0  0.7604258633626193  0.23957282840894922  0.7604267274924801  1.0000
