data_image0
_chemical_formula_structural       Ga2IrSe6
_chemical_formula_sum              "Ga2 Ir1 Se6"
_cell_length_a       6.654741111165921
_cell_length_b       6.654741146885048
_cell_length_c       6.654741097514462
_cell_angle_alpha    60.00000008573314
_cell_angle_beta     60.00000001612019
_cell_angle_gamma    59.99999909827927

_space_group_name_H-M_alt    "P 1"
_space_group_IT_number       1

loop_
  _space_group_symop_operation_xyz
  'x, y, z'

loop_
  _atom_site_type_symbol
  _atom_site_label
  _atom_site_symmetry_multiplicity
  _atom_site_fract_x
  _atom_site_fract_y
  _atom_site_fract_z
  _atom_site_occupancy
  Ga  Ga1       1.0  0.2500000056723591  0.24999999713364068  0.249999992373546  1.0000
  Ga  Ga2       1.0  0.7499999850294494  0.750000061336483  0.7499999386117266  1.0000
  Ir  Ir1       1.0  0.9999999693806849  0.999999998159591  0.999999990684165  1.0000
  Se  Se1       1.0  0.260997525302826  0.2609975287251207  0.7390024714398142  1.0000
  Se  Se2       1.0  0.7390025146329027  0.7390024653306703  0.2609975332539392  1.0000
  Se  Se3       1.0  0.7390025169698786  0.26099746644420146  0.2609975229629859  1.0000
  Se  Se4       1.0  0.26099749409974904  0.7390024944842191  0.7390025127275034  1.0000
  Se  Se5       1.0  0.26099748928918276  0.7390025044580881  0.26099750388225745  1.0000
  Se  Se6       1.0  0.7390025039026235  0.26099748407647505  0.7390025314521355  1.0000
