data_image0
_chemical_formula_structural       Ga2MgSe6
_chemical_formula_sum              "Ga2 Mg1 Se6"
_cell_length_a       6.643581852680052
_cell_length_b       6.643581883821019
_cell_length_c       6.643581891435967
_cell_angle_alpha    60.00000030462047
_cell_angle_beta     60.00000062112741
_cell_angle_gamma    60.000000591759154

_space_group_name_H-M_alt    "P 1"
_space_group_IT_number       1

loop_
  _space_group_symop_operation_xyz
  'x, y, z'

loop_
  _atom_site_type_symbol
  _atom_site_label
  _atom_site_symmetry_multiplicity
  _atom_site_fract_x
  _atom_site_fract_y
  _atom_site_fract_z
  _atom_site_occupancy
  Ga  Ga1       1.0  0.24999998696308826  0.24999999209259696  0.250000011796801  1.0000
  Ga  Ga2       1.0  0.750000005464565  0.7499999781212917  0.7499999971288814  1.0000
  Mg  Mg1       1.0  2.4649264048982313e-08  0.9999999834084927  0.999999986939849  1.0000
  Se  Se1       1.0  0.293138760693847  0.293138800418293  0.7068611962015903  1.0000
  Se  Se2       1.0  0.7068612263960775  0.7068612066656121  0.2931387653484938  1.0000
  Se  Se3       1.0  0.7068612203365211  0.2931387977763029  0.2931387841489494  1.0000
  Se  Se4       1.0  0.29313879354437433  0.706861201933599  0.7068612279011359  1.0000
  Se  Se5       1.0  0.29313876785957277  0.7068612218783167  0.29313880890367083  1.0000
  Se  Se6       1.0  0.7068612109255541  0.2931388257626065  0.7068612102756969  1.0000
