data_image0
_chemical_formula_structural       Ga2MgS6
_chemical_formula_sum              "Ga2 Mg1 S6"
_cell_length_a       6.604757449112194
_cell_length_b       6.604756234697516
_cell_length_c       6.604756656478202
_cell_angle_alpha    60.000002582127095
_cell_angle_beta     60.00000636246077
_cell_angle_gamma    60.000000033251794

_space_group_name_H-M_alt    "P 1"
_space_group_IT_number       1

loop_
  _space_group_symop_operation_xyz
  'x, y, z'

loop_
  _atom_site_type_symbol
  _atom_site_label
  _atom_site_symmetry_multiplicity
  _atom_site_fract_x
  _atom_site_fract_y
  _atom_site_fract_z
  _atom_site_occupancy
  Ga  Ga1       1.0  0.25000010799971417  0.24999976597178486  0.25000002367907914  1.0000
  Ga  Ga2       1.0  0.7499999219806167  0.7500003938289678  0.7500000935204443  1.0000
  Mg  Mg1       1.0  0.9999998348974272  2.540442755247827e-07  1.2510391093875865e-07  1.0000
  S   S1        1.0  0.2720151012775622  0.27201406116117577  0.7279855580362566  1.0000
  S   S2        1.0  0.7279852104165139  0.7279855052515043  0.2720147059160526  1.0000
  S   S3        1.0  0.7279853085169407  0.27201448317815097  0.272014421391754  1.0000
  S   S4        1.0  0.2720149501041665  0.727985452247705  0.7279849472430863  1.0000
  S   S5        1.0  0.2720145476922137  0.7279854988598856  0.27201461682058437  1.0000
  S   S6        1.0  0.7279849861294575  0.27201458120432853  0.7279855188237886  1.0000
