data_image0
_chemical_formula_structural       Ga2MoN6
_chemical_formula_sum              "Ga2 Mo1 N6"
_cell_length_a       4.399521358432639
_cell_length_b       4.3997593167395355
_cell_length_c       4.406897556195502
_cell_angle_alpha    59.90360890776405
_cell_angle_beta     59.88877872765297
_cell_angle_gamma    60.07099190724619

_space_group_name_H-M_alt    "P 1"
_space_group_IT_number       1

loop_
  _space_group_symop_operation_xyz
  'x, y, z'

loop_
  _atom_site_type_symbol
  _atom_site_label
  _atom_site_symmetry_multiplicity
  _atom_site_fract_x
  _atom_site_fract_y
  _atom_site_fract_z
  _atom_site_occupancy
  Ga  Ga1       1.0  0.31464112755973295  0.20480601358052236  0.24188161312056092  1.0000
  Ga  Ga2       1.0  0.7949633348153187  0.6840434229204236  0.7602492342201793  1.0000
  Mo  Mo1       1.0  0.9846865307940074  0.015500693513914157  0.9997013271939025  1.0000
  N   N1        1.0  0.2897139601230505  0.31976797801382983  0.6949194503517733  1.0000
  N   N2        1.0  0.6809783345491615  0.7099924836184675  0.30443927506376867  1.0000
  N   N3        1.0  0.6806142367237129  0.31967106447045784  0.3051858741418017  1.0000
  N   N4        1.0  0.2870994357177968  0.7128686493944942  0.6967091082048633  1.0000
  N   N5        1.0  0.28771304950055127  0.7130913168441864  0.3021478061987199  1.0000
  N   N6        1.0  0.6800340141989285  0.3197112694598906  0.6947756584943773  1.0000
