data_image0
_chemical_formula_structural       Ga2MgO6
_chemical_formula_sum              "Ga2 Mg1 O6"
_cell_length_a       5.117099021759194
_cell_length_b       5.117099235802056
_cell_length_c       5.1170992016719286
_cell_angle_alpha    60.0000018184721
_cell_angle_beta     60.00000179392409
_cell_angle_gamma    60.000001201157055

_space_group_name_H-M_alt    "P 1"
_space_group_IT_number       1

loop_
  _space_group_symop_operation_xyz
  'x, y, z'

loop_
  _atom_site_type_symbol
  _atom_site_label
  _atom_site_symmetry_multiplicity
  _atom_site_fract_x
  _atom_site_fract_y
  _atom_site_fract_z
  _atom_site_occupancy
  Ga  Ga1       1.0  0.25000025835062106  0.250000499455379  0.24999993439961865  1.0000
  Ga  Ga2       1.0  0.7500002626626547  0.7499996913221081  0.7499994073466149  1.0000
  Mg  Mg1       1.0  2.8674259387121065e-08  0.999999995213128  0.9999999646055205  1.0000
  O   O1        1.0  0.26786498431459616  0.26786516018385437  0.7321348545670092  1.0000
  O   O2        1.0  0.7321347732993684  0.7321350664951808  0.2678655993990197  1.0000
  O   O3        1.0  0.7321345640894478  0.26786526499250995  0.2678649021095282  1.0000
  O   O4        1.0  0.2678651798993004  0.7321346505398691  0.7321352354555454  1.0000
  O   O5        1.0  0.2678647879723326  0.7321345324330194  0.26786537250721587  1.0000
  O   O6        1.0  0.73213514796433  0.267865138968907  0.7321347207967691  1.0000
