data_image0
_chemical_formula_structural       Ga2MoSe6
_chemical_formula_sum              "Ga2 Mo1 Se6"
_cell_length_a       6.817491435974162
_cell_length_b       6.817491450367595
_cell_length_c       6.817491434410202
_cell_angle_alpha    60.00000009563029
_cell_angle_beta     60.000000381355484
_cell_angle_gamma    60.00000029416901

_space_group_name_H-M_alt    "P 1"
_space_group_IT_number       1

loop_
  _space_group_symop_operation_xyz
  'x, y, z'

loop_
  _atom_site_type_symbol
  _atom_site_label
  _atom_site_symmetry_multiplicity
  _atom_site_fract_x
  _atom_site_fract_y
  _atom_site_fract_z
  _atom_site_occupancy
  Ga  Ga1       1.0  0.24999999590642466  0.2500000416887784  0.2499999662179671  1.0000
  Ga  Ga2       1.0  0.7500000058220154  0.750000004702552  0.7500000025897693  1.0000
  Mo  Mo1       1.0  2.5937322729254048e-08  0.9999999425128199  1.0085020981356683e-07  1.0000
  Se  Se1       1.0  0.25109950057594616  0.2510995175384875  0.7489005218428398  1.0000
  Se  Se2       1.0  0.7489004748747142  0.7489004857374576  0.2510995241991196  1.0000
  Se  Se3       1.0  0.7489004942705146  0.25109951508020545  0.25109950222127747  1.0000
  Se  Se4       1.0  0.2510995501623417  0.7489004235226625  0.7489004565908414  1.0000
  Se  Se5       1.0  0.2510995010209236  0.7489004941855241  0.2510994874203197  1.0000
  Se  Se6       1.0  0.7489004568583333  0.2510995719670244  0.7489004376924219  1.0000
