data_image0
_chemical_formula_structural       Ga2MoS6
_chemical_formula_sum              "Ga2 Mo1 S6"
_cell_length_a       6.493492075418379
_cell_length_b       6.493492073686937
_cell_length_c       6.493491951714956
_cell_angle_alpha    60.0000006630601
_cell_angle_beta     60.000000404812525
_cell_angle_gamma    59.99999987037888

_space_group_name_H-M_alt    "P 1"
_space_group_IT_number       1

loop_
  _space_group_symop_operation_xyz
  'x, y, z'

loop_
  _atom_site_type_symbol
  _atom_site_label
  _atom_site_symmetry_multiplicity
  _atom_site_fract_x
  _atom_site_fract_y
  _atom_site_fract_z
  _atom_site_occupancy
  Ga  Ga1       1.0  0.24999994755413102  0.24999998112093566  0.25000004981342794  1.0000
  Ga  Ga2       1.0  0.750000030814014  0.7499999924016991  0.7499999846449233  1.0000
  Mo  Mo1       1.0  3.937409292957383e-08  0.9999999245555485  6.269527916370059e-08  1.0000
  S   S1        1.0  0.25031349914979245  0.2503134855400157  0.749686471623458  1.0000
  S   S2        1.0  0.7496865573716738  0.7496864615770605  0.25031347228086703  1.0000
  S   S3        1.0  0.7496864839794726  0.2503134916723483  0.250313515055086  1.0000
  S   S4        1.0  0.2503134470571673  0.749686570497517  0.7496865449455064  1.0000
  S   S5        1.0  0.25031352060155815  0.749686545316738  0.2503134031696149  1.0000
  S   S6        1.0  0.7496864670152454  0.2503135338281283  0.7496864922331088  1.0000
