data_image0
_chemical_formula_structural       Ga2MgTe6
_chemical_formula_sum              "Ga2 Mg1 Te6"
_cell_length_a       7.372368024330553
_cell_length_b       7.3723678612809564
_cell_length_c       7.372367873448423
_cell_angle_alpha    59.999999875988486
_cell_angle_beta     59.99999967921114
_cell_angle_gamma    59.99999833204393

_space_group_name_H-M_alt    "P 1"
_space_group_IT_number       1

loop_
  _space_group_symop_operation_xyz
  'x, y, z'

loop_
  _atom_site_type_symbol
  _atom_site_label
  _atom_site_symmetry_multiplicity
  _atom_site_fract_x
  _atom_site_fract_y
  _atom_site_fract_z
  _atom_site_occupancy
  Ga  Ga1       1.0  0.24999996866760402  0.24999999719774893  0.2500000154952938  1.0000
  Ga  Ga2       1.0  0.7500000254018988  0.7499999998995649  0.7500000056922554  1.0000
  Mg  Mg1       1.0  8.224828439017297e-10  1.1628847061685138e-08  0.9999998445685413  1.0000
  Te  Te1       1.0  0.279710617965116  0.2797106388278849  0.7202893851567528  1.0000
  Te  Te2       1.0  0.7202894191207334  0.7202893748820676  0.27971061978046674  1.0000
  Te  Te3       1.0  0.720289405617821  0.2797106172923685  0.279710630708745  1.0000
  Te  Te4       1.0  0.27971055010149554  0.7202894196752805  0.7202894358368845  1.0000
  Te  Te5       1.0  0.2797105783058306  0.720289371845422  0.2797106511895838  1.0000
  Te  Te6       1.0  0.7202894451913772  0.2797105604625982  0.7202894107378371  1.0000
