data_image0
_chemical_formula_structural       Ga2NO6
_chemical_formula_sum              "Ga2 N1 O6"
_cell_length_a       4.8450496555208336
_cell_length_b       4.845050574536172
_cell_length_c       4.8450503666658955
_cell_angle_alpha    59.99999918180114
_cell_angle_beta     60.00000104014705
_cell_angle_gamma    60.000000863579174

_space_group_name_H-M_alt    "P 1"
_space_group_IT_number       1

loop_
  _space_group_symop_operation_xyz
  'x, y, z'

loop_
  _atom_site_type_symbol
  _atom_site_label
  _atom_site_symmetry_multiplicity
  _atom_site_fract_x
  _atom_site_fract_y
  _atom_site_fract_z
  _atom_site_occupancy
  Ga  Ga1       1.0  0.2500002960148454  0.24999931000933456  0.25000179452622506  1.0000
  Ga  Ga2       1.0  0.7500001414310841  0.7499995478373052  0.750002056369883  1.0000
  N   N1        1.0  1.7444177385704434e-06  4.651195592931167e-07  1.0019986773488652e-05  1.0000
  O   O1        1.0  0.23590696180025184  0.23590702879886555  0.7640920542320616  1.0000
  O   O2        1.0  0.7640917716070185  0.7640923295577734  0.23590704244681904  1.0000
  O   O3        1.0  0.7640946439114255  0.23590576779249653  0.23590418848640962  1.0000
  O   O4        1.0  0.2359093495877048  0.7640907442312628  0.7640893153939454  1.0000
  O   O5        1.0  0.23590500948833532  0.7640948189735904  0.23590427220559493  1.0000
  O   O6        1.0  0.7640901063280455  0.23591002982314807  0.7640891595114114  1.0000
