data_image0
_chemical_formula_structural       Ga2NbN6
_chemical_formula_sum              "Ga2 Nb1 N6"
_cell_length_a       4.688323076976785
_cell_length_b       4.688323216720273
_cell_length_c       4.688320738942725
_cell_angle_alpha    60.0000238946118
_cell_angle_beta     60.000022678721265
_cell_angle_gamma    59.99999301987267

_space_group_name_H-M_alt    "P 1"
_space_group_IT_number       1

loop_
  _space_group_symop_operation_xyz
  'x, y, z'

loop_
  _atom_site_type_symbol
  _atom_site_label
  _atom_site_symmetry_multiplicity
  _atom_site_fract_x
  _atom_site_fract_y
  _atom_site_fract_z
  _atom_site_occupancy
  Ga  Ga1       1.0  0.25000170414630507  0.2500025161895828  0.24999841285254254  1.0000
  Ga  Ga2       1.0  0.7499991609481783  0.7499980867114275  0.7500009039883232  1.0000
  Nb  Nb1       1.0  0.9999995162750405  1.214733727549709e-06  3.91747907385728e-06  1.0000
  N   N1        1.0  0.2973132174813573  0.29731191638046195  0.7026842749506687  1.0000
  N   N2        1.0  0.7026899462931522  0.7026888615457094  0.2973069966298103  1.0000
  N   N3        1.0  0.7026879971933556  0.2973106607917089  0.29730947294495663  1.0000
  N   N4        1.0  0.29730223799615163  0.7026960523517881  0.7026946867413574  1.0000
  N   N5        1.0  0.29731046609621997  0.7026883677771856  0.2973078777024753  1.0000
  N   N6        1.0  0.7026958359221138  0.29730230826888165  0.7026934580099632  1.0000
