data_image0
_chemical_formula_structural       Ga2NiN6
_chemical_formula_sum              "Ga2 Ni1 N6"
_cell_length_a       5.120879853494767
_cell_length_b       5.120879991494546
_cell_length_c       5.120879847111254
_cell_angle_alpha    60.00000054801285
_cell_angle_beta     60.000000185294
_cell_angle_gamma    59.9999988665236

_space_group_name_H-M_alt    "P 1"
_space_group_IT_number       1

loop_
  _space_group_symop_operation_xyz
  'x, y, z'

loop_
  _atom_site_type_symbol
  _atom_site_label
  _atom_site_symmetry_multiplicity
  _atom_site_fract_x
  _atom_site_fract_y
  _atom_site_fract_z
  _atom_site_occupancy
  Ga  Ga1       1.0  0.2499991792586  0.25000016119644247  0.2500002134089543  1.0000
  Ga  Ga2       1.0  0.7500001975072352  0.7499997493469633  0.7499994021390236  1.0000
  Ni  Ni1       1.0  0.9999999978584265  3.34833624880778e-08  1.7526525568172856e-08  1.0000
  N   N1        1.0  0.2541804129753144  0.25418041536739616  0.7458194238490241  1.0000
  N   N2        1.0  0.7458197727947691  0.745819442559274  0.2541810086123254  1.0000
  N   N3        1.0  0.7458200297304536  0.25418050413089677  0.2541802070659359  1.0000
  N   N4        1.0  0.25418026529805554  0.7458194183708287  0.7458199060967318  1.0000
  N   N5        1.0  0.254180147886173  0.7458198225827133  0.25418048484485384  1.0000
  N   N6        1.0  0.7458199975614493  0.25418049454436137  0.745819296847113  1.0000
