data_image0
_chemical_formula_structural       Ga2OsN6
_chemical_formula_sum              "Ga2 Os1 N6"
_cell_length_a       5.177230403463861
_cell_length_b       5.177230484375276
_cell_length_c       5.177230173183521
_cell_angle_alpha    60.00000092615343
_cell_angle_beta     60.00000147783975
_cell_angle_gamma    59.99999774162627

_space_group_name_H-M_alt    "P 1"
_space_group_IT_number       1

loop_
  _space_group_symop_operation_xyz
  'x, y, z'

loop_
  _atom_site_type_symbol
  _atom_site_label
  _atom_site_symmetry_multiplicity
  _atom_site_fract_x
  _atom_site_fract_y
  _atom_site_fract_z
  _atom_site_occupancy
  Ga  Ga1       1.0  0.24999976821796976  0.24999953639334482  0.250000454523949  1.0000
  Ga  Ga2       1.0  0.7500001438693916  0.7500000593155746  0.7500000605104744  1.0000
  Os  Os1       1.0  5.3145592688450625e-08  0.9999999810749012  0.9999999597113362  1.0000
  N   N1        1.0  0.2614733060143592  0.26147354192702166  0.7385266602472652  1.0000
  N   N2        1.0  0.738526659345907  0.7385264961560438  0.261473421536293  1.0000
  N   N3        1.0  0.7385266014977161  0.26147335230035457  0.26147344179115645  1.0000
  N   N4        1.0  0.26147325204755206  0.7385269743904509  0.7385261846044255  1.0000
  N   N5        1.0  0.26147341640730676  0.7385268358425849  0.2614734355089896  1.0000
  N   N6        1.0  0.7385268340079114  0.2614732637470377  0.7385263088133598  1.0000
