data_image0
_chemical_formula_structural       Ga2PN6
_chemical_formula_sum              "Ga2 P1 N6"
_cell_length_a       4.874419737346671
_cell_length_b       4.8744197831862826
_cell_length_c       4.874419901600109
_cell_angle_alpha    59.99999880541193
_cell_angle_beta     59.999999727530835
_cell_angle_gamma    59.99999936417304

_space_group_name_H-M_alt    "P 1"
_space_group_IT_number       1

loop_
  _space_group_symop_operation_xyz
  'x, y, z'

loop_
  _atom_site_type_symbol
  _atom_site_label
  _atom_site_symmetry_multiplicity
  _atom_site_fract_x
  _atom_site_fract_y
  _atom_site_fract_z
  _atom_site_occupancy
  Ga  Ga1       1.0  0.2500000023211088  0.2499999834036524  0.25000001603214134  1.0000
  Ga  Ga2       1.0  0.7500000065075788  0.7500000155384593  0.7500000505364914  1.0000
  P   P1        1.0  0.9999999969372672  0.9999999949748075  0.9999999958378579  1.0000
  N   N1        1.0  0.2503240107323631  0.25032393365538874  0.749676050898301  1.0000
  N   N2        1.0  0.7496760478678466  0.7496760225725869  0.25032398752332496  1.0000
  N   N3        1.0  0.7496759649344259  0.2503240176307539  0.25032396387223443  1.0000
  N   N4        1.0  0.2503239505013357  0.7496760340758801  0.7496760101766601  1.0000
  N   N5        1.0  0.25032399893048735  0.7496760253153844  0.25032395479016695  1.0000
  N   N6        1.0  0.749676018129822  0.2503239560385546  0.7496759954166973  1.0000
