data_image0
_chemical_formula_structural       Ga2PS6
_chemical_formula_sum              "Ga2 P1 S6"
_cell_length_a       6.511085439157228
_cell_length_b       6.511085744858916
_cell_length_c       6.511085547270264
_cell_angle_alpha    59.99999956145773
_cell_angle_beta     59.9999975126594
_cell_angle_gamma    60.00000174750746

_space_group_name_H-M_alt    "P 1"
_space_group_IT_number       1

loop_
  _space_group_symop_operation_xyz
  'x, y, z'

loop_
  _atom_site_type_symbol
  _atom_site_label
  _atom_site_symmetry_multiplicity
  _atom_site_fract_x
  _atom_site_fract_y
  _atom_site_fract_z
  _atom_site_occupancy
  Ga  Ga1       1.0  0.24999992020682565  0.24999982404306142  0.25000010096384695  1.0000
  Ga  Ga2       1.0  0.7500000988888753  0.750000085340013  0.7499997549673321  1.0000
  P   P1        1.0  0.9999999737918269  4.138232481002167e-08  4.699661750049656e-09  1.0000
  S   S1        1.0  0.23459394546504153  0.23459404100805184  0.7654060319061677  1.0000
  S   S2        1.0  0.7654060325710628  0.7654059755928627  0.23459402900143136  1.0000
  S   S3        1.0  0.7654060843865467  0.23459387248327596  0.2345940651588823  1.0000
  S   S4        1.0  0.23459397465606296  0.7654060500669004  0.7654060160934127  1.0000
  S   S5        1.0  0.23459390005503097  0.7654060868362603  0.2345940152763836  1.0000
  S   S6        1.0  0.7654060760816035  0.23459396738495036  0.7654059786238511  1.0000
