data_image0
_chemical_formula_structural       Ga2PtN6
_chemical_formula_sum              "Ga2 Pt1 N6"
_cell_length_a       2.722464461065684
_cell_length_b       2.7288551842155164
_cell_length_c       2.4850388554319545
_cell_angle_alpha    66.76588505091037
_cell_angle_beta     47.587670907459206
_cell_angle_gamma    69.55610030767578

_space_group_name_H-M_alt    "P 1"
_space_group_IT_number       1

loop_
  _space_group_symop_operation_xyz
  'x, y, z'

loop_
  _atom_site_type_symbol
  _atom_site_label
  _atom_site_symmetry_multiplicity
  _atom_site_fract_x
  _atom_site_fract_y
  _atom_site_fract_z
  _atom_site_occupancy
  Ga  Ga1       1.0  0.563314062087275  0.8512297770877952  0.4940044905074933  1.0000
  Ga  Ga2       1.0  0.9255288454844769  0.6481511540080598  0.43488181451416347  1.0000
  Pt  Pt1       1.0  0.7301562749344408  0.8509955455944154  0.05274802597317999  1.0000
  N   N1        1.0  0.2883715054860686  0.11851886023193585  0.2663983606378573  1.0000
  N   N2        1.0  0.8611244945859278  0.5607048322296684  0.37036257461009436  1.0000
  N   N3        1.0  0.3065401917477679  0.9355065821646753  0.029350198471841803  1.0000
  N   N4        1.0  0.4060313655004336  0.34544570530025076  0.7591771009720386  1.0000
  N   N5        1.0  0.784559205968805  0.6658337792983494  0.7483536227824916  1.0000
  N   N6        1.0  0.1674002473106959  0.3988829457163148  0.20399052047978933  1.0000
