data_image0
_chemical_formula_structural       Ga2PdN6
_chemical_formula_sum              "Ga2 Pd1 N6"
_cell_length_a       4.905973441571992
_cell_length_b       4.905973419150371
_cell_length_c       4.905973050646308
_cell_angle_alpha    59.99998879289434
_cell_angle_beta     59.999991584527315
_cell_angle_gamma    59.99999334607429

_space_group_name_H-M_alt    "P 1"
_space_group_IT_number       1

loop_
  _space_group_symop_operation_xyz
  'x, y, z'

loop_
  _atom_site_type_symbol
  _atom_site_label
  _atom_site_symmetry_multiplicity
  _atom_site_fract_x
  _atom_site_fract_y
  _atom_site_fract_z
  _atom_site_occupancy
  Ga  Ga1       1.0  0.24999993807245136  0.2500001254401168  0.2500000365943711  1.0000
  Ga  Ga2       1.0  0.7500000467365924  0.7500000318122021  0.7499996378496947  1.0000
  Pd  Pd1       1.0  1.1490535017205171e-07  0.9999997753207299  8.750027954179898e-08  1.0000
  N   N1        1.0  0.2931870964057849  0.2931880524221927  0.7068113983449401  1.0000
  N   N2        1.0  0.7068115587469014  0.7068123020485289  0.2931893580160939  1.0000
  N   N3        1.0  0.7068116346189376  0.29318736141441937  0.2931878496052109  1.0000
  N   N4        1.0  0.29318849473847947  0.706812785852207  0.706811298932889  1.0000
  N   N5        1.0  0.29318783247195956  0.7068111826349194  0.29318866753046985  1.0000
  N   N6        1.0  0.7068132755198135  0.29318837297615274  0.7068116633920526  1.0000
