data_image0
_chemical_formula_structural       Ga2PO6
_chemical_formula_sum              "Ga2 P1 O6"
_cell_length_a       4.881495332492952
_cell_length_b       4.881495287407006
_cell_length_c       4.881494997338305
_cell_angle_alpha    60.00000443050885
_cell_angle_beta     60.000002674139076
_cell_angle_gamma    60.00000291580216

_space_group_name_H-M_alt    "P 1"
_space_group_IT_number       1

loop_
  _space_group_symop_operation_xyz
  'x, y, z'

loop_
  _atom_site_type_symbol
  _atom_site_label
  _atom_site_symmetry_multiplicity
  _atom_site_fract_x
  _atom_site_fract_y
  _atom_site_fract_z
  _atom_site_occupancy
  Ga  Ga1       1.0  0.250000314172965  0.24999990395341054  0.24999953403392744  1.0000
  Ga  Ga2       1.0  0.7499995084198449  0.7500000756586112  0.7500001308002034  1.0000
  P   P1        1.0  1.1134494756055106e-08  0.9999999949820932  5.839828842576483e-08  1.0000
  O   O1        1.0  0.24346212558809113  0.24346171544537243  0.7565381139848858  1.0000
  O   O2        1.0  0.7565379598828993  0.7565382064607151  0.24346188050775186  1.0000
  O   O3        1.0  0.7565380119069646  0.2434620121131639  0.24346199611730987  1.0000
  O   O4        1.0  0.24346207743401782  0.7565379549541049  0.7565381848606753  1.0000
  O   O5        1.0  0.2434619752597558  0.7565381345884047  0.2434620021695055  1.0000
  O   O6        1.0  0.7565379731535465  0.24346202817729173  0.7565381514231089  1.0000
