data_image0
_chemical_formula_structural       Ga2RhS6
_chemical_formula_sum              "Ga2 Rh1 S6"
_cell_length_a       6.2993028364046655
_cell_length_b       6.299302944364767
_cell_length_c       6.299302894421457
_cell_angle_alpha    59.99999885441202
_cell_angle_beta     59.99999833397496
_cell_angle_gamma    59.999999145520256

_space_group_name_H-M_alt    "P 1"
_space_group_IT_number       1

loop_
  _space_group_symop_operation_xyz
  'x, y, z'

loop_
  _atom_site_type_symbol
  _atom_site_label
  _atom_site_symmetry_multiplicity
  _atom_site_fract_x
  _atom_site_fract_y
  _atom_site_fract_z
  _atom_site_occupancy
  Ga  Ga1       1.0  0.2500000420142715  0.24999998669399887  0.24999994275711526  1.0000
  Ga  Ga2       1.0  0.7500000257041238  0.750000063127491  0.7499998824796477  1.0000
  Rh  Rh1       1.0  0.9999999308614993  3.6940837126815534e-08  9.229773982969642e-08  1.0000
  S   S1        1.0  0.2566511456221024  0.25665113437917525  0.7433488936131128  1.0000
  S   S2        1.0  0.7433488791956906  0.7433488901670031  0.2566511101720369  1.0000
  S   S3        1.0  0.7433488992038264  0.25665103821227186  0.256651177380306  1.0000
  S   S4        1.0  0.25665122082521086  0.7433487996854634  0.7433488356114675  1.0000
  S   S5        1.0  0.25665108422964705  0.7433488885523308  0.2566511833384988  1.0000
  S   S6        1.0  0.7433487738526441  0.2566511962657414  0.7433488720909789  1.0000
