data_image0
_chemical_formula_structural       Ga2ReN6
_chemical_formula_sum              "Ga2 Re1 N6"
_cell_length_a       5.240493464760327
_cell_length_b       5.240492969801873
_cell_length_c       5.240493450942484
_cell_angle_alpha    60.00000108222841
_cell_angle_beta     60.00000068151042
_cell_angle_gamma    60.000001553253455

_space_group_name_H-M_alt    "P 1"
_space_group_IT_number       1

loop_
  _space_group_symop_operation_xyz
  'x, y, z'

loop_
  _atom_site_type_symbol
  _atom_site_label
  _atom_site_symmetry_multiplicity
  _atom_site_fract_x
  _atom_site_fract_y
  _atom_site_fract_z
  _atom_site_occupancy
  Ga  Ga1       1.0  0.25000007908713945  0.24999977268736379  0.2500001850182624  1.0000
  Ga  Ga2       1.0  0.7499998257638125  0.75000017577024  0.7500000953306016  1.0000
  Re  Re1       1.0  0.9999999975292607  1.4022477512661005e-08  9.489869300248381e-09  1.0000
  N   N1        1.0  0.2637500303738678  0.2637498037884226  0.7362500444292127  1.0000
  N   N2        1.0  0.7362500054563811  0.7362502475006732  0.2637499205596665  1.0000
  N   N3        1.0  0.736250039751362  0.2637498532087219  0.2637498049177152  1.0000
  N   N4        1.0  0.263749793387232  0.7362501583500113  0.7362501534316149  1.0000
  N   N5        1.0  0.26374993810799835  0.7362502775710689  0.26374974964857906  1.0000
  N   N6        1.0  0.7362503303071644  0.2637496708865323  0.7362500626855949  1.0000
