data_image0
_chemical_formula_structural       Ga2RhN6
_chemical_formula_sum              "Ga2 Rh1 N6"
_cell_length_a       5.289182019511947
_cell_length_b       4.739197479365865
_cell_length_c       4.861283460398942
_cell_angle_alpha    61.05340138141291
_cell_angle_beta     48.68423925091243
_cell_angle_gamma    56.44106276591966

_space_group_name_H-M_alt    "P 1"
_space_group_IT_number       1

loop_
  _space_group_symop_operation_xyz
  'x, y, z'

loop_
  _atom_site_type_symbol
  _atom_site_label
  _atom_site_symmetry_multiplicity
  _atom_site_fract_x
  _atom_site_fract_y
  _atom_site_fract_z
  _atom_site_occupancy
  Ga  Ga1       1.0  0.09742864265154796  0.11880854321827441  0.17558092163388478  1.0000
  Ga  Ga2       1.0  0.8534253073674665  0.7791396055593874  0.8857250297565123  1.0000
  Rh  Rh1       1.0  0.012932409692179627  0.9184113737555143  0.1291808746456468  1.0000
  N   N1        1.0  0.2910183092902499  0.34574021287296286  0.7078864365053399  1.0000
  N   N2        1.0  0.6057796164735567  0.7284165859114908  0.3586102362817384  1.0000
  N   N3        1.0  0.7156526005378288  0.3181510097295735  0.26067262997490476  1.0000
  N   N4        1.0  0.3597572844219684  0.5742269903703939  0.6982156437725435  1.0000
  N   N5        1.0  0.2875091776204343  0.7387676250797169  0.2914182243362857  1.0000
  N   N6        1.0  0.7765113764856891  0.47840321127380925  0.49268996612908306  1.0000
