data_image0
_chemical_formula_structural       Ga2RuSe6
_chemical_formula_sum              "Ga2 Ru1 Se6"
_cell_length_a       6.625056027268872
_cell_length_b       6.6250561262640835
_cell_length_c       6.625056110023529
_cell_angle_alpha    59.99999903160888
_cell_angle_beta     59.99999927559027
_cell_angle_gamma    59.99999858870716

_space_group_name_H-M_alt    "P 1"
_space_group_IT_number       1

loop_
  _space_group_symop_operation_xyz
  'x, y, z'

loop_
  _atom_site_type_symbol
  _atom_site_label
  _atom_site_symmetry_multiplicity
  _atom_site_fract_x
  _atom_site_fract_y
  _atom_site_fract_z
  _atom_site_occupancy
  Ga  Ga1       1.0  0.25000000537327627  0.25000000969328684  0.2499999544226977  1.0000
  Ga  Ga2       1.0  0.7500000122473441  0.7499999884094305  0.7499999851613485  1.0000
  Ru  Ru1       1.0  0.9999999885032986  2.403252701206146e-08  0.9999999348646611  1.0000
  Se  Se1       1.0  0.2605487349618345  0.26054866935107385  0.7394513087454616  1.0000
  Se  Se2       1.0  0.7394512926240107  0.7394512936271811  0.260548721908105  1.0000
  Se  Se3       1.0  0.7394513302303369  0.2605486920800088  0.26054870135517677  1.0000
  Se  Se4       1.0  0.26054870709114014  0.7394512782928689  0.7394513509216856  1.0000
  Se  Se5       1.0  0.2605486815289118  0.739451333341001  0.26054871145987174  1.0000
  Se  Se6       1.0  0.7394512380466114  0.2605487183727367  0.7394513333593773  1.0000
