data_image0
_chemical_formula_structural       Ga2RuS6
_chemical_formula_sum              "Ga2 Ru1 S6"
_cell_length_a       6.272994504091358
_cell_length_b       6.27299472353046
_cell_length_c       6.272994917054299
_cell_angle_alpha    59.999998899163394
_cell_angle_beta     60.000000550809474
_cell_angle_gamma    60.0000001710758

_space_group_name_H-M_alt    "P 1"
_space_group_IT_number       1

loop_
  _space_group_symop_operation_xyz
  'x, y, z'

loop_
  _atom_site_type_symbol
  _atom_site_label
  _atom_site_symmetry_multiplicity
  _atom_site_fract_x
  _atom_site_fract_y
  _atom_site_fract_z
  _atom_site_occupancy
  Ga  Ga1       1.0  0.2499999762312833  0.2499999291358187  0.2500002486332602  1.0000
  Ga  Ga2       1.0  0.7499999182585502  0.7500000451253944  0.7500002795194616  1.0000
  Ru  Ru1       1.0  0.9999999933452903  0.9999998984747499  3.330635838396383e-07  1.0000
  S   S1        1.0  0.25847384459943407  0.2584738532235751  0.7415260594888746  1.0000
  S   S2        1.0  0.7415262062965311  0.7415262206104833  0.2584737237441632  1.0000
  S   S3        1.0  0.7415261796931991  0.25847386988040055  0.2584736194368965  1.0000
  S   S4        1.0  0.25847373757142594  0.741526229334971  0.7415260872020921  1.0000
  S   S5        1.0  0.25847387052499743  0.7415261937546461  0.25847357791776243  1.0000
  S   S6        1.0  0.7415262334943207  0.25847376488730683  0.7415260960657838  1.0000
