data_image0
_chemical_formula_structural       Ga2RuO6
_chemical_formula_sum              "Ga2 Ru1 O6"
_cell_length_a       5.541288088229907
_cell_length_b       5.541287815841569
_cell_length_c       5.541287863073524
_cell_angle_alpha    59.99999964579516
_cell_angle_beta     59.99999756932096
_cell_angle_gamma    59.99999860217068

_space_group_name_H-M_alt    "P 1"
_space_group_IT_number       1

loop_
  _space_group_symop_operation_xyz
  'x, y, z'

loop_
  _atom_site_type_symbol
  _atom_site_label
  _atom_site_symmetry_multiplicity
  _atom_site_fract_x
  _atom_site_fract_y
  _atom_site_fract_z
  _atom_site_occupancy
  Ga  Ga1       1.0  0.24999745176660776  0.2500041396325988  0.25000101943562647  1.0000
  Ga  Ga2       1.0  0.750001757340798  0.7499960655017291  0.7499971913906612  1.0000
  Ru  Ru1       1.0  0.9999999974539477  0.9999999513752242  0.9999999714463751  1.0000
  O   O1        1.0  0.2365453650050916  0.2365472111231236  0.7634533778650509  1.0000
  O   O2        1.0  0.7634546144844994  0.7634528083530226  0.23654829062998434  1.0000
  O   O3        1.0  0.7634533781784788  0.23654711694669034  0.23654547961292097  1.0000
  O   O4        1.0  0.23654702157334961  0.7634525732070986  0.7634548801679181  1.0000
  O   O5        1.0  0.2365451278843632  0.7634522942661158  0.23654754877434567  1.0000
  O   O6        1.0  0.7634553764515634  0.23654777604500038  0.7634521950764078  1.0000
