data_image0
_chemical_formula_structural       Ga2RuN6
_chemical_formula_sum              "Ga2 Ru1 N6"
_cell_length_a       5.087707762549754
_cell_length_b       5.087707785812331
_cell_length_c       5.087707792437575
_cell_angle_alpha    60.00000008810253
_cell_angle_beta     60.00000001514796
_cell_angle_gamma    59.999999939410884

_space_group_name_H-M_alt    "P 1"
_space_group_IT_number       1

loop_
  _space_group_symop_operation_xyz
  'x, y, z'

loop_
  _atom_site_type_symbol
  _atom_site_label
  _atom_site_symmetry_multiplicity
  _atom_site_fract_x
  _atom_site_fract_y
  _atom_site_fract_z
  _atom_site_occupancy
  Ga  Ga1       1.0  0.24999998940239412  0.2499999700127844  0.2500000236447618  1.0000
  Ga  Ga2       1.0  0.74999998549061  0.7500000352160088  0.7499999682553968  1.0000
  Ru  Ru1       1.0  0.9999999660938391  0.9999999927782123  9.087573762229861e-10  1.0000
  N   N1        1.0  0.2650552558284866  0.26505519769227104  0.7349447754084155  1.0000
  N   N2        1.0  0.7349447601924662  0.7349447930929464  0.2650552562186422  1.0000
  N   N3        1.0  0.7349447586324447  0.26505523025685257  0.2650552536264215  1.0000
  N   N4        1.0  0.2650552194466217  0.7349448062663544  0.7349447426542376  1.0000
  N   N5        1.0  0.26505526170952437  0.7349447650160702  0.2650552187060547  1.0000
  N   N6        1.0  0.7349448007809759  0.2650552089183088  0.7349447568356932  1.0000
