data_image0
_chemical_formula_structural       Ga2SO6
_chemical_formula_sum              "Ga2 S1 O6"
_cell_length_a       5.00710629670426
_cell_length_b       5.007106297249138
_cell_length_c       5.00710655284861
_cell_angle_alpha    60.000000598835406
_cell_angle_beta     60.00000016515321
_cell_angle_gamma    60.0000002768948

_space_group_name_H-M_alt    "P 1"
_space_group_IT_number       1

loop_
  _space_group_symop_operation_xyz
  'x, y, z'

loop_
  _atom_site_type_symbol
  _atom_site_label
  _atom_site_symmetry_multiplicity
  _atom_site_fract_x
  _atom_site_fract_y
  _atom_site_fract_z
  _atom_site_occupancy
  Ga  Ga1       1.0  0.24999988750347157  0.2500000216493474  0.24999998606540455  1.0000
  Ga  Ga2       1.0  0.7499999484937275  0.7500000233658171  0.7499998999048384  1.0000
  S   S1        1.0  0.9999999964588696  2.446013360671596e-08  1.7500758562821373e-08  1.0000
  O   O1        1.0  0.2292810971689402  0.22928114388437046  0.7707189020638893  1.0000
  O   O2        1.0  0.7707189432819141  0.7707188619945846  0.22928110096377446  1.0000
  O   O3        1.0  0.7707189765567486  0.2292810528356398  0.22928112910925508  1.0000
  O   O4        1.0  0.22928109201125865  0.77071888944697  0.7707189236125869  1.0000
  O   O5        1.0  0.22928112938705036  0.7707188645308352  0.22928107870571732  1.0000
  O   O6        1.0  0.7707188813639783  0.22928112667204  0.7707189365240914  1.0000
