data_image0
_chemical_formula_structural       Ga2SN6
_chemical_formula_sum              "Ga2 S1 N6"
_cell_length_a       4.891741428293009
_cell_length_b       4.891741574969843
_cell_length_c       4.891741490520402
_cell_angle_alpha    60.000000432715375
_cell_angle_beta     60.00000004398201
_cell_angle_gamma    60.000000448473166

_space_group_name_H-M_alt    "P 1"
_space_group_IT_number       1

loop_
  _space_group_symop_operation_xyz
  'x, y, z'

loop_
  _atom_site_type_symbol
  _atom_site_label
  _atom_site_symmetry_multiplicity
  _atom_site_fract_x
  _atom_site_fract_y
  _atom_site_fract_z
  _atom_site_occupancy
  Ga  Ga1       1.0  0.24999993788839706  0.2500000738697339  0.249999997750872  1.0000
  Ga  Ga2       1.0  0.7500000436166456  0.7499999637282012  0.7500000174386987  1.0000
  S   S1        1.0  1.4854438395295046e-08  5.0073980625391524e-09  0.9999999737149878  1.0000
  N   N1        1.0  0.24576156583261607  0.2457616377523603  0.7542383966631474  1.0000
  N   N2        1.0  0.7542383940228352  0.7542383798159827  0.24576160665782715  1.0000
  N   N3        1.0  0.7542384101545551  0.24576155441258796  0.2457615892901437  1.0000
  N   N4        1.0  0.24576156264895796  0.7542384030669783  0.7542384355569266  1.0000
  N   N5        1.0  0.24576158800553313  0.7542384473204566  0.2457615843011214  1.0000
  N   N6        1.0  0.7542384678208358  0.24576153018870162  0.7542383931082488  1.0000
