data_image0
_chemical_formula_structural       Ga2SeN6
_chemical_formula_sum              "Ga2 Se1 N6"
_cell_length_a       5.0313822917386
_cell_length_b       5.031382380839138
_cell_length_c       5.031382664791411
_cell_angle_alpha    59.999998221461695
_cell_angle_beta     59.99999656515197
_cell_angle_gamma    59.99999940577957

_space_group_name_H-M_alt    "P 1"
_space_group_IT_number       1

loop_
  _space_group_symop_operation_xyz
  'x, y, z'

loop_
  _atom_site_type_symbol
  _atom_site_label
  _atom_site_symmetry_multiplicity
  _atom_site_fract_x
  _atom_site_fract_y
  _atom_site_fract_z
  _atom_site_occupancy
  Ga  Ga1       1.0  0.2500001191327233  0.24999986619306283  0.24999985809538733  1.0000
  Ga  Ga2       1.0  0.7499999588958414  0.7500000367372578  0.7499999420257151  1.0000
  Se  Se1       1.0  0.9999999545177102  0.9999999780920962  3.96576728162953e-08  1.0000
  N   N1        1.0  0.26258897666802206  0.26258900195852325  0.7374111808753827  1.0000
  N   N2        1.0  0.7374109362558962  0.7374111346561026  0.2625890520243213  1.0000
  N   N3        1.0  0.7374109951602981  0.2625888870904753  0.26258894526418786  1.0000
  N   N4        1.0  0.2625889711770609  0.7374110961688249  0.7374110434527238  1.0000
  N   N5        1.0  0.26258901862820067  0.7374110574178545  0.26258891779633914  1.0000
  N   N6        1.0  0.7374110274532991  0.2625889964335798  0.7374109957524345  1.0000
