data_image0
_chemical_formula_structural       Ga2SbN6
_chemical_formula_sum              "Ga2 Sb1 N6"
_cell_length_a       5.335204514213656
_cell_length_b       5.33520849000245
_cell_length_c       5.335201048375376
_cell_angle_alpha    60.00002645081975
_cell_angle_beta     59.99999401454888
_cell_angle_gamma    60.000050088778586

_space_group_name_H-M_alt    "P 1"
_space_group_IT_number       1

loop_
  _space_group_symop_operation_xyz
  'x, y, z'

loop_
  _atom_site_type_symbol
  _atom_site_label
  _atom_site_symmetry_multiplicity
  _atom_site_fract_x
  _atom_site_fract_y
  _atom_site_fract_z
  _atom_site_occupancy
  Ga  Ga1       1.0  0.24999929625653058  0.24999773454736113  0.2500020732157579  1.0000
  Ga  Ga2       1.0  0.7500003393981534  0.7500024801157705  0.749997632672993  1.0000
  Sb  Sb1       1.0  4.311092827209562e-07  1.67578142486722e-07  0.9999991495991513  1.0000
  N   N1        1.0  0.30721126707807317  0.30720104970041207  0.6927906191293712  1.0000
  N   N2        1.0  0.692787478274528  0.6927969726755647  0.3072105624524833  1.0000
  N   N3        1.0  0.6927944183163355  0.30719793377934307  0.30721743775873156  1.0000
  N   N4        1.0  0.30720327280706894  0.6928050952744619  0.6927828415971703  1.0000
  N   N5        1.0  0.30720283701191864  0.6928000611681182  0.3072119737270824  1.0000
  N   N6        1.0  0.692800626339641  0.30719850067235827  0.692787716848555  1.0000
