data_image0
_chemical_formula_structural       Ga2SnN6
_chemical_formula_sum              "Ga2 Sn1 N6"
_cell_length_a       5.488766284705948
_cell_length_b       5.488760157592338
_cell_length_c       5.488764270823152
_cell_angle_alpha    60.00001596994567
_cell_angle_beta     60.00005132112992
_cell_angle_gamma    60.00002592231866

_space_group_name_H-M_alt    "P 1"
_space_group_IT_number       1

loop_
  _space_group_symop_operation_xyz
  'x, y, z'

loop_
  _atom_site_type_symbol
  _atom_site_label
  _atom_site_symmetry_multiplicity
  _atom_site_fract_x
  _atom_site_fract_y
  _atom_site_fract_z
  _atom_site_occupancy
  Ga  Ga1       1.0  0.24999872266531797  0.2500010843914114  0.24999952869876033  1.0000
  Ga  Ga2       1.0  0.7500012410263505  0.749998719035445  0.7500009966709433  1.0000
  Sn  Sn1       1.0  0.9999999538268757  0.9999998103335147  0.9999997043475901  1.0000
  N   N1        1.0  0.31623835749255647  0.31625007958766044  0.6837583627138104  1.0000
  N   N2        1.0  0.6837611122170498  0.6837511742281189  0.316239815179555  1.0000
  N   N3        1.0  0.6837609607067566  0.31624922304857045  0.3162400144939066  1.0000
  N   N4        1.0  0.3162397366056797  0.6837526711711979  0.6837597126513697  1.0000
  N   N5        1.0  0.316242411991725  0.6837538343496155  0.31624663412393506  1.0000
  N   N6        1.0  0.6837574890778764  0.3162434052345772  0.6837552409154  1.0000
