data_image0
_chemical_formula_structural       Ga2TiN6
_chemical_formula_sum              "Ga2 Ti1 N6"
_cell_length_a       5.013255811462514
_cell_length_b       5.013255754696877
_cell_length_c       5.013255556829532
_cell_angle_alpha    60.00000060535071
_cell_angle_beta     60.00000075600704
_cell_angle_gamma    59.99999969612719

_space_group_name_H-M_alt    "P 1"
_space_group_IT_number       1

loop_
  _space_group_symop_operation_xyz
  'x, y, z'

loop_
  _atom_site_type_symbol
  _atom_site_label
  _atom_site_symmetry_multiplicity
  _atom_site_fract_x
  _atom_site_fract_y
  _atom_site_fract_z
  _atom_site_occupancy
  Ga  Ga1       1.0  0.24999988220228195  0.24999999177366228  0.2500000542749176  1.0000
  Ga  Ga2       1.0  0.7500001199198544  0.7500001170157344  0.7499997875006695  1.0000
  Ti  Ti1       1.0  0.9999999343701452  0.9999998583052493  2.293291471356609e-07  1.0000
  N   N1        1.0  0.2795923266992071  0.27959250072373765  0.7204077390759823  1.0000
  N   N2        1.0  0.7204079207296187  0.7204079500874668  0.27959235159696144  1.0000
  N   N3        1.0  0.7204080645534373  0.2795917685180365  0.27959234303553854  1.0000
  N   N4        1.0  0.27959244305252196  0.7204074387995827  0.72040755510949  1.0000
  N   N5        1.0  0.27959164478588955  0.72040797333635  0.2795924233301375  1.0000
  N   N6        1.0  0.7204076469633222  0.2795923870833847  0.7204075181604799  1.0000
