data_image0
_chemical_formula_structural       Ga2TaTe6
_chemical_formula_sum              "Ga2 Ta1 Te6"
_cell_length_a       7.30828365328689
_cell_length_b       7.308283536538631
_cell_length_c       7.3082835821118985
_cell_angle_alpha    60.000000605028085
_cell_angle_beta     60.00000018186807
_cell_angle_gamma    60.00000017237269

_space_group_name_H-M_alt    "P 1"
_space_group_IT_number       1

loop_
  _space_group_symop_operation_xyz
  'x, y, z'

loop_
  _atom_site_type_symbol
  _atom_site_label
  _atom_site_symmetry_multiplicity
  _atom_site_fract_x
  _atom_site_fract_y
  _atom_site_fract_z
  _atom_site_occupancy
  Ga  Ga1       1.0  0.2500000005970205  0.24999998211427552  0.2500000220824556  1.0000
  Ga  Ga2       1.0  0.7499999835321606  0.7500000200793935  0.7500000029324655  1.0000
  Ta  Ta1       1.0  0.9999999891317642  0.9999999899450134  0.9999999885686457  1.0000
  Te  Te1       1.0  0.2647620527257475  0.2647620544683854  0.735237932405205  1.0000
  Te  Te2       1.0  0.7352379792494177  0.7352379795660736  0.26476202129519105  1.0000
  Te  Te3       1.0  0.7352379579016218  0.2647620426786042  0.26476203629082506  1.0000
  Te  Te4       1.0  0.2647620291958518  0.735237969570051  0.735237980844146  1.0000
  Te  Te5       1.0  0.2647620418083622  0.7352379432077771  0.2647620351416097  1.0000
  Te  Te6       1.0  0.7352379667873882  0.26476201876594585  0.7352379854352062  1.0000
