data_image0
_chemical_formula_structural       Ga2TaN6
_chemical_formula_sum              "Ga2 Ta1 N6"
_cell_length_a       4.659211920786379
_cell_length_b       4.689469520647772
_cell_length_c       4.122291342680311
_cell_angle_alpha    63.4587083515812
_cell_angle_beta     64.21359054437718
_cell_angle_gamma    65.9219642432012

_space_group_name_H-M_alt    "P 1"
_space_group_IT_number       1

loop_
  _space_group_symop_operation_xyz
  'x, y, z'

loop_
  _atom_site_type_symbol
  _atom_site_label
  _atom_site_symmetry_multiplicity
  _atom_site_fract_x
  _atom_site_fract_y
  _atom_site_fract_z
  _atom_site_occupancy
  Ga  Ga1       1.0  0.5463415115102934  0.1519684713544672  0.15599543676041427  1.0000
  Ga  Ga2       1.0  0.8480476653871953  0.4536744202832313  0.8542890317522345  1.0000
  Ta  Ta1       1.0  0.8966218436271901  0.10339427150121325  0.009966922128560823  1.0000
  N   N1        1.0  0.2101587327873957  0.3148585287234301  0.7390816081508603  1.0000
  N   N2        1.0  0.6851573724252392  0.7898575357139129  0.2640830072541156  1.0000
  N   N3        1.0  0.5965310550829205  0.4034853264272074  0.3164731444271381  1.0000
  N   N4        1.0  0.31727361202349785  0.6827424123437769  0.6344323041038138  1.0000
  N   N5        1.0  0.38688549481983175  0.6131306875484371  0.2802755211785247  1.0000
  N   N6        1.0  0.5134001709065333  0.4866157415166433  0.7452632264350616  1.0000
