data_image0
_chemical_formula_structural       Ga2TaO6
_chemical_formula_sum              "Ga2 Ta1 O6"
_cell_length_a       5.2721824970866615
_cell_length_b       5.2721825644110005
_cell_length_c       5.272181785558676
_cell_angle_alpha    60.000000259760746
_cell_angle_beta     60.00000038278059
_cell_angle_gamma    60.00000461712718

_space_group_name_H-M_alt    "P 1"
_space_group_IT_number       1

loop_
  _space_group_symop_operation_xyz
  'x, y, z'

loop_
  _atom_site_type_symbol
  _atom_site_label
  _atom_site_symmetry_multiplicity
  _atom_site_fract_x
  _atom_site_fract_y
  _atom_site_fract_z
  _atom_site_occupancy
  Ga  Ga1       1.0  0.25000223347082495  0.25000400739792383  0.24999653634362673  1.0000
  Ga  Ga2       1.0  0.749998624511824  0.7499998820283843  0.7500025375287763  1.0000
  Ta  Ta1       1.0  4.3533897680144224e-08  2.439183526841026e-07  0.9999999283502871  1.0000
  O   O1        1.0  0.26229426233134695  0.26229480995721616  0.737705534685383  1.0000
  O   O2        1.0  0.7377065302520145  0.7377040849505225  0.2622934762916757  1.0000
  O   O3        1.0  0.7377038925963048  0.2622946718794507  0.2622944805982396  1.0000
  O   O4        1.0  0.2622951943983927  0.7377039256800765  0.7377066736895868  1.0000
  O   O5        1.0  0.2622956378854534  0.7377041453884509  0.2622936169719379  1.0000
  O   O6        1.0  0.7377035650596013  0.2622942291600299  0.7377072171868908  1.0000
