data_image0
_chemical_formula_structural       Ga2VN6
_chemical_formula_sum              "Ga2 V1 N6"
_cell_length_a       4.872069229365831
_cell_length_b       4.872066831212958
_cell_length_c       4.87206795685588
_cell_angle_alpha    59.999965859506
_cell_angle_beta     59.99997929275063
_cell_angle_gamma    59.99997768374289

_space_group_name_H-M_alt    "P 1"
_space_group_IT_number       1

loop_
  _space_group_symop_operation_xyz
  'x, y, z'

loop_
  _atom_site_type_symbol
  _atom_site_label
  _atom_site_symmetry_multiplicity
  _atom_site_fract_x
  _atom_site_fract_y
  _atom_site_fract_z
  _atom_site_occupancy
  Ga  Ga1       1.0  0.24999994187375005  0.2500002145585903  0.25000001363611934  1.0000
  Ga  Ga2       1.0  0.750000180134042  0.7499999498641233  0.7499998287897722  1.0000
  V   V1        1.0  0.999999933638827  0.9999999999999921  4.960073738018467e-08  1.0000
  N   N1        1.0  0.2890677974521268  0.28907042670534655  0.7109308096685281  1.0000
  N   N2        1.0  0.7109327792466911  0.7109281816680477  0.2890724651699243  1.0000
  N   N3        1.0  0.7109290505077827  0.2890704693739951  0.2890682526137779  1.0000
  N   N4        1.0  0.2890683775386268  0.71093052460631  0.7109311304082355  1.0000
  N   N5        1.0  0.2890690217718181  0.7109286035515645  0.2890691905052855  1.0000
  N   N6        1.0  0.7109329236116686  0.2890716010925119  0.7109283428830754  1.0000
