data_image0
_chemical_formula_structural       Ga2WN6
_chemical_formula_sum              "Ga2 W1 N6"
_cell_length_a       5.207192934941337
_cell_length_b       5.20719258588662
_cell_length_c       5.2071931156646825
_cell_angle_alpha    60.000000434207756
_cell_angle_beta     59.99999979011646
_cell_angle_gamma    60.000001113242654

_space_group_name_H-M_alt    "P 1"
_space_group_IT_number       1

loop_
  _space_group_symop_operation_xyz
  'x, y, z'

loop_
  _atom_site_type_symbol
  _atom_site_label
  _atom_site_symmetry_multiplicity
  _atom_site_fract_x
  _atom_site_fract_y
  _atom_site_fract_z
  _atom_site_occupancy
  Ga  Ga1       1.0  0.24999870491187048  0.24999961853910294  0.2500012797370848  1.0000
  Ga  Ga2       1.0  0.749999798050302  0.7500010641690341  0.7499981489973533  1.0000
  W   W1        1.0  0.9999999334516048  3.998442165674946e-08  0.9999998423645698  1.0000
  N   N1        1.0  0.267307112189549  0.2673059725107526  0.7326931761499043  1.0000
  N   N2        1.0  0.7326939567752386  0.7326929861629807  0.26730774241871674  1.0000
  N   N3        1.0  0.7326937841488418  0.2673057059433104  0.2673072355617824  1.0000
  N   N4        1.0  0.2673065770990542  0.7326942782134057  0.7326928154886818  1.0000
  N   N5        1.0  0.267305756458177  0.7326937000349008  0.26730714335974337  1.0000
  N   N6        1.0  0.7326943150297275  0.2673065945891356  0.7326926092739999  1.0000
