data_image0
_chemical_formula_structural       Ga2ZnSe6
_chemical_formula_sum              "Ga2 Zn1 Se6"
_cell_length_a       6.539302218697228
_cell_length_b       6.539302193079918
_cell_length_c       6.539302455381651
_cell_angle_alpha    59.99999964325013
_cell_angle_beta     59.99999932182214
_cell_angle_gamma    59.99999789070585

_space_group_name_H-M_alt    "P 1"
_space_group_IT_number       1

loop_
  _space_group_symop_operation_xyz
  'x, y, z'

loop_
  _atom_site_type_symbol
  _atom_site_label
  _atom_site_symmetry_multiplicity
  _atom_site_fract_x
  _atom_site_fract_y
  _atom_site_fract_z
  _atom_site_occupancy
  Ga  Ga1       1.0  0.2500000025232116  0.25000000014494944  0.24999999418670893  1.0000
  Ga  Ga2       1.0  0.7499999920876381  0.7500000097993409  0.7499999963233844  1.0000
  Zn  Zn1       1.0  0.9999999988768923  0.9999999662878284  4.188508084737953e-08  1.0000
  Se  Se1       1.0  0.28759390848639854  0.28759393941341016  0.7124060295291036  1.0000
  Se  Se2       1.0  0.712406042389885  0.7124060798953722  0.28759387112097046  1.0000
  Se  Se3       1.0  0.7124060247063837  0.28759398711144024  0.2875938953070863  1.0000
  Se  Se4       1.0  0.28759395668706317  0.7124060677824132  0.71240612521338  1.0000
  Se  Se5       1.0  0.2875939313080179  0.7124061107662579  0.28759384033804725  1.0000
  Se  Se6       1.0  0.7124061391612554  0.28759384111818004  0.7124062054997944  1.0000
