data_image0
_chemical_formula_structural       Ga2ZrN6
_chemical_formula_sum              "Ga2 Zr1 N6"
_cell_length_a       5.146611497843533
_cell_length_b       5.146611483331058
_cell_length_c       5.146611544327531
_cell_angle_alpha    59.9999999287961
_cell_angle_beta     59.99999963656206
_cell_angle_gamma    59.99999750462414

_space_group_name_H-M_alt    "P 1"
_space_group_IT_number       1

loop_
  _space_group_symop_operation_xyz
  'x, y, z'

loop_
  _atom_site_type_symbol
  _atom_site_label
  _atom_site_symmetry_multiplicity
  _atom_site_fract_x
  _atom_site_fract_y
  _atom_site_fract_z
  _atom_site_occupancy
  Ga  Ga1       1.0  0.24999998177896884  0.250000021498058  0.2500000197983797  1.0000
  Ga  Ga2       1.0  0.749999973438445  0.7500000811521513  0.7500000000978874  1.0000
  Zr  Zr1       1.0  1.0431834462584362e-07  0.9999999024318391  0.999999955821362  1.0000
  N   N1        1.0  0.30023678932260384  0.3002367767172085  0.6997632244926446  1.0000
  N   N2        1.0  0.6997631573053001  0.69976334497069  0.30023671245849326  1.0000
  N   N3        1.0  0.6997631265082684  0.3002367414896467  0.30023691047907203  1.0000
  N   N4        1.0  0.30023682316049805  0.6997631422271358  0.6997633868154411  1.0000
  N   N5        1.0  0.300236867697883  0.6997632382444996  0.30023659836826394  1.0000
  N   N6        1.0  0.6997631665009917  0.30023676207812644  0.699763217525179  1.0000
