data_image0
_chemical_formula_structural       Ge2AsSe6
_chemical_formula_sum              "Ge2 As1 Se6"
_cell_length_a       6.37297124915534
_cell_length_b       6.372968633084555
_cell_length_c       6.372969223664169
_cell_angle_alpha    60.0000074531148
_cell_angle_beta     60.00001970316438
_cell_angle_gamma    59.99997896043239

_space_group_name_H-M_alt    "P 1"
_space_group_IT_number       1

loop_
  _space_group_symop_operation_xyz
  'x, y, z'

loop_
  _atom_site_type_symbol
  _atom_site_label
  _atom_site_symmetry_multiplicity
  _atom_site_fract_x
  _atom_site_fract_y
  _atom_site_fract_z
  _atom_site_occupancy
  Ge  Ge1       1.0  0.2500002501179436  0.24999996255907883  0.24999924803979123  1.0000
  Ge  Ge2       1.0  0.7499980731052208  0.7499997877453201  0.7499996866113803  1.0000
  As  As1       1.0  0.9999994138615749  0.9999993504378909  0.9999971202654199  1.0000
  Se  Se1       1.0  0.29100714989397247  0.29100653942173926  0.708993386406353  1.0000
  Se  Se2       1.0  0.7089938794891575  0.7089936317522733  0.29100684838757535  1.0000
  Se  Se3       1.0  0.7089933318585241  0.2910071858868722  0.29100764565533543  1.0000
  Se  Se4       1.0  0.29100688759499144  0.7089943170816712  0.7089941028891625  1.0000
  Se  Se5       1.0  0.2910071136683443  0.7089932074793355  0.29100698084914817  1.0000
  Se  Se6       1.0  0.7089939784341948  0.29100595475977376  0.7089949180200731  1.0000
