data_image0
_chemical_formula_structural       Ge2AsN6
_chemical_formula_sum              "Ge2 As1 N6"
_cell_length_a       5.069911316688473
_cell_length_b       5.069911089250503
_cell_length_c       5.069911190798345
_cell_angle_alpha    59.99999947101035
_cell_angle_beta     60.000000476657576
_cell_angle_gamma    59.99999922716639

_space_group_name_H-M_alt    "P 1"
_space_group_IT_number       1

loop_
  _space_group_symop_operation_xyz
  'x, y, z'

loop_
  _atom_site_type_symbol
  _atom_site_label
  _atom_site_symmetry_multiplicity
  _atom_site_fract_x
  _atom_site_fract_y
  _atom_site_fract_z
  _atom_site_occupancy
  Ge  Ge1       1.0  0.2500000754147813  0.24999996187328824  0.25000020869291467  1.0000
  Ge  Ge2       1.0  0.7500000230563049  0.7500000305626281  0.7500001502615711  1.0000
  As  As1       1.0  1.9296848845857123e-07  1.521899047839673e-07  2.672707167810355e-07  1.0000
  N   N1        1.0  0.29090469029227894  0.29090490846355777  0.7090951921106948  1.0000
  N   N2        1.0  0.7090947506167357  0.7090946515597739  0.29090531537447156  1.0000
  N   N3        1.0  0.7090956143325408  0.2909046936071327  0.2909045761564259  1.0000
  N   N4        1.0  0.29090554654955686  0.7090946055192244  0.7090949217068797  1.0000
  N   N5        1.0  0.2909045235260245  0.7090954788291972  0.2909046495911081  1.0000
  N   N6        1.0  0.7090945818907984  0.29090551129608  0.7090947050558943  1.0000
