data_image0
_chemical_formula_structural       Ge2AsS6
_chemical_formula_sum              "Ge2 As1 S6"
_cell_length_a       6.4254231288735815
_cell_length_b       6.425422977878463
_cell_length_c       6.425422992382312
_cell_angle_alpha    60.000000732987665
_cell_angle_beta     60.00000133744079
_cell_angle_gamma    60.00000065315987

_space_group_name_H-M_alt    "P 1"
_space_group_IT_number       1

loop_
  _space_group_symop_operation_xyz
  'x, y, z'

loop_
  _atom_site_type_symbol
  _atom_site_label
  _atom_site_symmetry_multiplicity
  _atom_site_fract_x
  _atom_site_fract_y
  _atom_site_fract_z
  _atom_site_occupancy
  Ge  Ge1       1.0  0.24999980351137938  0.25000010564724107  0.2500000331755339  1.0000
  Ge  Ge2       1.0  0.7500000562189559  0.7499999433476543  0.7499999634812279  1.0000
  As  As1       1.0  8.35004054170219e-09  1.9060923733792375e-09  1.3547746866251453e-08  1.0000
  S   S1        1.0  0.25580365589557413  0.25580379384819096  0.7441962666516408  1.0000
  S   S2        1.0  0.7441963685869509  0.7441961598420951  0.255803701506602  1.0000
  S   S3        1.0  0.7441963712272955  0.2558037642055747  0.25580368850767743  1.0000
  S   S4        1.0  0.2558037096717061  0.7441962466674783  0.744196306892104  1.0000
  S   S5        1.0  0.25580367751490657  0.7441962528977492  0.2558037574170008  1.0000
  S   S6        1.0  0.7441963423020479  0.25580372557173603  0.7441962769439987  1.0000
