data_image0
_chemical_formula_structural       Ge2AsO6
_chemical_formula_sum              "Ge2 As1 O6"
_cell_length_a       5.264688684396552
_cell_length_b       5.264688655559806
_cell_length_c       5.264689010359232
_cell_angle_alpha    59.999999008732296
_cell_angle_beta     59.99999756828616
_cell_angle_gamma    59.99999884722254

_space_group_name_H-M_alt    "P 1"
_space_group_IT_number       1

loop_
  _space_group_symop_operation_xyz
  'x, y, z'

loop_
  _atom_site_type_symbol
  _atom_site_label
  _atom_site_symmetry_multiplicity
  _atom_site_fract_x
  _atom_site_fract_y
  _atom_site_fract_z
  _atom_site_occupancy
  Ge  Ge1       1.0  0.25000000756705093  0.250000202336252  0.2499997836115171  1.0000
  Ge  Ge2       1.0  0.7499999030548322  0.7500000184450746  0.7499999043815271  1.0000
  As  As1       1.0  2.1157484979867358e-08  2.326339283115773e-09  3.00459312451633e-08  1.0000
  O   O1        1.0  0.24495690620227883  0.24495680089435462  0.7550431175741285  1.0000
  O   O2        1.0  0.7550432039486303  0.7550430779151913  0.2449569531496675  1.0000
  O   O3        1.0  0.7550431326727186  0.24495693326666937  0.24495676178603729  1.0000
  O   O4        1.0  0.24495690323687846  0.7550430432491018  0.7550433446914889  1.0000
  O   O5        1.0  0.24495678962388506  0.7550431004882378  0.24495692813004  1.0000
  O   O6        1.0  0.7550431318809852  0.24495681786906637  0.7550432418357138  1.0000
