data_image0
_chemical_formula_structural       Ge2BS6
_chemical_formula_sum              "Ge2 B1 S6"
_cell_length_a       6.210261547603332
_cell_length_b       6.210261128015585
_cell_length_c       6.210261376236759
_cell_angle_alpha    59.99999908536078
_cell_angle_beta     59.99999752443325
_cell_angle_gamma    59.99999873784281

_space_group_name_H-M_alt    "P 1"
_space_group_IT_number       1

loop_
  _space_group_symop_operation_xyz
  'x, y, z'

loop_
  _atom_site_type_symbol
  _atom_site_label
  _atom_site_symmetry_multiplicity
  _atom_site_fract_x
  _atom_site_fract_y
  _atom_site_fract_z
  _atom_site_occupancy
  Ge  Ge1       1.0  0.2500000236695243  0.2500002773993735  0.25000023059379706  1.0000
  Ge  Ge2       1.0  0.7500000970593335  0.7499996607522588  0.7500006139427114  1.0000
  B   B1        1.0  0.9999999375138031  5.9163931509261745e-08  1.13225636002099e-08  1.0000
  S   S1        1.0  0.22855189709887652  0.22855195845242893  0.7714480499689698  1.0000
  S   S2        1.0  0.7714480746376635  0.7714480250581986  0.22855182066248086  1.0000
  S   S3        1.0  0.7714479608324164  0.22855211004034653  0.22855182213937955  1.0000
  S   S4        1.0  0.22855192775893607  0.7714479109407681  0.7714479392898923  1.0000
  S   S5        1.0  0.22855213247287248  0.7714478265404778  0.22855185177727969  1.0000
  S   S6        1.0  0.7714480095724086  0.22855213133244362  0.7714477275262561  1.0000
