data_image0
_chemical_formula_structural       Ge2BO6
_chemical_formula_sum              "Ge2 B1 O6"
_cell_length_a       4.9145946316848175
_cell_length_b       4.9145943832528545
_cell_length_c       4.914594327336348
_cell_angle_alpha    60.000000315859786
_cell_angle_beta     60.00000127810569
_cell_angle_gamma    59.99999838146137

_space_group_name_H-M_alt    "P 1"
_space_group_IT_number       1

loop_
  _space_group_symop_operation_xyz
  'x, y, z'

loop_
  _atom_site_type_symbol
  _atom_site_label
  _atom_site_symmetry_multiplicity
  _atom_site_fract_x
  _atom_site_fract_y
  _atom_site_fract_z
  _atom_site_occupancy
  Ge  Ge1       1.0  0.24999993586177377  0.24999997817928826  0.250000117983838  1.0000
  Ge  Ge2       1.0  0.7499998579923517  0.7500000018234  0.7500001323247558  1.0000
  B   B1        1.0  6.999691480441086e-09  8.472993438599864e-08  0.9999999704132345  1.0000
  O   O1        1.0  0.21853159513572004  0.21853183778060378  0.7814681769041624  1.0000
  O   O2        1.0  0.7814686569508265  0.7814680151271761  0.21853162093508505  1.0000
  O   O3        1.0  0.7814682603721959  0.21853150084221704  0.21853184997828387  1.0000
  O   O4        1.0  0.21853174356363153  0.7814684691922407  0.7814681761534609  1.0000
  O   O5        1.0  0.21853182047446304  0.7814685053203667  0.21853149745717879  1.0000
  O   O6        1.0  0.7814681745355055  0.21853160426927698  0.7814683860391763  1.0000
