data_image0
_chemical_formula_structural       Ge2GaO6
_chemical_formula_sum              "Ge2 Ga1 O6"
_cell_length_a       5.27139131689546
_cell_length_b       5.271391653463254
_cell_length_c       5.271391623666659
_cell_angle_alpha    60.00000019204907
_cell_angle_beta     60.00000061491685
_cell_angle_gamma    60.000000258503

_space_group_name_H-M_alt    "P 1"
_space_group_IT_number       1

loop_
  _space_group_symop_operation_xyz
  'x, y, z'

loop_
  _atom_site_type_symbol
  _atom_site_label
  _atom_site_symmetry_multiplicity
  _atom_site_fract_x
  _atom_site_fract_y
  _atom_site_fract_z
  _atom_site_occupancy
  Ge  Ge1       1.0  0.24999988031522896  0.2500001616667565  0.24999993604400625  1.0000
  Ge  Ge2       1.0  0.7499998473468228  0.7500000760852957  0.7500000364901037  1.0000
  Ga  Ga1       1.0  1.5200654203962768e-08  6.970141241263313e-09  2.1938284356728765e-09  1.0000
  O   O1        1.0  0.2563588011822068  0.25635866844413535  0.7436413225390597  1.0000
  O   O2        1.0  0.7436412316282343  0.7436413044425345  0.2563586677941979  1.0000
  O   O3        1.0  0.7436412273571578  0.25635877678878427  0.2563587414892492  1.0000
  O   O4        1.0  0.2563589097357513  0.743641126396468  0.7436413283021308  1.0000
  O   O5        1.0  0.25635871912228325  0.7436412402443343  0.25635878299912285  1.0000
  O   O6        1.0  0.7436413602430503  0.2563586652643004  0.7436411930842874  1.0000
