data_image0
_chemical_formula_structural       Ge2GaTe6
_chemical_formula_sum              "Ge2 Ga1 Te6"
_cell_length_a       7.147927170233396
_cell_length_b       7.147927110699244
_cell_length_c       7.147927195270465
_cell_angle_alpha    59.99999961110158
_cell_angle_beta     59.99999976708107
_cell_angle_gamma    59.99999903849737

_space_group_name_H-M_alt    "P 1"
_space_group_IT_number       1

loop_
  _space_group_symop_operation_xyz
  'x, y, z'

loop_
  _atom_site_type_symbol
  _atom_site_label
  _atom_site_symmetry_multiplicity
  _atom_site_fract_x
  _atom_site_fract_y
  _atom_site_fract_z
  _atom_site_occupancy
  Ge  Ge1       1.0  0.24999999876619833  0.25000006866278496  0.24999993142471244  1.0000
  Ge  Ge2       1.0  0.7499999803767516  0.7499999678220506  0.7499999339092738  1.0000
  Ga  Ga1       1.0  0.999999973271121  4.6262519722217406e-08  0.999999970647082  1.0000
  Te  Te1       1.0  0.2721740732053176  0.27217411758750903  0.7278259400047734  1.0000
  Te  Te2       1.0  0.7278259247685125  0.7278258914825001  0.27217413807322516  1.0000
  Te  Te3       1.0  0.7278259138917312  0.27217406131406124  0.2721740615517246  1.0000
  Te  Te4       1.0  0.2721741416190319  0.7278258672248948  0.7278259328908597  1.0000
  Te  Te5       1.0  0.2721740627776741  0.727825882431352  0.27217413432103066  1.0000
  Te  Te6       1.0  0.7278259319821009  0.2721740975104041  0.7278259557311012  1.0000
