data_image0
_chemical_formula_structural       Ge2IrSe6
_chemical_formula_sum              "Ge2 Ir1 Se6"
_cell_length_a       6.552231458032692
_cell_length_b       6.552231472075408
_cell_length_c       6.552231543814953
_cell_angle_alpha    59.999999546460835
_cell_angle_beta     59.99999858429015
_cell_angle_gamma    59.999999418334596

_space_group_name_H-M_alt    "P 1"
_space_group_IT_number       1

loop_
  _space_group_symop_operation_xyz
  'x, y, z'

loop_
  _atom_site_type_symbol
  _atom_site_label
  _atom_site_symmetry_multiplicity
  _atom_site_fract_x
  _atom_site_fract_y
  _atom_site_fract_z
  _atom_site_occupancy
  Ge  Ge1       1.0  0.25000003050375796  0.24999995535140315  0.24999995591382593  1.0000
  Ge  Ge2       1.0  0.7500000188261686  0.7500000735357102  0.7500000323253144  1.0000
  Ir  Ir1       1.0  1.5167423749740432e-08  0.9999999439239192  1.0286899838655724e-07  1.0000
  Se  Se1       1.0  0.2630922280300643  0.2630922224804712  0.7369077842366595  1.0000
  Se  Se2       1.0  0.7369077931916029  0.7369078325754796  0.26309218055303046  1.0000
  Se  Se3       1.0  0.7369078358441332  0.26309219110962334  0.26309220014811036  1.0000
  Se  Se4       1.0  0.2630922039107828  0.7369077237561249  0.7369077705269432  1.0000
  Se  Se5       1.0  0.2630921840841531  0.736907829032041  0.26309223467758425  1.0000
  Se  Se6       1.0  0.7369076895134762  0.2630922353699236  0.7369077412556104  1.0000
