data_image0
_chemical_formula_structural       Ge2MoO6
_chemical_formula_sum              "Ge2 Mo1 O6"
_cell_length_a       5.303750664916961
_cell_length_b       5.303750876385954
_cell_length_c       5.303750593770924
_cell_angle_alpha    60.00000013954557
_cell_angle_beta     60.00000044674071
_cell_angle_gamma    60.00000026270688

_space_group_name_H-M_alt    "P 1"
_space_group_IT_number       1

loop_
  _space_group_symop_operation_xyz
  'x, y, z'

loop_
  _atom_site_type_symbol
  _atom_site_label
  _atom_site_symmetry_multiplicity
  _atom_site_fract_x
  _atom_site_fract_y
  _atom_site_fract_z
  _atom_site_occupancy
  Ge  Ge1       1.0  0.24999987000279245  0.2500004029663098  0.2499997818523871  1.0000
  Ge  Ge2       1.0  0.7499999821264031  0.7499997333168509  0.7500002347862221  1.0000
  Mo  Mo1       1.0  1.741711651079359e-08  0.9999999999999997  4.489649256845e-09  1.0000
  O   O1        1.0  0.25528952164847746  0.2552895541550127  0.7447105053979056  1.0000
  O   O2        1.0  0.7447105219408187  0.7447103604444559  0.2552894999560873  1.0000
  O   O3        1.0  0.744710465415422  0.25528956951422277  0.2552895012740623  1.0000
  O   O4        1.0  0.25528958415437203  0.7447104120521939  0.7447104864607886  1.0000
  O   O5        1.0  0.2552896128044449  0.7447103587146885  0.2552894986826973  1.0000
  O   O6        1.0  0.7447103996219109  0.2552896297793446  0.7447104570236099  1.0000
