data_image0
_chemical_formula_structural       Ge2NO6
_chemical_formula_sum              "Ge2 N1 O6"
_cell_length_a       4.918745249309622
_cell_length_b       4.918744790547333
_cell_length_c       4.918744694531451
_cell_angle_alpha    60.000003159150666
_cell_angle_beta     60.000003129219216
_cell_angle_gamma    60.00000167653938

_space_group_name_H-M_alt    "P 1"
_space_group_IT_number       1

loop_
  _space_group_symop_operation_xyz
  'x, y, z'

loop_
  _atom_site_type_symbol
  _atom_site_label
  _atom_site_symmetry_multiplicity
  _atom_site_fract_x
  _atom_site_fract_y
  _atom_site_fract_z
  _atom_site_occupancy
  Ge  Ge1       1.0  0.24999977844001003  0.250000162839694  0.24999936465797176  1.0000
  Ge  Ge2       1.0  0.7499997581681802  0.7500002270739525  0.7499992574922913  1.0000
  N   N1        1.0  0.9999994680539694  3.2369252973206305e-08  0.9999956124263377  1.0000
  O   O1        1.0  0.23345144884813618  0.23345111437416097  0.7665492047035725  1.0000
  O   O2        1.0  0.7665489622412489  0.7665488846167863  0.23345152789360268  1.0000
  O   O3        1.0  0.7665481778111451  0.23345197196432427  0.23345238274329663  1.0000
  O   O4        1.0  0.23345030377767464  0.7665496181072698  0.7665500194466895  1.0000
  O   O5        1.0  0.2334522266887716  0.76654770436062  0.23345248432674717  1.0000
  O   O6        1.0  0.7665498592347968  0.23345027029777493  0.7665501490697127  1.0000
