data_image0
_chemical_formula_structural       Ge2PS6
_chemical_formula_sum              "Ge2 P1 S6"
_cell_length_a       6.359357801507674
_cell_length_b       6.3593579215526415
_cell_length_c       6.3593578141036105
_cell_angle_alpha    60.00000056602821
_cell_angle_beta     60.000002616549374
_cell_angle_gamma    60.00000197006969

_space_group_name_H-M_alt    "P 1"
_space_group_IT_number       1

loop_
  _space_group_symop_operation_xyz
  'x, y, z'

loop_
  _atom_site_type_symbol
  _atom_site_label
  _atom_site_symmetry_multiplicity
  _atom_site_fract_x
  _atom_site_fract_y
  _atom_site_fract_z
  _atom_site_occupancy
  Ge  Ge1       1.0  0.25000016169896117  0.25000019567686654  0.24999976395711673  1.0000
  Ge  Ge2       1.0  0.7500000978421467  0.7499997877846246  0.7500002923955262  1.0000
  P   P1        1.0  0.9999999601447412  2.6962514514576948e-08  0.9999999671342258  1.0000
  S   S1        1.0  0.24040002740703253  0.2404001371711093  0.7595999392487426  1.0000
  S   S2        1.0  0.7595999239694619  0.759599882882365  0.24040000600993516  1.0000
  S   S3        1.0  0.759599827317046  0.24040023967523846  0.2403999716040768  1.0000
  S   S4        1.0  0.24040004330418943  0.7595997938594921  0.7596000355963453  1.0000
  S   S5        1.0  0.24040010738727427  0.7595998645600831  0.24040003693512696  1.0000
  S   S6        1.0  0.7595997988535492  0.24040007845763436  0.7596000213012959  1.0000
