data_image0
_chemical_formula_structural       Ge2RhO6
_chemical_formula_sum              "Ge2 Rh1 O6"
_cell_length_a       5.197267861822373
_cell_length_b       5.197267848394492
_cell_length_c       5.197267768494495
_cell_angle_alpha    60.00000052241692
_cell_angle_beta     60.00000081034539
_cell_angle_gamma    60.00000071801742

_space_group_name_H-M_alt    "P 1"
_space_group_IT_number       1

loop_
  _space_group_symop_operation_xyz
  'x, y, z'

loop_
  _atom_site_type_symbol
  _atom_site_label
  _atom_site_symmetry_multiplicity
  _atom_site_fract_x
  _atom_site_fract_y
  _atom_site_fract_z
  _atom_site_occupancy
  Ge  Ge1       1.0  0.25000000492155755  0.24999998340284257  0.2500000093036937  1.0000
  Ge  Ge2       1.0  0.7499999954196994  0.7499999549215611  0.7500000756328971  1.0000
  Rh  Rh1       1.0  0.9999999607940908  0.9999999976434831  5.926297086688525e-08  1.0000
  O   O1        1.0  0.2612976238966241  0.26129762862307554  0.7387023494712602  1.0000
  O   O2        1.0  0.7387024105100712  0.7387023874663804  0.2612975313953175  1.0000
  O   O3        1.0  0.7387023948333311  0.2612976543184298  0.2612976134646633  1.0000
  O   O4        1.0  0.2612976419067581  0.7387023947622606  0.7387023420958192  1.0000
  O   O5        1.0  0.2612976329290726  0.7387023785818507  0.26129761231372145  1.0000
  O   O6        1.0  0.7387023482905081  0.2612976304380548  0.7387024064301108  1.0000
