data_image0
_chemical_formula_structural       Ge2RuS6
_chemical_formula_sum              "Ge2 Ru1 S6"
_cell_length_a       6.208543392418183
_cell_length_b       6.208543394312134
_cell_length_c       6.2085432744094735
_cell_angle_alpha    59.999999731540356
_cell_angle_beta     59.999999804719
_cell_angle_gamma    59.99999990102889

_space_group_name_H-M_alt    "P 1"
_space_group_IT_number       1

loop_
  _space_group_symop_operation_xyz
  'x, y, z'

loop_
  _atom_site_type_symbol
  _atom_site_label
  _atom_site_symmetry_multiplicity
  _atom_site_fract_x
  _atom_site_fract_y
  _atom_site_fract_z
  _atom_site_occupancy
  Ge  Ge1       1.0  0.24999987128035228  0.250000103056783  0.250000014842533  1.0000
  Ge  Ge2       1.0  0.7500000604745072  0.7500000349682916  0.7499999357623286  1.0000
  Ru  Ru1       1.0  0.999999876027756  3.156282664413357e-08  5.7479495766141814e-08  1.0000
  S   S1        1.0  0.26092943513324796  0.26092942856301027  0.7390705495313022  1.0000
  S   S2        1.0  0.7390707112595554  0.7390705398118704  0.2609293785796842  1.0000
  S   S3        1.0  0.7390706227960702  0.26092936354671975  0.26092941997905145  1.0000
  S   S4        1.0  0.26092936825190866  0.7390705910194241  0.7390705910980327  1.0000
  S   S5        1.0  0.260929431703451  0.7390705688036998  0.26092946735922196  1.0000
  S   S6        1.0  0.739070644917325  0.26092935222694036  0.7390705531342587  1.0000
