data_image0
_chemical_formula_structural       Ge2RuSe6
_chemical_formula_sum              "Ge2 Ru1 Se6"
_cell_length_a       6.525710540333048
_cell_length_b       6.525710592175694
_cell_length_c       6.525710564016067
_cell_angle_alpha    59.99999996801559
_cell_angle_beta     60.00000001206525
_cell_angle_gamma    59.99999988977076

_space_group_name_H-M_alt    "P 1"
_space_group_IT_number       1

loop_
  _space_group_symop_operation_xyz
  'x, y, z'

loop_
  _atom_site_type_symbol
  _atom_site_label
  _atom_site_symmetry_multiplicity
  _atom_site_fract_x
  _atom_site_fract_y
  _atom_site_fract_z
  _atom_site_occupancy
  Ge  Ge1       1.0  0.2500000017423867  0.25000000631033414  0.24999998179381738  1.0000
  Ge  Ge2       1.0  0.7500000033687768  0.7499999926558129  0.7500000008230434  1.0000
  Ru  Ru1       1.0  7.077853242045559e-09  0.0  0.9999999918638729  1.0000
  Se  Se1       1.0  0.2634963188427409  0.26349633679346773  0.7365036776112184  1.0000
  Se  Se2       1.0  0.7365036708615165  0.7365036659262776  0.26349633841549935  1.0000
  Se  Se3       1.0  0.7365036763153098  0.26349632865213285  0.26349632387832606  1.0000
  Se  Se4       1.0  0.2634963283849257  0.7365036609300178  0.7365036820247991  1.0000
  Se  Se5       1.0  0.26349631882046143  0.7365036771174776  0.2634963242313748  1.0000
  Se  Se6       1.0  0.7365036773360495  0.26349632747906704  0.7365036845660164  1.0000
