data_image0
_chemical_formula_structural       Ge2RhSe6
_chemical_formula_sum              "Ge2 Rh1 Se6"
_cell_length_a       6.512655505907372
_cell_length_b       6.512655647271849
_cell_length_c       6.512655330956573
_cell_angle_alpha    60.00000118285249
_cell_angle_beta     60.000001213816404
_cell_angle_gamma    60.00000041199285

_space_group_name_H-M_alt    "P 1"
_space_group_IT_number       1

loop_
  _space_group_symop_operation_xyz
  'x, y, z'

loop_
  _atom_site_type_symbol
  _atom_site_label
  _atom_site_symmetry_multiplicity
  _atom_site_fract_x
  _atom_site_fract_y
  _atom_site_fract_z
  _atom_site_occupancy
  Ge  Ge1       1.0  0.2499998922619882  0.2499997705578099  0.2500003149679137  1.0000
  Ge  Ge2       1.0  0.7500002298786985  0.7500001842539  0.7499996700843802  1.0000
  Rh  Rh1       1.0  1.5059778022851423e-08  1.0907255886379749e-07  0.9999999317919432  1.0000
  Se  Se1       1.0  0.2644018049660035  0.26440184350487583  0.7355981262855174  1.0000
  Se  Se2       1.0  0.7355980615385473  0.7355981282318884  0.2644019904060925  1.0000
  Se  Se3       1.0  0.735598242856161  0.2644016999273791  0.264401872905926  1.0000
  Se  Se4       1.0  0.264401718333887  0.7355982962566824  0.7355981289422945  1.0000
  Se  Se5       1.0  0.2644016454965116  0.7355982069519947  0.2644018340261959  1.0000
  Se  Se6       1.0  0.7355983793437109  0.2644017365763481  0.7355981454346048  1.0000
