data_image0
_chemical_formula_structural       Ge2RuO6
_chemical_formula_sum              "Ge2 Ru1 O6"
_cell_length_a       5.367813560874775
_cell_length_b       5.367813251043848
_cell_length_c       5.367813343980809
_cell_angle_alpha    59.999999682174746
_cell_angle_beta     60.00000078554901
_cell_angle_gamma    60.0000008617384

_space_group_name_H-M_alt    "P 1"
_space_group_IT_number       1

loop_
  _space_group_symop_operation_xyz
  'x, y, z'

loop_
  _atom_site_type_symbol
  _atom_site_label
  _atom_site_symmetry_multiplicity
  _atom_site_fract_x
  _atom_site_fract_y
  _atom_site_fract_z
  _atom_site_occupancy
  Ge  Ge1       1.0  0.24999989622414967  0.24999997204354663  0.2499999885545681  1.0000
  Ge  Ge2       1.0  0.7499998956382313  0.7500000051148328  0.7499999853547545  1.0000
  Ru  Ru1       1.0  0.9999999255557953  6.844937353613703e-08  0.9999999825049002  1.0000
  O   O1        1.0  0.24303030573898834  0.24303029928636163  0.7569697558163249  1.0000
  O   O2        1.0  0.7569697498693378  0.7569696094226492  0.24303035890307464  1.0000
  O   O3        1.0  0.7569698469787446  0.24303021292535104  0.2430303531857769  1.0000
  O   O4        1.0  0.24303031768609867  0.7569697300083494  0.756969647045031  1.0000
  O   O5        1.0  0.24303037267289207  0.756969670411838  0.24303018588223776  1.0000
  O   O6        1.0  0.7569696428201742  0.2430304618984638  0.7569697309056554  1.0000
