data_image0
_chemical_formula_structural       Ge2TaS6
_chemical_formula_sum              "Ge2 Ta1 S6"
_cell_length_a       6.324153969178003
_cell_length_b       6.324153817906923
_cell_length_c       6.324153918771952
_cell_angle_alpha    59.99999958607761
_cell_angle_beta     60.00000009885269
_cell_angle_gamma    59.99999985779326

_space_group_name_H-M_alt    "P 1"
_space_group_IT_number       1

loop_
  _space_group_symop_operation_xyz
  'x, y, z'

loop_
  _atom_site_type_symbol
  _atom_site_label
  _atom_site_symmetry_multiplicity
  _atom_site_fract_x
  _atom_site_fract_y
  _atom_site_fract_z
  _atom_site_occupancy
  Ge  Ge1       1.0  0.2499999857356709  0.2500000381412322  0.24999995327476698  1.0000
  Ge  Ge2       1.0  0.7499999619852996  0.7500000234028094  0.7500000942755426  1.0000
  Ta  Ta1       1.0  0.9999999830324992  0.9999999961267707  8.839125905894725e-09  1.0000
  S   S1        1.0  0.2649742771876874  0.2649742707583444  0.73502574509364  1.0000
  S   S2        1.0  0.7350257239451878  0.735025734623873  0.2649742548132144  1.0000
  S   S3        1.0  0.735025747426641  0.26497426299145266  0.264974269261064  1.0000
  S   S4        1.0  0.26497430282088497  0.7350256881655555  0.7350257142261992  1.0000
  S   S5        1.0  0.26497430677739536  0.7350257279360191  0.2649742454527602  1.0000
  S   S6        1.0  0.7350257099401505  0.2649742580800521  0.7350257183950915  1.0000
