data_image0
_chemical_formula_structural       Ge2TaO6
_chemical_formula_sum              "Ge2 Ta1 O6"
_cell_length_a       5.343480512681782
_cell_length_b       5.3434802770502365
_cell_length_c       5.343480416709226
_cell_angle_alpha    59.999999392488725
_cell_angle_beta     59.999999756440474
_cell_angle_gamma    59.999999221098946

_space_group_name_H-M_alt    "P 1"
_space_group_IT_number       1

loop_
  _space_group_symop_operation_xyz
  'x, y, z'

loop_
  _atom_site_type_symbol
  _atom_site_label
  _atom_site_symmetry_multiplicity
  _atom_site_fract_x
  _atom_site_fract_y
  _atom_site_fract_z
  _atom_site_occupancy
  Ge  Ge1       1.0  0.2500000599398292  0.2500000285967223  0.25000002418589395  1.0000
  Ge  Ge2       1.0  0.7499997547673453  0.7500000514096261  0.7500002180592513  1.0000
  Ta  Ta1       1.0  2.5542037456913176e-09  0.9999999793716764  0.9999999921941048  1.0000
  O   O1        1.0  0.2617871895389368  0.26178720927576427  0.7382127663738517  1.0000
  O   O2        1.0  0.7382129378322457  0.7382127171641757  0.2617871399352882  1.0000
  O   O3        1.0  0.7382128229017326  0.26178713836660994  0.2617871862123523  1.0000
  O   O4        1.0  0.2617871915531145  0.7382128545423721  0.7382127713920269  1.0000
  O   O5        1.0  0.2617873456683895  0.738212812681252  0.26178702237023943  1.0000
  O   O6        1.0  0.7382127072903438  0.2617872008560536  0.7382129075394739  1.0000
