data_image0
_chemical_formula_structural       Ge2TaSe6
_chemical_formula_sum              "Ge2 Ta1 Se6"
_cell_length_a       6.541495268668742
_cell_length_b       6.54149530142094
_cell_length_c       6.541495304384552
_cell_angle_alpha    59.99999935390932
_cell_angle_beta     59.99999984512831
_cell_angle_gamma    60.00000047720994

_space_group_name_H-M_alt    "P 1"
_space_group_IT_number       1

loop_
  _space_group_symop_operation_xyz
  'x, y, z'

loop_
  _atom_site_type_symbol
  _atom_site_label
  _atom_site_symmetry_multiplicity
  _atom_site_fract_x
  _atom_site_fract_y
  _atom_site_fract_z
  _atom_site_occupancy
  Ge  Ge1       1.0  0.24999991465066287  0.25000003742239985  0.2499999506355593  1.0000
  Ge  Ge2       1.0  0.7499999934164091  0.750000020525945  0.7499999687190111  1.0000
  Ta  Ta1       1.0  2.7209070768037558e-08  0.9999999925109176  6.657512912009368e-08  1.0000
  Se  Se1       1.0  0.2695016959372279  0.26950168038006506  0.7304983053519984  1.0000
  Se  Se2       1.0  0.7304983322181207  0.7304982820824841  0.2695016781364554  1.0000
  Se  Se3       1.0  0.7304983361445263  0.26950170091394193  0.26950171284817215  1.0000
  Se  Se4       1.0  0.26950173063092697  0.7304982727822303  0.7304982900457891  1.0000
  Se  Se5       1.0  0.2695016905444048  0.7304983079537979  0.26950172066765893  1.0000
  Se  Se6       1.0  0.7304982836914448  0.26950170506005433  0.7304983057798592  1.0000
