data_image0
_chemical_formula_structural       Ge2TaTe6
_chemical_formula_sum              "Ge2 Ta1 Te6"
_cell_length_a       7.185376134801283
_cell_length_b       7.185376230421533
_cell_length_c       7.185375916740088
_cell_angle_alpha    60.00000099368142
_cell_angle_beta     60.00000115930698
_cell_angle_gamma    59.999997766922945

_space_group_name_H-M_alt    "P 1"
_space_group_IT_number       1

loop_
  _space_group_symop_operation_xyz
  'x, y, z'

loop_
  _atom_site_type_symbol
  _atom_site_label
  _atom_site_symmetry_multiplicity
  _atom_site_fract_x
  _atom_site_fract_y
  _atom_site_fract_z
  _atom_site_occupancy
  Ge  Ge1       1.0  0.2499999602309886  0.24999999325572111  0.2500000424100928  1.0000
  Ge  Ge2       1.0  0.7500000192192569  0.7500000752189636  0.749999901687413  1.0000
  Ta  Ta1       1.0  7.137429586147248e-08  0.999999993182012  0.999999861951458  1.0000
  Te  Te1       1.0  0.26635271628413365  0.2663526890241171  0.7336473208648518  1.0000
  Te  Te2       1.0  0.7336472508475822  0.7336472669537979  0.266352773318389  1.0000
  Te  Te3       1.0  0.7336473564339473  0.2663526021146175  0.2663526894632727  1.0000
  Te  Te4       1.0  0.2663526157778062  0.7336473964757103  0.7336473725234491  1.0000
  Te  Te5       1.0  0.2663526237205285  0.7336473752732767  0.26635266014250886  1.0000
  Te  Te6       1.0  0.7336473857450102  0.2663526079765811  0.7336473714035364  1.0000
