data_image0
_chemical_formula_structural       Hf2AsN6
_chemical_formula_sum              "Hf2 As1 N6"
_cell_length_a       4.470907151681616
_cell_length_b       4.470904322021783
_cell_length_c       4.470906919795541
_cell_angle_alpha    59.99999826517564
_cell_angle_beta     60.00001247986524
_cell_angle_gamma    60.00000470584025

_space_group_name_H-M_alt    "P 1"
_space_group_IT_number       1

loop_
  _space_group_symop_operation_xyz
  'x, y, z'

loop_
  _atom_site_type_symbol
  _atom_site_label
  _atom_site_symmetry_multiplicity
  _atom_site_fract_x
  _atom_site_fract_y
  _atom_site_fract_z
  _atom_site_occupancy
  Hf  Hf1       1.0  0.24999575688283435  0.25000588010734787  0.24999736727298474  1.0000
  Hf  Hf2       1.0  0.7500069567321744  0.7499931695573634  0.7500010454013493  1.0000
  As  As1       1.0  3.770349566789665e-05  0.9999883275599418  0.9999767740173585  1.0000
  N   N1        1.0  0.25667479959647416  0.25669865083904087  0.7433177940495964  1.0000
  N   N2        1.0  0.7433122905689047  0.7433250476522255  0.25668448455152076  1.0000
  N   N3        1.0  0.7433135038791583  0.2566802508419786  0.25668075710872335  1.0000
  N   N4        1.0  0.2566784744998877  0.7433083125208485  0.7433165572985287  1.0000
  N   N5        1.0  0.25667335762604615  0.743314919910479  0.25669768980572133  1.0000
  N   N6        1.0  0.7433070591447692  0.2566853706867412  0.7433278402981238  1.0000
