data_image0
_chemical_formula_structural       Hf2SbN6
_chemical_formula_sum              "Hf2 Sb1 N6"
_cell_length_a       5.115326926363156
_cell_length_b       5.1153261476344705
_cell_length_c       5.115325872537253
_cell_angle_alpha    60.0000034544015
_cell_angle_beta     59.99999645304562
_cell_angle_gamma    59.9999968450866

_space_group_name_H-M_alt    "P 1"
_space_group_IT_number       1

loop_
  _space_group_symop_operation_xyz
  'x, y, z'

loop_
  _atom_site_type_symbol
  _atom_site_label
  _atom_site_symmetry_multiplicity
  _atom_site_fract_x
  _atom_site_fract_y
  _atom_site_fract_z
  _atom_site_occupancy
  Hf  Hf1       1.0  0.24999966815378477  0.25000005609441056  0.2500002042996916  1.0000
  Hf  Hf2       1.0  0.7500000990734922  0.7499995864767078  0.7500002607056014  1.0000
  Sb  Sb1       1.0  0.999999993114552  0.9999999664802881  8.666950870101375e-08  1.0000
  N   N1        1.0  0.2723736995789159  0.27237397548975256  0.7276259994256741  1.0000
  N   N2        1.0  0.727626177314708  0.7276261507229578  0.27237382095172624  1.0000
  N   N3        1.0  0.7276263912714521  0.272374190135853  0.2723736859733138  1.0000
  N   N4        1.0  0.2723739607538674  0.7276261156467688  0.7276260572816854  1.0000
  N   N5        1.0  0.27237402153660484  0.7276260149527372  0.2723737672129559  1.0000
  N   N6        1.0  0.7276261308693408  0.27237390774741244  0.7276261070903843  1.0000
