data_image0
_chemical_formula_structural       Hg2AsO6
_chemical_formula_sum              "Hg2 As1 O6"
_cell_length_a       5.429073452205442
_cell_length_b       5.4290732483780095
_cell_length_c       5.429074099159602
_cell_angle_alpha    59.99999753944179
_cell_angle_beta     59.999999369066046
_cell_angle_gamma    59.99999965209851

_space_group_name_H-M_alt    "P 1"
_space_group_IT_number       1

loop_
  _space_group_symop_operation_xyz
  'x, y, z'

loop_
  _atom_site_type_symbol
  _atom_site_label
  _atom_site_symmetry_multiplicity
  _atom_site_fract_x
  _atom_site_fract_y
  _atom_site_fract_z
  _atom_site_occupancy
  Hg  Hg1       1.0  0.25000002636544144  0.2499999578533607  0.24999998805619314  1.0000
  Hg  Hg2       1.0  0.7499999889267184  0.7500000292172154  0.7499999737893149  1.0000
  As  As1       1.0  0.999999974499536  0.9999999616496905  0.9999999987705606  1.0000
  O   O1        1.0  0.24034166926437384  0.24034181390652867  0.7596582492686906  1.0000
  O   O2        1.0  0.7596581560458215  0.7596582837031696  0.24034182965949402  1.0000
  O   O3        1.0  0.7596582927432528  0.2403417576991111  0.24034174699334948  1.0000
  O   O4        1.0  0.240341787000491  0.7596581955329593  0.7596582253327063  1.0000
  O   O5        1.0  0.24034177358225342  0.7596582220923433  0.24034182917068667  1.0000
  O   O6        1.0  0.7596582432138435  0.2403417604664341  0.7596582539045083  1.0000
