data_image0
_chemical_formula_structural       Hg2AsS6
_chemical_formula_sum              "Hg2 As1 S6"
_cell_length_a       6.524060261681123
_cell_length_b       6.524060730919932
_cell_length_c       6.5240601451468425
_cell_angle_alpha    59.99999963232593
_cell_angle_beta     59.999999434222666
_cell_angle_gamma    59.9999983882456

_space_group_name_H-M_alt    "P 1"
_space_group_IT_number       1

loop_
  _space_group_symop_operation_xyz
  'x, y, z'

loop_
  _atom_site_type_symbol
  _atom_site_label
  _atom_site_symmetry_multiplicity
  _atom_site_fract_x
  _atom_site_fract_y
  _atom_site_fract_z
  _atom_site_occupancy
  Hg  Hg1       1.0  0.25000003580924074  0.2499999019979366  0.25000009731687584  1.0000
  Hg  Hg2       1.0  0.7499999305897727  0.7500001621713773  0.7499998211986373  1.0000
  As  As1       1.0  1.9658589685587023e-07  0.9999999624545161  0.999999945004398  1.0000
  S   S1        1.0  0.2551944112175499  0.25519423058880847  0.7448057922628225  1.0000
  S   S2        1.0  0.744805492685666  0.7448055219530334  0.25519463519977825  1.0000
  S   S3        1.0  0.7448056110329195  0.2551943111315228  0.25519432834986  1.0000
  S   S4        1.0  0.25519428549908335  0.7448057661787099  0.7448056307910017  1.0000
  S   S5        1.0  0.25519424398046286  0.7448058069692414  0.255194209902873  1.0000
  S   S6        1.0  0.7448057882089237  0.2551942722182652  0.7448055655115714  1.0000
