data_image0
_chemical_formula_structural       Hg2AsS6
_chemical_formula_sum              "Hg2 As1 S6"
_cell_length_a       6.5238086310024395
_cell_length_b       6.523808523571249
_cell_length_c       6.523808670353398
_cell_angle_alpha    59.999998726668835
_cell_angle_beta     59.99999819582879
_cell_angle_gamma    59.999999363894005

_space_group_name_H-M_alt    "P 1"
_space_group_IT_number       1

loop_
  _space_group_symop_operation_xyz
  'x, y, z'

loop_
  _atom_site_type_symbol
  _atom_site_label
  _atom_site_symmetry_multiplicity
  _atom_site_fract_x
  _atom_site_fract_y
  _atom_site_fract_z
  _atom_site_occupancy
  Hg  Hg1       1.0  0.2500000929791759  0.24999995050476834  0.24999997036747984  1.0000
  Hg  Hg2       1.0  0.7499999888572532  0.7499998721651142  0.7500000074960028  1.0000
  As  As1       1.0  1.2103647044537695e-07  8.823528458347245e-08  0.9999999382838343  1.0000
  S   S1        1.0  0.25517312860432145  0.2551732002790078  0.7448268712434213  1.0000
  S   S2        1.0  0.7448267625190821  0.7448267538051259  0.25517326809428514  1.0000
  S   S3        1.0  0.7448267465846297  0.25517325038060673  0.2551732497466988  1.0000
  S   S4        1.0  0.2551732201999906  0.744826758146575  0.7448267325680593  1.0000
  S   S5        1.0  0.2551732060294772  0.7448268031705612  0.2551732629380194  1.0000
  S   S6        1.0  0.7448267087446998  0.2551733029786364  0.7448267517534416  1.0000
