data_image0
_chemical_formula_structural       Hg2BiTe6
_chemical_formula_sum              "Hg2 Bi1 Te6"
_cell_length_a       7.722016558078083
_cell_length_b       7.722016789553338
_cell_length_c       7.722016582159991
_cell_angle_alpha    60.00000043139122
_cell_angle_beta     59.9999999926732
_cell_angle_gamma    60.000000188227766

_space_group_name_H-M_alt    "P 1"
_space_group_IT_number       1

loop_
  _space_group_symop_operation_xyz
  'x, y, z'

loop_
  _atom_site_type_symbol
  _atom_site_label
  _atom_site_symmetry_multiplicity
  _atom_site_fract_x
  _atom_site_fract_y
  _atom_site_fract_z
  _atom_site_occupancy
  Hg  Hg1       1.0  0.2500000171109972  0.24999999144210303  0.24999998713113888  1.0000
  Hg  Hg2       1.0  0.7499999890420191  0.7499999997029931  0.7499999928005457  1.0000
  Bi  Bi1       1.0  0.99999998004752  0.9999999746233172  0.9999998569047717  1.0000
  Te  Te1       1.0  0.28690937606227457  0.28690932185928564  0.7130906059463346  1.0000
  Te  Te2       1.0  0.7130906783483253  0.7130907263833491  0.2869092423128794  1.0000
  Te  Te3       1.0  0.7130905551818573  0.28690938554610596  0.28690944269970176  1.0000
  Te  Te4       1.0  0.2869091815955624  0.7130908260589311  0.7130907235646242  1.0000
  Te  Te5       1.0  0.28690945524033  0.7130905825847601  0.28690939496038426  1.0000
  Te  Te6       1.0  0.7130907653081371  0.2869091960306074  0.7130907523882469  1.0000
