data_image0
_chemical_formula_structural       Hg2BiO6
_chemical_formula_sum              "Hg2 Bi1 O6"
_cell_length_a       5.800780211100336
_cell_length_b       5.800779948112019
_cell_length_c       5.800779800530915
_cell_angle_alpha    60.00000254473794
_cell_angle_beta     60.0000019614314
_cell_angle_gamma    60.00000334133787

_space_group_name_H-M_alt    "P 1"
_space_group_IT_number       1

loop_
  _space_group_symop_operation_xyz
  'x, y, z'

loop_
  _atom_site_type_symbol
  _atom_site_label
  _atom_site_symmetry_multiplicity
  _atom_site_fract_x
  _atom_site_fract_y
  _atom_site_fract_z
  _atom_site_occupancy
  Hg  Hg1       1.0  0.25000001978782876  0.2500000186457488  0.24999997806582722  1.0000
  Hg  Hg2       1.0  0.7500000000285975  0.7500000010422722  0.7499999982080372  1.0000
  Bi  Bi1       1.0  1.2888852471218156e-08  0.999999985220584  0.9999999716388769  1.0000
  O   O1        1.0  0.2502128173885314  0.2502127787125553  0.7497872026362501  1.0000
  O   O2        1.0  0.7497872297339119  0.7497872008599094  0.2502127800423831  1.0000
  O   O3        1.0  0.7497872039558646  0.25021278130978386  0.2502128418203009  1.0000
  O   O4        1.0  0.2502127562841727  0.7497871961513339  0.749787219833332  1.0000
  O   O5        1.0  0.2502127883323124  0.7497872132362959  0.2502128156747876  1.0000
  O   O6        1.0  0.749787189923115  0.2502127937836529  0.7497871739223629  1.0000
