data_image0
_chemical_formula_structural       Hg2BTe6
_chemical_formula_sum              "Hg2 B1 Te6"
_cell_length_a       8.172797476291322
_cell_length_b       8.172792684500417
_cell_length_c       8.172798545502243
_cell_angle_alpha    59.99998399077619
_cell_angle_beta     59.99998965799396
_cell_angle_gamma    59.99993648428129

_space_group_name_H-M_alt    "P 1"
_space_group_IT_number       1

loop_
  _space_group_symop_operation_xyz
  'x, y, z'

loop_
  _atom_site_type_symbol
  _atom_site_label
  _atom_site_symmetry_multiplicity
  _atom_site_fract_x
  _atom_site_fract_y
  _atom_site_fract_z
  _atom_site_occupancy
  Hg  Hg1       1.0  0.25000017801450575  0.2500002898391924  0.24999967840253448  1.0000
  Hg  Hg2       1.0  0.7499998482186568  0.749999442884912  0.7500002284762759  1.0000
  B   B1        1.0  7.781986740694428e-07  6.443779186518694e-08  0.9999988934819267  1.0000
  Te  Te1       1.0  0.1925113665409128  0.1925109980446145  0.8074889748995498  1.0000
  Te  Te2       1.0  0.8074883405107233  0.8074889504729463  0.19251158689386877  1.0000
  Te  Te3       1.0  0.8074893355667128  0.19250968122876255  0.1925115244191611  1.0000
  Te  Te4       1.0  0.19250925724573303  0.8074906853887113  0.807489132164756  1.0000
  Te  Te5       1.0  0.1925104789234625  0.807489976251723  0.1925113033997301  1.0000
  Te  Te6       1.0  0.807490387872265  0.19250990932556405  0.807488692861728  1.0000
