data_image0
_chemical_formula_structural       Hg2BiO6
_chemical_formula_sum              "Hg2 Bi1 O6"
_cell_length_a       5.800020318738233
_cell_length_b       5.800020723902643
_cell_length_c       5.8000203080043455
_cell_angle_alpha    60.000000014575996
_cell_angle_beta     59.999999644468346
_cell_angle_gamma    59.99999821953523

_space_group_name_H-M_alt    "P 1"
_space_group_IT_number       1

loop_
  _space_group_symop_operation_xyz
  'x, y, z'

loop_
  _atom_site_type_symbol
  _atom_site_label
  _atom_site_symmetry_multiplicity
  _atom_site_fract_x
  _atom_site_fract_y
  _atom_site_fract_z
  _atom_site_occupancy
  Hg  Hg1       1.0  0.2500000218032828  0.2499999959852458  0.2500000144844443  1.0000
  Hg  Hg2       1.0  0.7499999735682182  0.7500000365230369  0.7500000254354644  1.0000
  Bi  Bi1       1.0  4.522730025768217e-08  0.9999999598791952  0.9999997560682876  1.0000
  O   O1        1.0  0.25025040193733783  0.25025051462894704  0.749749533365913  1.0000
  O   O2        1.0  0.7497495970742976  0.7497495009863667  0.25025037697399366  1.0000
  O   O3        1.0  0.7497494239555145  0.25025057426368863  0.2502505378477811  1.0000
  O   O4        1.0  0.25025034178083105  0.7497496335091879  0.7497496154640007  1.0000
  O   O5        1.0  0.25025053395310515  0.749749481365025  0.25025050473093063  1.0000
  O   O6        1.0  0.7497496424898075  0.2502503125300151  0.749749646718228  1.0000
