data_image0
_chemical_formula_structural       Hg2BS6
_chemical_formula_sum              "Hg2 B1 S6"
_cell_length_a       6.387860413139876
_cell_length_b       6.38786198969498
_cell_length_c       6.387861441117097
_cell_angle_alpha    59.99999175239314
_cell_angle_beta     59.99999007319653
_cell_angle_gamma    59.99999607408453

_space_group_name_H-M_alt    "P 1"
_space_group_IT_number       1

loop_
  _space_group_symop_operation_xyz
  'x, y, z'

loop_
  _atom_site_type_symbol
  _atom_site_label
  _atom_site_symmetry_multiplicity
  _atom_site_fract_x
  _atom_site_fract_y
  _atom_site_fract_z
  _atom_site_occupancy
  Hg  Hg1       1.0  0.2500000872898851  0.25000009633638554  0.24999992228482198  1.0000
  Hg  Hg2       1.0  0.749999961731178  0.7500000397601189  0.7500001526965641  1.0000
  B   B1        1.0  0.9999999346145074  0.9999999846615986  4.975476545583197e-08  1.0000
  S   S1        1.0  0.2227511631817114  0.2227514291459397  0.7772486443701605  1.0000
  S   S2        1.0  0.7772487381980554  0.7772486130028957  0.22275118195500268  1.0000
  S   S3        1.0  0.777248778843333  0.2227512553448294  0.22275136387837333  1.0000
  S   S4        1.0  0.22275151817977723  0.7772484512764223  0.7772487000841485  1.0000
  S   S5        1.0  0.22275131379122676  0.7772486589640181  0.22275141907900858  1.0000
  S   S6        1.0  0.777248502481781  0.222751454124897  0.7772487102031599  1.0000
