data_image0
_chemical_formula_structural       Hg2BO6
_chemical_formula_sum              "Hg2 B1 O6"
_cell_length_a       5.10281099632574
_cell_length_b       5.102811493462197
_cell_length_c       5.102809895559309
_cell_angle_alpha    60.00000335527683
_cell_angle_beta     60.00000520019021
_cell_angle_gamma    60.00000065571909

_space_group_name_H-M_alt    "P 1"
_space_group_IT_number       1

loop_
  _space_group_symop_operation_xyz
  'x, y, z'

loop_
  _atom_site_type_symbol
  _atom_site_label
  _atom_site_symmetry_multiplicity
  _atom_site_fract_x
  _atom_site_fract_y
  _atom_site_fract_z
  _atom_site_occupancy
  Hg  Hg1       1.0  0.25000001678411216  0.2499999357800186  0.24999999354589955  1.0000
  Hg  Hg2       1.0  0.7500000021652153  0.7500000401533715  0.7499999863098193  1.0000
  B   B1        1.0  0.9999999740573879  0.9999999759986294  1.4555377890763761e-09  1.0000
  O   O1        1.0  0.2210227331383765  0.22102250290414477  0.778977393393543  1.0000
  O   O2        1.0  0.7789772805558173  0.7789773530223767  0.22102268436786618  1.0000
  O   O3        1.0  0.7789773345278854  0.22102264728260101  0.22102272353253113  1.0000
  O   O4        1.0  0.22102265962001968  0.7789774030550524  0.7789771609723983  1.0000
  O   O5        1.0  0.22102264621878975  0.7789773808673772  0.22102269520325543  1.0000
  O   O6        1.0  0.7789773198373475  0.2210226790708153  0.7789773533639512  1.0000
