data_image0
_chemical_formula_structural       Hg2BiSe6
_chemical_formula_sum              "Hg2 Bi1 Se6"
_cell_length_a       6.928476317221724
_cell_length_b       6.928476638565904
_cell_length_c       6.928475922424681
_cell_angle_alpha    60.000000746243195
_cell_angle_beta     60.000001727166435
_cell_angle_gamma    60.000002710384955

_space_group_name_H-M_alt    "P 1"
_space_group_IT_number       1

loop_
  _space_group_symop_operation_xyz
  'x, y, z'

loop_
  _atom_site_type_symbol
  _atom_site_label
  _atom_site_symmetry_multiplicity
  _atom_site_fract_x
  _atom_site_fract_y
  _atom_site_fract_z
  _atom_site_occupancy
  Hg  Hg1       1.0  0.25000001652622816  0.2500001186107927  0.2499998980418395  1.0000
  Hg  Hg2       1.0  0.7500000251084395  0.7499999492620244  0.7500000886173653  1.0000
  Bi  Bi1       1.0  1.1790694040479796e-07  5.1263208887517106e-08  2.719146836710639e-07  1.0000
  Se  Se1       1.0  0.304126794490395  0.30412696166375625  0.6958731785727581  1.0000
  Se  Se2       1.0  0.6958725083578632  0.6958727526696172  0.30412736002265683  1.0000
  Se  Se3       1.0  0.6958731089058084  0.3041270898446874  0.30412685929007205  1.0000
  Se  Se4       1.0  0.30412742555756717  0.6958727994907384  0.6958724592885994  1.0000
  Se  Se5       1.0  0.3041270960981485  0.6958730497666361  0.3041270428248274  1.0000
  Se  Se6       1.0  0.695872927570633  0.30412723199753816  0.6958728314384489  1.0000
