data_image0
_chemical_formula_structural       Hg2BiTe6
_chemical_formula_sum              "Hg2 Bi1 Te6"
_cell_length_a       7.72204633293774
_cell_length_b       7.722045839126426
_cell_length_c       7.722046412198774
_cell_angle_alpha    59.999996233398335
_cell_angle_beta     59.99999870104563
_cell_angle_gamma    59.99999925400279

_space_group_name_H-M_alt    "P 1"
_space_group_IT_number       1

loop_
  _space_group_symop_operation_xyz
  'x, y, z'

loop_
  _atom_site_type_symbol
  _atom_site_label
  _atom_site_symmetry_multiplicity
  _atom_site_fract_x
  _atom_site_fract_y
  _atom_site_fract_z
  _atom_site_occupancy
  Hg  Hg1       1.0  0.2499999848279559  0.24999999750233334  0.24999997914917785  1.0000
  Hg  Hg2       1.0  0.7499999784998499  0.7499999877488891  0.7500000171731501  1.0000
  Bi  Bi1       1.0  0.9999998920641402  1.4274331357995875e-08  0.9999998046669782  1.0000
  Te  Te1       1.0  0.28686792633333963  0.2868681266729514  0.7131319346185557  1.0000
  Te  Te2       1.0  0.7131321201419999  0.7131319680148156  0.2868679654117315  1.0000
  Te  Te3       1.0  0.7131318256194998  0.28686824540073547  0.2868680825722876  1.0000
  Te  Te4       1.0  0.28686801084360236  0.7131319365190507  0.7131319902175515  1.0000
  Te  Te5       1.0  0.28686827022173983  0.7131316193465101  0.2868682964828745  1.0000
  Te  Te6       1.0  0.7131319996228744  0.28686810579467553  0.7131319330447833  1.0000
