data_image0
_chemical_formula_structural       Hg2BiSe6
_chemical_formula_sum              "Hg2 Bi1 Se6"
_cell_length_a       6.9286180718803845
_cell_length_b       6.92861788606816
_cell_length_c       6.928617588656011
_cell_angle_alpha    60.000000011799195
_cell_angle_beta     59.99999815779874
_cell_angle_gamma    59.999999861231686

_space_group_name_H-M_alt    "P 1"
_space_group_IT_number       1

loop_
  _space_group_symop_operation_xyz
  'x, y, z'

loop_
  _atom_site_type_symbol
  _atom_site_label
  _atom_site_symmetry_multiplicity
  _atom_site_fract_x
  _atom_site_fract_y
  _atom_site_fract_z
  _atom_site_occupancy
  Hg  Hg1       1.0  0.24999997676406888  0.24999998290864353  0.25000001192547583  1.0000
  Hg  Hg2       1.0  0.7499998882063068  0.7499999999881036  0.7500001596410442  1.0000
  Bi  Bi1       1.0  0.9999999889405969  0.9999999681820991  2.1438652642749395e-08  1.0000
  Se  Se1       1.0  0.30413528892326097  0.30413533783016106  0.6958646018790047  1.0000
  Se  Se2       1.0  0.6958650141981163  0.6958649155187461  0.3041349844596216  1.0000
  Se  Se3       1.0  0.6958646875826066  0.3041352062343396  0.30413532323641446  1.0000
  Se  Se4       1.0  0.30413512659935765  0.6958647890360353  0.6958647650639546  1.0000
  Se  Se5       1.0  0.3041351977874215  0.6958647096025569  0.3041352827096213  1.0000
  Se  Se6       1.0  0.6958648237421265  0.3041351035987206  0.6958648449099168  1.0000
