data_image0
_chemical_formula_structural       Hg2GaO6
_chemical_formula_sum              "Hg2 Ga1 O6"
_cell_length_a       5.345933219865702
_cell_length_b       5.345933358680022
_cell_length_c       5.345933400360464
_cell_angle_alpha    59.99999870171479
_cell_angle_beta     59.99999975061162
_cell_angle_gamma    59.999999156657616

_space_group_name_H-M_alt    "P 1"
_space_group_IT_number       1

loop_
  _space_group_symop_operation_xyz
  'x, y, z'

loop_
  _atom_site_type_symbol
  _atom_site_label
  _atom_site_symmetry_multiplicity
  _atom_site_fract_x
  _atom_site_fract_y
  _atom_site_fract_z
  _atom_site_occupancy
  Hg  Hg1       1.0  0.250000017012239  0.25000004975413  0.24999999244457496  1.0000
  Hg  Hg2       1.0  0.7500000240728568  0.7499999774385759  0.7500000131278185  1.0000
  Ga  Ga1       1.0  0.9999998676097643  0.9999999954180299  2.405795291619398e-07  1.0000
  O   O1        1.0  0.2563060546662803  0.25630602430725713  0.7436939563697461  1.0000
  O   O2        1.0  0.743694036839092  0.7436940395411956  0.25630600566463585  1.0000
  O   O3        1.0  0.7436940647220877  0.25630602705491096  0.25630595766533953  1.0000
  O   O4        1.0  0.25630611708993556  0.7436938695516975  0.7436938408139222  1.0000
  O   O5        1.0  0.2563060190074249  0.7436939112623362  0.25630601268568864  1.0000
  O   O6        1.0  0.7436938106635715  0.2563061021844681  0.743693953949665  1.0000
