data_image0
_chemical_formula_structural       Hg2GaTe6
_chemical_formula_sum              "Hg2 Ga1 Te6"
_cell_length_a       7.3416032705631835
_cell_length_b       7.341602722050813
_cell_length_c       7.341602090032437
_cell_angle_alpha    60.00000840360848
_cell_angle_beta     60.00000697233238
_cell_angle_gamma    60.00000070289483

_space_group_name_H-M_alt    "P 1"
_space_group_IT_number       1

loop_
  _space_group_symop_operation_xyz
  'x, y, z'

loop_
  _atom_site_type_symbol
  _atom_site_label
  _atom_site_symmetry_multiplicity
  _atom_site_fract_x
  _atom_site_fract_y
  _atom_site_fract_z
  _atom_site_occupancy
  Hg  Hg1       1.0  0.24999994988992835  0.2499998657707643  0.2500001282625449  1.0000
  Hg  Hg2       1.0  0.7499999556916085  0.750000086102319  0.750000027449309  1.0000
  Ga  Ga1       1.0  0.999999874267161  1.6014962909843756e-07  0.9999997812007336  1.0000
  Te  Te1       1.0  0.27399108706841263  0.2739911627595106  0.7260086557278604  1.0000
  Te  Te2       1.0  0.7260086988536366  0.7260086856835879  0.2739913200392132  1.0000
  Te  Te3       1.0  0.7260086257942288  0.2739915360957714  0.2739911666556428  1.0000
  Te  Te4       1.0  0.2739914267215853  0.7260087110531982  0.7260087897447516  1.0000
  Te  Te5       1.0  0.27399159759129615  0.726008548613058  0.2739913104197924  1.0000
  Te  Te6       1.0  0.7260087873372456  0.2739912297645755  0.726008823127932  1.0000
