data_image0
_chemical_formula_structural       Hg2GaSe6
_chemical_formula_sum              "Hg2 Ga1 Se6"
_cell_length_a       6.625171629115668
_cell_length_b       6.625170570833504
_cell_length_c       6.62517161232453
_cell_angle_alpha    59.999999583355255
_cell_angle_beta     59.99999855955477
_cell_angle_gamma    60.00000059514946

_space_group_name_H-M_alt    "P 1"
_space_group_IT_number       1

loop_
  _space_group_symop_operation_xyz
  'x, y, z'

loop_
  _atom_site_type_symbol
  _atom_site_label
  _atom_site_symmetry_multiplicity
  _atom_site_fract_x
  _atom_site_fract_y
  _atom_site_fract_z
  _atom_site_occupancy
  Hg  Hg1       1.0  0.2499999584555559  0.24999972475218346  0.25000019834006704  1.0000
  Hg  Hg2       1.0  0.7499999375487014  0.7500001484813531  0.7499999349337003  1.0000
  Ga  Ga1       1.0  0.9999999313231431  0.9999999759678878  7.503298685562636e-08  1.0000
  Se  Se1       1.0  0.29187823439085053  0.29187832021049026  0.7081216057676282  1.0000
  Se  Se2       1.0  0.7081217780855025  0.708121721247815  0.29187816478606166  1.0000
  Se  Se3       1.0  0.708121775886279  0.29187832141941217  0.29187821546706233  1.0000
  Se  Se4       1.0  0.29187819560317024  0.7081218586857004  0.7081217477598595  1.0000
  Se  Se5       1.0  0.29187842205937375  0.7081216063355632  0.2918783784418177  1.0000
  Se  Se6       1.0  0.7081217682652314  0.291878309416342  0.7081216890514401  1.0000
