data_image0
_chemical_formula_structural       Hg2GaSe6
_chemical_formula_sum              "Hg2 Ga1 Se6"
_cell_length_a       6.624653974239297
_cell_length_b       6.624653867409842
_cell_length_c       6.62465384851692
_cell_angle_alpha    60.00000067042535
_cell_angle_beta     60.000005535396994
_cell_angle_gamma    60.00000054672663

_space_group_name_H-M_alt    "P 1"
_space_group_IT_number       1

loop_
  _space_group_symop_operation_xyz
  'x, y, z'

loop_
  _atom_site_type_symbol
  _atom_site_label
  _atom_site_symmetry_multiplicity
  _atom_site_fract_x
  _atom_site_fract_y
  _atom_site_fract_z
  _atom_site_occupancy
  Hg  Hg1       1.0  0.2499999038257249  0.24999997535622084  0.2500000761650115  1.0000
  Hg  Hg2       1.0  0.7500000821605662  0.7500000480873568  0.7499998719495693  1.0000
  Ga  Ga1       1.0  1.3350674966703548e-07  1.5899405425242253e-07  1.6818613400672682e-09  1.0000
  Se  Se1       1.0  0.2918266626896542  0.2918265282401028  0.7081734908193033  1.0000
  Se  Se2       1.0  0.7081731673419168  0.7081733251168072  0.29182685429045385  1.0000
  Se  Se3       1.0  0.7081733256990828  0.29182670057938487  0.29182640411454314  1.0000
  Se  Se4       1.0  0.2918266005134809  0.7081733191666587  0.7081734036512031  1.0000
  Se  Se5       1.0  0.2918266453017391  0.7081733426563297  0.2918265047447356  1.0000
  Se  Se6       1.0  0.7081734785263434  0.2918266123828278  0.7081733618562662  1.0000
