data_image0
_chemical_formula_structural       Hg2IrS6
_chemical_formula_sum              "Hg2 Ir1 S6"
_cell_length_a       6.308712229992434
_cell_length_b       6.3087125790834575
_cell_length_c       6.308712252098464
_cell_angle_alpha    60.00000142410868
_cell_angle_beta     60.0000013425683
_cell_angle_gamma    59.99999839213697

_space_group_name_H-M_alt    "P 1"
_space_group_IT_number       1

loop_
  _space_group_symop_operation_xyz
  'x, y, z'

loop_
  _atom_site_type_symbol
  _atom_site_label
  _atom_site_symmetry_multiplicity
  _atom_site_fract_x
  _atom_site_fract_y
  _atom_site_fract_z
  _atom_site_occupancy
  Hg  Hg1       1.0  0.2500000097677518  0.2500000123129233  0.2500000234949657  1.0000
  Hg  Hg2       1.0  0.7499999935849413  0.74999999034626  0.7500000466508171  1.0000
  Ir  Ir1       1.0  0.9999999807736775  0.9999999204044602  0.9999999590596872  1.0000
  S   S1        1.0  0.2578221339215524  0.2578220750041641  0.7421778420016003  1.0000
  S   S2        1.0  0.7421778974030812  0.7421779645407581  0.2578220451299365  1.0000
  S   S3        1.0  0.7421780082365869  0.25782206202684244  0.25782203171700024  1.0000
  S   S4        1.0  0.2578220167278948  0.7421779911075613  0.7421780229917023  1.0000
  S   S5        1.0  0.25782202338587523  0.742177966251366  0.2578220355110647  1.0000
  S   S6        1.0  0.7421779496094068  0.25782202864240045  0.7421779855364217  1.0000
