data_image0
_chemical_formula_structural       Hg2MoSe6
_chemical_formula_sum              "Hg2 Mo1 Se6"
_cell_length_a       6.83964617465964
_cell_length_b       6.839646233793868
_cell_length_c       6.839646298034646
_cell_angle_alpha    59.999999152441944
_cell_angle_beta     60.00000062849732
_cell_angle_gamma    60.000000843063724

_space_group_name_H-M_alt    "P 1"
_space_group_IT_number       1

loop_
  _space_group_symop_operation_xyz
  'x, y, z'

loop_
  _atom_site_type_symbol
  _atom_site_label
  _atom_site_symmetry_multiplicity
  _atom_site_fract_x
  _atom_site_fract_y
  _atom_site_fract_z
  _atom_site_occupancy
  Hg  Hg1       1.0  0.24999999544458495  0.24999998794536932  0.2500000258319246  1.0000
  Hg  Hg2       1.0  0.7499999961384315  0.7500000103931466  0.7499999820599763  1.0000
  Mo  Mo1       1.0  0.9999999600789817  0.9999999982093438  5.7407434546883135e-08  1.0000
  Se  Se1       1.0  0.2505199941471489  0.2505200121712728  0.7494800145140696  1.0000
  Se  Se2       1.0  0.7494800391475421  0.7494799825859326  0.2505200020918639  1.0000
  Se  Se3       1.0  0.7494799512373694  0.2505200510500845  0.2505200370033309  1.0000
  Se  Se4       1.0  0.2505200418290739  0.7494799580323637  0.7494799209129732  1.0000
  Se  Se5       1.0  0.2505200199887027  0.7494799544257787  0.2505200121298913  1.0000
  Se  Se6       1.0  0.7494799941383959  0.25052004212208273  0.7494799225165482  1.0000
