data_image0
_chemical_formula_structural       Hg2MoS6
_chemical_formula_sum              "Hg2 Mo1 S6"
_cell_length_a       6.530297702741666
_cell_length_b       6.530297545917109
_cell_length_c       6.530297755580496
_cell_angle_alpha    59.9999962631211
_cell_angle_beta     59.999998190841474
_cell_angle_gamma    60.00000156891859

_space_group_name_H-M_alt    "P 1"
_space_group_IT_number       1

loop_
  _space_group_symop_operation_xyz
  'x, y, z'

loop_
  _atom_site_type_symbol
  _atom_site_label
  _atom_site_symmetry_multiplicity
  _atom_site_fract_x
  _atom_site_fract_y
  _atom_site_fract_z
  _atom_site_occupancy
  Hg  Hg1       1.0  0.2500000090667358  0.25000021739065026  0.24999980870260544  1.0000
  Hg  Hg2       1.0  0.7499999990774494  0.7500001795507277  0.7499999536494141  1.0000
  Mo  Mo1       1.0  0.9999999674732639  1.2940818470270814e-07  9.856635274929039e-08  1.0000
  S   S1        1.0  0.24933505421994484  0.2493351051549622  0.7506648992624  1.0000
  S   S2        1.0  0.7506648475370943  0.7506647197647015  0.24933522832656627  1.0000
  S   S3        1.0  0.7506649397652763  0.24933509541670978  0.24933526284018942  1.0000
  S   S4        1.0  0.24933527930923838  0.7506645944683381  0.75066467713395  1.0000
  S   S5        1.0  0.24933513845294283  0.7506647380332647  0.2493353853652207  1.0000
  S   S6        1.0  0.7506647533351845  0.24933523880035996  0.7506646880957791  1.0000
