data_image0
_chemical_formula_structural       Hg2NO6
_chemical_formula_sum              "Hg2 N1 O6"
_cell_length_a       5.3170221187275875
_cell_length_b       5.317022025156919
_cell_length_c       5.3170221894178535
_cell_angle_alpha    59.99999823681404
_cell_angle_beta     59.99999857338044
_cell_angle_gamma    60.00000036973893

_space_group_name_H-M_alt    "P 1"
_space_group_IT_number       1

loop_
  _space_group_symop_operation_xyz
  'x, y, z'

loop_
  _atom_site_type_symbol
  _atom_site_label
  _atom_site_symmetry_multiplicity
  _atom_site_fract_x
  _atom_site_fract_y
  _atom_site_fract_z
  _atom_site_occupancy
  Hg  Hg1       1.0  0.24999993054033637  0.2499996246593818  0.25000047779332596  1.0000
  Hg  Hg2       1.0  0.7499999861407203  0.7499996064725306  0.7500003623900353  1.0000
  N   N1        1.0  0.9999999512280082  1.7229742018762856e-06  0.9999982695416961  1.0000
  O   O1        1.0  0.21323900864078782  0.21323929675016343  0.7867607599953054  1.0000
  O   O2        1.0  0.7867599539538588  0.7867602752910658  0.21323982443176648  1.0000
  O   O3        1.0  0.7867606392534843  0.21323953309823923  0.21323919463775914  1.0000
  O   O4        1.0  0.21323932057883632  0.7867608520578389  0.7867605523201103  1.0000
  O   O5        1.0  0.2132400062163403  0.7867603042159396  0.21323960625367544  1.0000
  O   O6        1.0  0.7867611974994547  0.21323874033723988  0.786761159531925  1.0000
