data_image0
_chemical_formula_structural       Hg2NO6
_chemical_formula_sum              "Hg2 N1 O6"
_cell_length_a       5.318121762462299
_cell_length_b       5.318121559633965
_cell_length_c       5.3181212185246105
_cell_angle_alpha    60.00000516777642
_cell_angle_beta     60.000005086443295
_cell_angle_gamma    59.999999150265985

_space_group_name_H-M_alt    "P 1"
_space_group_IT_number       1

loop_
  _space_group_symop_operation_xyz
  'x, y, z'

loop_
  _atom_site_type_symbol
  _atom_site_label
  _atom_site_symmetry_multiplicity
  _atom_site_fract_x
  _atom_site_fract_y
  _atom_site_fract_z
  _atom_site_occupancy
  Hg  Hg1       1.0  0.24999944846475175  0.2499993441116133  0.2500000581160831  1.0000
  Hg  Hg2       1.0  0.7499994288542678  0.7499991331521375  0.7500001164094521  1.0000
  N   N1        1.0  6.312027713294594e-07  1.0962113808181965e-06  0.999999974934992  1.0000
  O   O1        1.0  0.21320397312071848  0.21320398135556348  0.7867963465924253  1.0000
  O   O2        1.0  0.7867954064240861  0.786795334187503  0.21320469957849658  1.0000
  O   O3        1.0  0.7867966763535045  0.21320424434029497  0.21320363450232774  1.0000
  O   O4        1.0  0.21320446766587806  0.7867957183358759  0.7867957338936009  1.0000
  O   O5        1.0  0.2132042662379813  0.786796162813884  0.21320405349726554  1.0000
  O   O6        1.0  0.7867959688862511  0.21320474177504772  0.7867953322364071  1.0000
