data_image0
_chemical_formula_structural       Hg2PO6
_chemical_formula_sum              "Hg2 P1 O6"
_cell_length_a       5.239625840270194
_cell_length_b       5.239625326158314
_cell_length_c       5.239625327690399
_cell_angle_alpha    60.000001233043704
_cell_angle_beta     59.99999901905525
_cell_angle_gamma    60.000000585396755

_space_group_name_H-M_alt    "P 1"
_space_group_IT_number       1

loop_
  _space_group_symop_operation_xyz
  'x, y, z'

loop_
  _atom_site_type_symbol
  _atom_site_label
  _atom_site_symmetry_multiplicity
  _atom_site_fract_x
  _atom_site_fract_y
  _atom_site_fract_z
  _atom_site_occupancy
  Hg  Hg1       1.0  0.2500000325494927  0.25000001734808874  0.2499999629721005  1.0000
  Hg  Hg2       1.0  0.7499999776205379  0.7500000286696002  0.7500000045138765  1.0000
  P   P1        1.0  0.9999999901383425  1.6362265603500145e-08  1.0109430314534723e-08  1.0000
  O   O1        1.0  0.23029524780985816  0.2302951965069451  0.7697047215752874  1.0000
  O   O2        1.0  0.769704892608883  0.7697046835506228  0.23029515497998493  1.0000
  O   O3        1.0  0.7697047184591886  0.23029522018000134  0.23029527575804015  1.0000
  O   O4        1.0  0.23029518466117951  0.7697047767508913  0.7697048365948385  1.0000
  O   O5        1.0  0.23029523359419116  0.7697047582187704  0.2302952676113114  1.0000
  O   O6        1.0  0.7697047689867765  0.23029518495039333  0.7697047589105259  1.0000
