data_image0
_chemical_formula_structural       Hg2PS6
_chemical_formula_sum              "Hg2 P1 S6"
_cell_length_a       6.531463191590172
_cell_length_b       6.531463315056921
_cell_length_c       6.531463157163772
_cell_angle_alpha    59.99999635547248
_cell_angle_beta     59.99999782634232
_cell_angle_gamma    59.9999965561317

_space_group_name_H-M_alt    "P 1"
_space_group_IT_number       1

loop_
  _space_group_symop_operation_xyz
  'x, y, z'

loop_
  _atom_site_type_symbol
  _atom_site_label
  _atom_site_symmetry_multiplicity
  _atom_site_fract_x
  _atom_site_fract_y
  _atom_site_fract_z
  _atom_site_occupancy
  Hg  Hg1       1.0  0.25000000749613926  0.24999998602337584  0.2499999477549016  1.0000
  Hg  Hg2       1.0  0.7499999211816301  0.7499999861973178  0.7500000222422017  1.0000
  P   P1        1.0  1.2500975691496742e-08  0.9999999624970728  4.005988600226304e-08  1.0000
  S   S1        1.0  0.23506692244987204  0.23506695300026248  0.7649330200216629  1.0000
  S   S2        1.0  0.7649331083558151  0.7649330098446977  0.23506690513039735  1.0000
  S   S3        1.0  0.7649330894301457  0.2350669639303909  0.23506696279052  1.0000
  S   S4        1.0  0.23506692371173116  0.7649331526765594  0.7649330489485469  1.0000
  S   S5        1.0  0.2350670075109256  0.764933039659728  0.23506693605664655  1.0000
  S   S6        1.0  0.76493302545483  0.23506696443844363  0.764933137335379  1.0000
