data_image0
_chemical_formula_structural       Hg2RhO6
_chemical_formula_sum              "Hg2 Rh1 O6"
_cell_length_a       5.5040572538729515
_cell_length_b       5.504057236951572
_cell_length_c       5.504057389454112
_cell_angle_alpha    59.99999947503803
_cell_angle_beta     59.99999988147323
_cell_angle_gamma    59.99999918601374

_space_group_name_H-M_alt    "P 1"
_space_group_IT_number       1

loop_
  _space_group_symop_operation_xyz
  'x, y, z'

loop_
  _atom_site_type_symbol
  _atom_site_label
  _atom_site_symmetry_multiplicity
  _atom_site_fract_x
  _atom_site_fract_y
  _atom_site_fract_z
  _atom_site_occupancy
  Hg  Hg1       1.0  0.24999998238539287  0.2500000240604868  0.24999997253792225  1.0000
  Hg  Hg2       1.0  0.7499999813808381  0.7500000009761032  0.749999992426203  1.0000
  Rh  Rh1       1.0  5.456369362085871e-08  1.8246372785677115e-07  0.9999999668778415  1.0000
  O   O1        1.0  0.24573423183735807  0.24573417656360974  0.7542657997359385  1.0000
  O   O2        1.0  0.7542656352579272  0.7542657105126012  0.24573431161331252  1.0000
  O   O3        1.0  0.7542658437659213  0.2457342423117916  0.24573424267452226  1.0000
  O   O4        1.0  0.24573426242536528  0.754265758247956  0.7542656633154969  1.0000
  O   O5        1.0  0.24573422451729104  0.7542657039245618  0.24573429851917983  1.0000
  O   O6        1.0  0.7542657223820863  0.24573425213183853  0.7542657511558215  1.0000
