data_image0
_chemical_formula_structural       Hg2RhSe6
_chemical_formula_sum              "Hg2 Rh1 Se6"
_cell_length_a       6.600051509826894
_cell_length_b       6.600051484735248
_cell_length_c       6.6000519634740575
_cell_angle_alpha    59.99999814923963
_cell_angle_beta     59.999996906515975
_cell_angle_gamma    59.99999854721998

_space_group_name_H-M_alt    "P 1"
_space_group_IT_number       1

loop_
  _space_group_symop_operation_xyz
  'x, y, z'

loop_
  _atom_site_type_symbol
  _atom_site_label
  _atom_site_symmetry_multiplicity
  _atom_site_fract_x
  _atom_site_fract_y
  _atom_site_fract_z
  _atom_site_occupancy
  Hg  Hg1       1.0  0.2499999832970429  0.2500000021293542  0.25000000802657396  1.0000
  Hg  Hg2       1.0  0.7499999903426341  0.7499999952541049  0.7500000048755289  1.0000
  Rh  Rh1       1.0  0.9999999821862933  1.6700935764962394e-08  0.9999999293448251  1.0000
  Se  Se1       1.0  0.2638085446797266  0.26380856186742574  0.7361914471747223  1.0000
  Se  Se2       1.0  0.736191507601002  0.7361914095367988  0.26380853939647153  1.0000
  Se  Se3       1.0  0.7361914743565947  0.26380851354855184  0.2638085222554153  1.0000
  Se  Se4       1.0  0.2638086199493345  0.7361913947632465  0.7361914915159263  1.0000
  Se  Se5       1.0  0.2638085315140536  0.7361914775776117  0.26380855897159794  1.0000
  Se  Se6       1.0  0.7361913631297734  0.2638086255784454  0.7361915056931341  1.0000
