data_image0
_chemical_formula_structural       Hg2RhS6
_chemical_formula_sum              "Hg2 Rh1 S6"
_cell_length_a       6.284883410065059
_cell_length_b       6.284883933908855
_cell_length_c       6.284883976694124
_cell_angle_alpha    60.00000008152616
_cell_angle_beta     59.999999789636036
_cell_angle_gamma    60.000000663265375

_space_group_name_H-M_alt    "P 1"
_space_group_IT_number       1

loop_
  _space_group_symop_operation_xyz
  'x, y, z'

loop_
  _atom_site_type_symbol
  _atom_site_label
  _atom_site_symmetry_multiplicity
  _atom_site_fract_x
  _atom_site_fract_y
  _atom_site_fract_z
  _atom_site_occupancy
  Hg  Hg1       1.0  0.2500000217244006  0.2500000096016737  0.24999998882574215  1.0000
  Hg  Hg2       1.0  0.7499999867279885  0.749999999574294  0.7500000282707912  1.0000
  Rh  Rh1       1.0  4.201511039625232e-08  4.482044827426275e-08  0.9999999677200565  1.0000
  S   S1        1.0  0.2582314976616077  0.25823153087403156  0.7417685049955621  1.0000
  S   S2        1.0  0.7417683402975891  0.7417683945071858  0.25823163447158115  1.0000
  S   S3        1.0  0.7417684725896964  0.25823159486984193  0.2582315070748954  1.0000
  S   S4        1.0  0.2582315523789692  0.7417684474342836  0.7417684565592744  1.0000
  S   S5        1.0  0.25823156595315283  0.7417684488692166  0.2582314973354401  1.0000
  S   S6        1.0  0.7417684716917191  0.25823153887088496  0.741768401322198  1.0000
