data_image0
_chemical_formula_structural       Hg2SbSe6
_chemical_formula_sum              "Hg2 Sb1 Se6"
_cell_length_a       6.771020085126602
_cell_length_b       6.771020218745835
_cell_length_c       6.771020337597456
_cell_angle_alpha    59.99999913160031
_cell_angle_beta     60.000001036923265
_cell_angle_gamma    60.00000173704589

_space_group_name_H-M_alt    "P 1"
_space_group_IT_number       1

loop_
  _space_group_symop_operation_xyz
  'x, y, z'

loop_
  _atom_site_type_symbol
  _atom_site_label
  _atom_site_symmetry_multiplicity
  _atom_site_fract_x
  _atom_site_fract_y
  _atom_site_fract_z
  _atom_site_occupancy
  Hg  Hg1       1.0  0.25000000786912396  0.2500000004043485  0.24999996877205102  1.0000
  Hg  Hg2       1.0  0.74999996331695  0.750000003021848  0.7499999754327836  1.0000
  Sb  Sb1       1.0  0.9999998162175057  9.044016553647345e-09  1.0213805858893285e-07  1.0000
  Se  Se1       1.0  0.2993985847413625  0.2993985097879997  0.7006015107439794  1.0000
  Se  Se2       1.0  0.7006016355480049  0.7006014574621185  0.29939849093118587  1.0000
  Se  Se3       1.0  0.7006014998235808  0.29939852157676733  0.2993984960405787  1.0000
  Se  Se4       1.0  0.29939857091161864  0.7006014185412895  0.7006014167518242  1.0000
  Se  Se5       1.0  0.29939851847900134  0.7006014920265519  0.2993985454224111  1.0000
  Se  Se6       1.0  0.7006014126385439  0.2993985855606081  0.7006014969330238  1.0000
