data_image0
_chemical_formula_structural       Hg2SbS6
_chemical_formula_sum              "Hg2 Sb1 S6"
_cell_length_a       6.65293228112379
_cell_length_b       6.6529320719939555
_cell_length_c       6.652932341145205
_cell_angle_alpha    59.99999891199378
_cell_angle_beta     60.0000016791512
_cell_angle_gamma    60.00000022208103

_space_group_name_H-M_alt    "P 1"
_space_group_IT_number       1

loop_
  _space_group_symop_operation_xyz
  'x, y, z'

loop_
  _atom_site_type_symbol
  _atom_site_label
  _atom_site_symmetry_multiplicity
  _atom_site_fract_x
  _atom_site_fract_y
  _atom_site_fract_z
  _atom_site_occupancy
  Hg  Hg1       1.0  0.2500000391234772  0.2499999908344218  0.24999996359160098  1.0000
  Hg  Hg2       1.0  0.7500000057097305  0.7500000940033211  0.749999902389187  1.0000
  Sb  Sb1       1.0  3.892386057090971e-09  0.9999999779090807  0.9999999790373346  1.0000
  S   S1        1.0  0.2598554284945587  0.2598553497866213  0.7401446436213062  1.0000
  S   S2        1.0  0.7401447463573612  0.7401444699600889  0.2598554146526616  1.0000
  S   S3        1.0  0.740144387880062  0.2598554797189545  0.2598553657350607  1.0000
  S   S4        1.0  0.25985550853154005  0.7401445609369477  0.740144611578414  1.0000
  S   S5        1.0  0.2598553190427212  0.7401447362089634  0.2598554475136143  1.0000
  S   S6        1.0  0.7401445355905024  0.2598553412651367  0.7401446886019972  1.0000
