data_image0
_chemical_formula_structural       Hg2SbTe6
_chemical_formula_sum              "Hg2 Sb1 Te6"
_cell_length_a       7.562993688883231
_cell_length_b       7.562993800679169
_cell_length_c       7.562993751669764
_cell_angle_alpha    60.000000747859275
_cell_angle_beta     60.00000082508607
_cell_angle_gamma    59.99999976595478

_space_group_name_H-M_alt    "P 1"
_space_group_IT_number       1

loop_
  _space_group_symop_operation_xyz
  'x, y, z'

loop_
  _atom_site_type_symbol
  _atom_site_label
  _atom_site_symmetry_multiplicity
  _atom_site_fract_x
  _atom_site_fract_y
  _atom_site_fract_z
  _atom_site_occupancy
  Hg  Hg1       1.0  0.25000000136777045  0.25000000080939855  0.24999999990342042  1.0000
  Hg  Hg2       1.0  0.7500000159788504  0.74999996680158  0.7500000129080273  1.0000
  Sb  Sb1       1.0  0.999999861267133  0.999999802434226  1.2054912050917042e-07  1.0000
  Te  Te1       1.0  0.27923808582509657  0.27923808926997845  0.7207618998115701  1.0000
  Te  Te2       1.0  0.7207622622392246  0.720762283188897  0.2792376817501528  1.0000
  Te  Te3       1.0  0.7207619670138719  0.2792379543458195  0.2792380127110755  1.0000
  Te  Te4       1.0  0.27923787752909707  0.7207620278396856  0.7207621215262209  1.0000
  Te  Te5       1.0  0.2792379461393691  0.720761976803034  0.2792380219304294  1.0000
  Te  Te6       1.0  0.7207619889941906  0.2792378985026243  0.7207621217737228  1.0000
