data_image0
_chemical_formula_structural       Hg2SbO6
_chemical_formula_sum              "Hg2 Sb1 O6"
_cell_length_a       5.5638867629109425
_cell_length_b       5.563886920702083
_cell_length_c       5.563886846851284
_cell_angle_alpha    60.000002753294204
_cell_angle_beta     60.000001880645044
_cell_angle_gamma    60.00000458605786

_space_group_name_H-M_alt    "P 1"
_space_group_IT_number       1

loop_
  _space_group_symop_operation_xyz
  'x, y, z'

loop_
  _atom_site_type_symbol
  _atom_site_label
  _atom_site_symmetry_multiplicity
  _atom_site_fract_x
  _atom_site_fract_y
  _atom_site_fract_z
  _atom_site_occupancy
  Hg  Hg1       1.0  0.2499999383707085  0.24999985281544002  0.2500001324301655  1.0000
  Hg  Hg2       1.0  0.7500000060152119  0.7500000317128384  0.7500000364488306  1.0000
  Sb  Sb1       1.0  4.986946802306978e-08  1.0565950461606908e-07  7.141180682192026e-08  1.0000
  O   O1        1.0  0.25387304228498875  0.253872991041892  0.7461269893138472  1.0000
  O   O2        1.0  0.7461270017176659  0.7461268934863867  0.2538729913643212  1.0000
  O   O3        1.0  0.7461269948480929  0.2538729739261007  0.2538730246837262  1.0000
  O   O4        1.0  0.25387304850350956  0.7461269810418448  0.7461268977351752  1.0000
  O   O5        1.0  0.253872990914435  0.7461270187803147  0.2538729554525941  1.0000
  O   O6        1.0  0.7461269423788942  0.2538730484508474  0.7461269838368826  1.0000
