data_image0
_chemical_formula_structural       Hg2SbO6
_chemical_formula_sum              "Hg2 Sb1 O6"
_cell_length_a       5.564814554511617
_cell_length_b       5.5648146314060565
_cell_length_c       5.56481464171238
_cell_angle_alpha    60.00000465474842
_cell_angle_beta     60.000002105306706
_cell_angle_gamma    60.000002439301845

_space_group_name_H-M_alt    "P 1"
_space_group_IT_number       1

loop_
  _space_group_symop_operation_xyz
  'x, y, z'

loop_
  _atom_site_type_symbol
  _atom_site_label
  _atom_site_symmetry_multiplicity
  _atom_site_fract_x
  _atom_site_fract_y
  _atom_site_fract_z
  _atom_site_occupancy
  Hg  Hg1       1.0  0.25000004225228295  0.2500000123294311  0.25000000439274167  1.0000
  Hg  Hg2       1.0  0.7499999850921011  0.7499999577568733  0.749999970880874  1.0000
  Sb  Sb1       1.0  2.179276798262552e-09  3.081221535114933e-08  0.9999999565491794  1.0000
  O   O1        1.0  0.2538123084959805  0.25381235040373373  0.7461876717422659  1.0000
  O   O2        1.0  0.7461876690267443  0.7461876570974078  0.2538123654419179  1.0000
  O   O3        1.0  0.746187673241771  0.25381229085503665  0.25381234643999817  1.0000
  O   O4        1.0  0.2538123357620084  0.7461877342530852  0.7461876572151441  1.0000
  O   O5        1.0  0.2538123381092908  0.7461876445842157  0.2538124060257058  1.0000
  O   O6        1.0  0.7461877020627189  0.2538123056942344  0.7461875565649784  1.0000
