data_image0
_chemical_formula_structural       Hg2SbTe6
_chemical_formula_sum              "Hg2 Sb1 Te6"
_cell_length_a       7.5654696539814905
_cell_length_b       7.5654682815096885
_cell_length_c       7.565469365389332
_cell_angle_alpha    59.99999458283564
_cell_angle_beta     60.0000007507
_cell_angle_gamma    59.999991309222885

_space_group_name_H-M_alt    "P 1"
_space_group_IT_number       1

loop_
  _space_group_symop_operation_xyz
  'x, y, z'

loop_
  _atom_site_type_symbol
  _atom_site_label
  _atom_site_symmetry_multiplicity
  _atom_site_fract_x
  _atom_site_fract_y
  _atom_site_fract_z
  _atom_site_occupancy
  Hg  Hg1       1.0  0.2500000106189361  0.2500000115008151  0.24999998765908868  1.0000
  Hg  Hg2       1.0  0.750000017072847  0.7499999826988585  0.749999987018475  1.0000
  Sb  Sb1       1.0  1.5287371890065043e-07  4.047154743375936e-08  0.9999998649953095  1.0000
  Te  Te1       1.0  0.27908947572959586  0.27909008865854384  0.7209102000457555  1.0000
  Te  Te2       1.0  0.7209103283746097  0.7209096513797875  0.2790899685652383  1.0000
  Te  Te3       1.0  0.720910136117325  0.27909016178762525  0.27908965677424397  1.0000
  Te  Te4       1.0  0.27908989288378855  0.7209098971665313  0.7209104712445156  1.0000
  Te  Te5       1.0  0.2790898865563794  0.7209099596065611  0.2790897737011659  1.0000
  Te  Te6       1.0  0.7209101027905535  0.27909020457363487  0.7209100915393244  1.0000
