data_image0
_chemical_formula_structural       Hg2SbS6
_chemical_formula_sum              "Hg2 Sb1 S6"
_cell_length_a       6.649815437231006
_cell_length_b       6.6498155340898455
_cell_length_c       6.649814974779362
_cell_angle_alpha    60.000005072453966
_cell_angle_beta     60.00000280005629
_cell_angle_gamma    60.00000043181422

_space_group_name_H-M_alt    "P 1"
_space_group_IT_number       1

loop_
  _space_group_symop_operation_xyz
  'x, y, z'

loop_
  _atom_site_type_symbol
  _atom_site_label
  _atom_site_symmetry_multiplicity
  _atom_site_fract_x
  _atom_site_fract_y
  _atom_site_fract_z
  _atom_site_occupancy
  Hg  Hg1       1.0  0.25000006383144563  0.24999984140955256  0.2500001041721058  1.0000
  Hg  Hg2       1.0  0.750000025403819  0.7499998870578616  0.749999925417142  1.0000
  Sb  Sb1       1.0  1.0795409888782068e-07  1.9706966454479502e-07  0.9999997617714514  1.0000
  S   S1        1.0  0.25991333344902634  0.25991340236333055  0.7400866594119514  1.0000
  S   S2        1.0  0.740086455851468  0.7400865747434029  0.2599136559826395  1.0000
  S   S3        1.0  0.7400864665870778  0.25991353230212605  0.25991342335902634  1.0000
  S   S4        1.0  0.2599133535449012  0.7400866492413608  0.740086527778046  1.0000
  S   S5        1.0  0.259913554849116  0.74008650691587  0.2599134345101753  1.0000
  S   S6        1.0  0.7400866254844392  0.2599134223047573  0.7400864807331504  1.0000
