data_image0
_chemical_formula_structural       Hg2TlS6
_chemical_formula_sum              "Hg2 Tl1 S6"
_cell_length_a       6.582171820346959
_cell_length_b       6.582172161939797
_cell_length_c       6.582172170844931
_cell_angle_alpha    59.99999715518879
_cell_angle_beta     59.9999998556114
_cell_angle_gamma    59.99999484545783

_space_group_name_H-M_alt    "P 1"
_space_group_IT_number       1

loop_
  _space_group_symop_operation_xyz
  'x, y, z'

loop_
  _atom_site_type_symbol
  _atom_site_label
  _atom_site_symmetry_multiplicity
  _atom_site_fract_x
  _atom_site_fract_y
  _atom_site_fract_z
  _atom_site_occupancy
  Hg  Hg1       1.0  0.25000012939376515  0.24999996836059038  0.25000002098820745  1.0000
  Hg  Hg2       1.0  0.7499999525714025  0.7499997804148852  0.7500001592731169  1.0000
  Tl  Tl1       1.0  1.100300679349706e-08  6.698521141255732e-08  0.9999998607350393  1.0000
  S   S1        1.0  0.27757297415277166  0.27757298179983364  0.7224270254907822  1.0000
  S   S2        1.0  0.7224268725556041  0.7224270832946961  0.27757302764184905  1.0000
  S   S3        1.0  0.7224269007966262  0.2775731793107173  0.2775728776103404  1.0000
  S   S4        1.0  0.2775730599037584  0.7224269490476148  0.7224270717018321  1.0000
  S   S5        1.0  0.2775730962166777  0.722426870990843  0.27757296022976696  1.0000
  S   S6        1.0  0.7224270125369219  0.27757312897916564  0.7224269838077301  1.0000
