data_image0
_chemical_formula_structural       Hg2TaSe6
_chemical_formula_sum              "Hg2 Ta1 Se6"
_cell_length_a       6.65158034256277
_cell_length_b       6.651580379120937
_cell_length_c       6.651580963931748
_cell_angle_alpha    59.99999930385204
_cell_angle_beta     59.9999996389038
_cell_angle_gamma    60.00000927989406

_space_group_name_H-M_alt    "P 1"
_space_group_IT_number       1

loop_
  _space_group_symop_operation_xyz
  'x, y, z'

loop_
  _atom_site_type_symbol
  _atom_site_label
  _atom_site_symmetry_multiplicity
  _atom_site_fract_x
  _atom_site_fract_y
  _atom_site_fract_z
  _atom_site_occupancy
  Hg  Hg1       1.0  0.2500000657769116  0.24999999786611696  0.24999993963394063  1.0000
  Hg  Hg2       1.0  0.7500000414957635  0.7500000028047551  0.749999997454241  1.0000
  Ta  Ta1       1.0  0.9999998548998905  0.9999998103477327  1.703598412096944e-08  1.0000
  Se  Se1       1.0  0.2676970172707161  0.26769700541795904  0.7323030070819087  1.0000
  Se  Se2       1.0  0.7323030818274407  0.7323031812225942  0.26769687568693995  1.0000
  Se  Se3       1.0  0.7323026951736736  0.26769734345824225  0.26769728872618886  1.0000
  Se  Se4       1.0  0.2676972140559445  0.7323027253401169  0.7323028050272957  1.0000
  Se  Se5       1.0  0.2676972947665321  0.7323027000669661  0.26769738698746454  1.0000
  Se  Se6       1.0  0.7323027245157913  0.2676972416828106  0.7323026957197328  1.0000
