data_image0
_chemical_formula_structural       Hg2TlTe6
_chemical_formula_sum              "Hg2 Tl1 Te6"
_cell_length_a       8.12772414029901
_cell_length_b       8.127724284645174
_cell_length_c       8.127725476231026
_cell_angle_alpha    59.99999393871366
_cell_angle_beta     59.99999936337904
_cell_angle_gamma    59.99999608613648

_space_group_name_H-M_alt    "P 1"
_space_group_IT_number       1

loop_
  _space_group_symop_operation_xyz
  'x, y, z'

loop_
  _atom_site_type_symbol
  _atom_site_label
  _atom_site_symmetry_multiplicity
  _atom_site_fract_x
  _atom_site_fract_y
  _atom_site_fract_z
  _atom_site_occupancy
  Hg  Hg1       1.0  0.24999999173013793  0.24999998907660745  0.25000005228989763  1.0000
  Hg  Hg2       1.0  0.7500000374250608  0.7500001555889686  0.7499999651335448  1.0000
  Tl  Tl1       1.0  1.2843864336194507e-07  0.9999998704089087  0.9999999402887605  1.0000
  Te  Te1       1.0  0.30946202859077504  0.3094620446811133  0.6905376634022264  1.0000
  Te  Te2       1.0  0.6905384136736162  0.6905379176528244  0.3094616505220409  1.0000
  Te  Te3       1.0  0.690537817504371  0.30946213503386466  0.3094620816995917  1.0000
  Te  Te4       1.0  0.30946171680379375  0.6905380578516493  0.6905384420193789  1.0000
  Te  Te5       1.0  0.3094617745123494  0.6905379871203041  0.3094619519072376  1.0000
  Te  Te6       1.0  0.6905380777358807  0.3094618486362781  0.6905382567492088  1.0000
