data_image0
_chemical_formula_structural       Hg2TlSe6
_chemical_formula_sum              "Hg2 Tl1 Se6"
_cell_length_a       7.1989300252728
_cell_length_b       7.198929947283673
_cell_length_c       7.198930095410445
_cell_angle_alpha    60.00000120782981
_cell_angle_beta     59.99999923022286
_cell_angle_gamma    60.000000871797845

_space_group_name_H-M_alt    "P 1"
_space_group_IT_number       1

loop_
  _space_group_symop_operation_xyz
  'x, y, z'

loop_
  _atom_site_type_symbol
  _atom_site_label
  _atom_site_symmetry_multiplicity
  _atom_site_fract_x
  _atom_site_fract_y
  _atom_site_fract_z
  _atom_site_occupancy
  Hg  Hg1       1.0  0.2500000109070103  0.24999998513895985  0.2499999911274106  1.0000
  Hg  Hg2       1.0  0.7500000181711373  0.7499999894426267  0.7499999664224959  1.0000
  Tl  Tl1       1.0  0.9999999772856453  0.9999999574678146  0.999999975670362  1.0000
  Se  Se1       1.0  0.31304606521758  0.31304605059212387  0.6869539614219041  1.0000
  Se  Se2       1.0  0.6869539410627439  0.6869540260667061  0.31304603844491724  1.0000
  Se  Se3       1.0  0.686953925393692  0.3130460725304407  0.3130461117607991  1.0000
  Se  Se4       1.0  0.31304612209002736  0.6869538901421354  0.686953877268209  1.0000
  Se  Se5       1.0  0.3130460507643762  0.686953935946326  0.31304610729938276  1.0000
  Se  Se6       1.0  0.6869538899803769  0.31304607266100937  0.6869539732519233  1.0000
