data_image0
_chemical_formula_structural       Hg2TaO6
_chemical_formula_sum              "Hg2 Ta1 O6"
_cell_length_a       5.515489655627544
_cell_length_b       5.515489396250577
_cell_length_c       5.515489828011103
_cell_angle_alpha    59.999999248552754
_cell_angle_beta     59.99999765493269
_cell_angle_gamma    59.99999881372095

_space_group_name_H-M_alt    "P 1"
_space_group_IT_number       1

loop_
  _space_group_symop_operation_xyz
  'x, y, z'

loop_
  _atom_site_type_symbol
  _atom_site_label
  _atom_site_symmetry_multiplicity
  _atom_site_fract_x
  _atom_site_fract_y
  _atom_site_fract_z
  _atom_site_occupancy
  Hg  Hg1       1.0  0.25000000830089414  0.25000003896172424  0.25000000202103184  1.0000
  Hg  Hg2       1.0  0.7500001050530838  0.7499999392407533  0.7500000076701359  1.0000
  Ta  Ta1       1.0  0.9999999474506025  0.9999999378244506  0.9999999522040887  1.0000
  O   O1        1.0  0.2543756625430332  0.2543757936349248  0.7456242352099809  1.0000
  O   O2        1.0  0.7456242654347524  0.7456242445225396  0.2543756975849715  1.0000
  O   O3        1.0  0.7456243725516242  0.25437572045695733  0.25437560252821406  1.0000
  O   O4        1.0  0.25437547542454286  0.7456244509338245  0.7456244468838635  1.0000
  O   O5        1.0  0.25437567303857533  0.7456242983687695  0.2543756550769799  1.0000
  O   O6        1.0  0.7456244330623377  0.2543756576281547  0.7456243348950607  1.0000
