data_image0
_chemical_formula_structural       Hg2TlO6
_chemical_formula_sum              "Hg2 Tl1 O6"
_cell_length_a       5.606557621347955
_cell_length_b       5.606557897499153
_cell_length_c       5.60655747625969
_cell_angle_alpha    59.99999948902031
_cell_angle_beta     59.99999985429708
_cell_angle_gamma    59.99999913778737

_space_group_name_H-M_alt    "P 1"
_space_group_IT_number       1

loop_
  _space_group_symop_operation_xyz
  'x, y, z'

loop_
  _atom_site_type_symbol
  _atom_site_label
  _atom_site_symmetry_multiplicity
  _atom_site_fract_x
  _atom_site_fract_y
  _atom_site_fract_z
  _atom_site_occupancy
  Hg  Hg1       1.0  0.2499999415786289  0.2500001288160755  0.24999996293314  1.0000
  Hg  Hg2       1.0  0.7500000378767165  0.7499999014922679  0.7500001067537759  1.0000
  Tl  Tl1       1.0  5.442292145048956e-08  0.9999999541257887  0.9999999529186288  1.0000
  O   O1        1.0  0.2741740177329229  0.2741740819016615  0.7258259639689612  1.0000
  O   O2        1.0  0.7258260145855221  0.7258258763186378  0.2741739886930038  1.0000
  O   O3        1.0  0.7258259219000072  0.27417411651611673  0.27417400161693606  1.0000
  O   O4        1.0  0.2741739599852908  0.7258259902492503  0.7258259965797089  1.0000
  O   O5        1.0  0.2741740794974227  0.7258259296085794  0.27417399519463936  1.0000
  O   O6        1.0  0.7258259603310742  0.27417403079620445  0.7258260096960798  1.0000
