data_image0
_chemical_formula_structural       Hg2YO6
_chemical_formula_sum              "Hg2 Y1 O6"
_cell_length_a       5.60271494779833
_cell_length_b       5.602714884845181
_cell_length_c       5.602714690082261
_cell_angle_alpha    59.99999973160067
_cell_angle_beta     60.000000076317036
_cell_angle_gamma    60.00000069714496

_space_group_name_H-M_alt    "P 1"
_space_group_IT_number       1

loop_
  _space_group_symop_operation_xyz
  'x, y, z'

loop_
  _atom_site_type_symbol
  _atom_site_label
  _atom_site_symmetry_multiplicity
  _atom_site_fract_x
  _atom_site_fract_y
  _atom_site_fract_z
  _atom_site_occupancy
  Hg  Hg1       1.0  0.2500000543446508  0.24999999404233192  0.2499999623568886  1.0000
  Hg  Hg2       1.0  0.7499999611413953  0.7500000498925148  0.7500002093676005  1.0000
  Y   Y1        1.0  0.9999999953779934  2.6231815339403667e-08  2.4892076414311168e-08  1.0000
  O   O1        1.0  0.27958345095763226  0.27958346798859196  0.7204165380312059  1.0000
  O   O2        1.0  0.7204165245592815  0.7204165103667184  0.2795833598402426  1.0000
  O   O3        1.0  0.7204165089317778  0.27958356060189976  0.279583433378247  1.0000
  O   O4        1.0  0.2795834157467465  0.7204164898909027  0.7204165180982157  1.0000
  O   O5        1.0  0.27958355942021373  0.7204164923852703  0.2795834637503986  1.0000
  O   O6        1.0  0.720416540401205  0.27958341601853204  0.7204164747688148  1.0000
