data_image0
_chemical_formula_structural       Hg2YS6
_chemical_formula_sum              "Hg2 Y1 S6"
_cell_length_a       6.834075043112145
_cell_length_b       6.834075260151067
_cell_length_c       6.834075044413027
_cell_angle_alpha    60.00000103762465
_cell_angle_beta     60.000000556105405
_cell_angle_gamma    60.00000050336547

_space_group_name_H-M_alt    "P 1"
_space_group_IT_number       1

loop_
  _space_group_symop_operation_xyz
  'x, y, z'

loop_
  _atom_site_type_symbol
  _atom_site_label
  _atom_site_symmetry_multiplicity
  _atom_site_fract_x
  _atom_site_fract_y
  _atom_site_fract_z
  _atom_site_occupancy
  Hg  Hg1       1.0  0.25000019091477194  0.2499996013053494  0.2500002128980518  1.0000
  Hg  Hg2       1.0  0.7500000577104575  0.7500001766761177  0.7499996874487241  1.0000
  Y   Y1        1.0  0.999999908145441  3.2258070151978416e-08  0.9999999902903371  1.0000
  S   S1        1.0  0.2778541975865258  0.2778542260908633  0.7221457623440066  1.0000
  S   S2        1.0  0.7221457002911061  0.7221458995609096  0.27785428586699434  1.0000
  S   S3        1.0  0.7221457777915449  0.27785401908833735  0.277854385619606  1.0000
  S   S4        1.0  0.2778542829927044  0.7221459219755928  0.7221456061222411  1.0000
  S   S5        1.0  0.27785412072710486  0.7221459247453329  0.27785422868427884  1.0000
  S   S6        1.0  0.7221457666204073  0.27785419194586536  0.7221458365883483  1.0000
