data_image0
_chemical_formula_structural       Hg2YTe6
_chemical_formula_sum              "Hg2 Y1 Te6"
_cell_length_a       7.7930636856434194
_cell_length_b       7.79306353272264
_cell_length_c       7.793063504952698
_cell_angle_alpha    60.00000001123032
_cell_angle_beta     60.000000217171944
_cell_angle_gamma    59.99999965187366

_space_group_name_H-M_alt    "P 1"
_space_group_IT_number       1

loop_
  _space_group_symop_operation_xyz
  'x, y, z'

loop_
  _atom_site_type_symbol
  _atom_site_label
  _atom_site_symmetry_multiplicity
  _atom_site_fract_x
  _atom_site_fract_y
  _atom_site_fract_z
  _atom_site_occupancy
  Hg  Hg1       1.0  0.2499999924607528  0.24999999901885148  0.24999999371978102  1.0000
  Hg  Hg2       1.0  0.74999997302703  0.7499999923418046  0.7500000113581806  1.0000
  Y   Y1        1.0  0.9999999803038808  0.9999999968568334  6.018095485749659e-08  1.0000
  Te  Te1       1.0  0.2817793226276778  0.28177934586697884  0.7182206816838679  1.0000
  Te  Te2       1.0  0.718220729515271  0.7182207633624269  0.2817792968404882  1.0000
  Te  Te3       1.0  0.7182207550441657  0.2817792070546121  0.28177931166402437  1.0000
  Te  Te4       1.0  0.2817793978598779  0.7182205910012939  0.7182206629951784  1.0000
  Te  Te5       1.0  0.2817792584432126  0.7182207053477621  0.28177931869564665  1.0000
  Te  Te6       1.0  0.7182205903623339  0.2817793960237271  0.7182206679037461  1.0000
