data_image0
_chemical_formula_structural       In2AsS6
_chemical_formula_sum              "In2 As1 S6"
_cell_length_a       6.736915973863207
_cell_length_b       6.736916423468511
_cell_length_c       6.736915800796538
_cell_angle_alpha    59.999999371509375
_cell_angle_beta     59.999999586477536
_cell_angle_gamma    60.00000040189869

_space_group_name_H-M_alt    "P 1"
_space_group_IT_number       1

loop_
  _space_group_symop_operation_xyz
  'x, y, z'

loop_
  _atom_site_type_symbol
  _atom_site_label
  _atom_site_symmetry_multiplicity
  _atom_site_fract_x
  _atom_site_fract_y
  _atom_site_fract_z
  _atom_site_occupancy
  In  In1       1.0  0.24999995531713834  0.2500003246994785  0.24999993519000138  1.0000
  In  In2       1.0  0.7500000082518068  0.7499996833464041  0.7500002803438215  1.0000
  As  As1       1.0  6.753772286003319e-08  2.363347546698113e-08  2.854264035331909e-07  1.0000
  S   S1        1.0  0.2500974639759664  0.250097648894612  0.7499024162795068  1.0000
  S   S2        1.0  0.7499023722735536  0.7499023246100297  0.25009760112520385  1.0000
  S   S3        1.0  0.749902467492479  0.25009757089351015  0.25009750529040015  1.0000
  S   S4        1.0  0.2500977228638724  0.7499021989995471  0.7499022899151718  1.0000
  S   S5        1.0  0.25009764168579746  0.749902410201657  0.25009751907590877  1.0000
  S   S6        1.0  0.7499023141923653  0.2500978214533974  0.7499021417067258  1.0000
