data_image0
_chemical_formula_structural       In2AsSe6
_chemical_formula_sum              "In2 As1 Se6"
_cell_length_a       6.798414873585036
_cell_length_b       6.7984150688998914
_cell_length_c       6.798415907755461
_cell_angle_alpha    59.99997889199437
_cell_angle_beta     59.99998663987852
_cell_angle_gamma    59.99999218749566

_space_group_name_H-M_alt    "P 1"
_space_group_IT_number       1

loop_
  _space_group_symop_operation_xyz
  'x, y, z'

loop_
  _atom_site_type_symbol
  _atom_site_label
  _atom_site_symmetry_multiplicity
  _atom_site_fract_x
  _atom_site_fract_y
  _atom_site_fract_z
  _atom_site_occupancy
  In  In1       1.0  0.24999990568359567  0.24999968430549147  0.2500005742756301  1.0000
  In  In2       1.0  0.7500002902054823  0.749999458257736  0.7499999362177735  1.0000
  As  As1       1.0  0.9999986863483157  3.1562554292348528e-06  0.999998671249946  1.0000
  Se  Se1       1.0  0.26626334149340364  0.26626355079397734  0.7337362589917482  1.0000
  Se  Se2       1.0  0.7337352247181338  0.7337359917057484  0.26626421327891014  1.0000
  Se  Se3       1.0  0.7337364020206836  0.2662632610674505  0.2662638118990119  1.0000
  Se  Se4       1.0  0.2662642514381949  0.7337354004912766  0.7337357394973836  1.0000
  Se  Se5       1.0  0.26626477277429245  0.7337355949087957  0.2662645085345411  1.0000
  Se  Se6       1.0  0.733737131820107  0.2662638431028559  0.7337364252138818  1.0000
