data_image0
_chemical_formula_structural       In2AsS6
_chemical_formula_sum              "In2 As1 S6"
_cell_length_a       6.739787106374199
_cell_length_b       6.739787160895207
_cell_length_c       6.7397875035186185
_cell_angle_alpha    59.99999702639252
_cell_angle_beta     59.99999553549204
_cell_angle_gamma    60.00000208160122

_space_group_name_H-M_alt    "P 1"
_space_group_IT_number       1

loop_
  _space_group_symop_operation_xyz
  'x, y, z'

loop_
  _atom_site_type_symbol
  _atom_site_label
  _atom_site_symmetry_multiplicity
  _atom_site_fract_x
  _atom_site_fract_y
  _atom_site_fract_z
  _atom_site_occupancy
  In  In1       1.0  0.2499999062913931  0.25000021684222673  0.2500000363234217  1.0000
  In  In2       1.0  0.7500001913481827  0.749999921834999  0.7500001584416082  1.0000
  As  As1       1.0  0.9999999535341357  1.0903115699187847e-08  0.9999999910743016  1.0000
  S   S1        1.0  0.2500390127828923  0.25003888763204096  0.7499610168526962  1.0000
  S   S2        1.0  0.7499612753463993  0.7499608748876332  0.25003884194935005  1.0000
  S   S3        1.0  0.7499608467311839  0.2500390288987723  0.25003880818749674  1.0000
  S   S4        1.0  0.2500388558046253  0.7499610152847498  0.7499611862583857  1.0000
  S   S5        1.0  0.25003900777634  0.7499610651019453  0.25003880617619845  1.0000
  S   S6        1.0  0.7499609790388235  0.2500390154253157  0.7499611244003415  1.0000
