data_image0
_chemical_formula_structural       In2AsO6
_chemical_formula_sum              "In2 As1 O6"
_cell_length_a       5.129010134027785
_cell_length_b       5.12900989250337
_cell_length_c       5.129010165734386
_cell_angle_alpha    60.00000158755324
_cell_angle_beta     60.00000085371433
_cell_angle_gamma    60.000001998702906

_space_group_name_H-M_alt    "P 1"
_space_group_IT_number       1

loop_
  _space_group_symop_operation_xyz
  'x, y, z'

loop_
  _atom_site_type_symbol
  _atom_site_label
  _atom_site_symmetry_multiplicity
  _atom_site_fract_x
  _atom_site_fract_y
  _atom_site_fract_z
  _atom_site_occupancy
  In  In1       1.0  0.2500000946865839  0.24999998661940978  0.2500000626513041  1.0000
  In  In2       1.0  0.7500000901697188  0.7500002105853733  0.7499997617977991  1.0000
  As  As1       1.0  0.9999999660937459  7.163631948908086e-09  0.9999999977737596  1.0000
  O   O1        1.0  0.2491848178900644  0.24918461975760187  0.7508153604979643  1.0000
  O   O2        1.0  0.7508151768143388  0.7508153171685127  0.24918492897876862  1.0000
  O   O3        1.0  0.75081522123678  0.2491846742413305  0.2491847992174276  1.0000
  O   O4        1.0  0.24918453371253607  0.750815360587754  0.7508152082907626  1.0000
  O   O5        1.0  0.24918478847030412  0.7508150665510066  0.2491847053025714  1.0000
  O   O6        1.0  0.7508153387690016  0.2491846888963892  0.7508151894618706  1.0000
