data_image0
_chemical_formula_structural       In2AsO6
_chemical_formula_sum              "In2 As1 O6"
_cell_length_a       5.12807394342633
_cell_length_b       5.1280740274083545
_cell_length_c       5.128073999468594
_cell_angle_alpha    59.999997952183634
_cell_angle_beta     59.99999773645059
_cell_angle_gamma    60.00000153919774

_space_group_name_H-M_alt    "P 1"
_space_group_IT_number       1

loop_
  _space_group_symop_operation_xyz
  'x, y, z'

loop_
  _atom_site_type_symbol
  _atom_site_label
  _atom_site_symmetry_multiplicity
  _atom_site_fract_x
  _atom_site_fract_y
  _atom_site_fract_z
  _atom_site_occupancy
  In  In1       1.0  0.25000015293341094  0.24999961904711404  0.2499998820025472  1.0000
  In  In2       1.0  0.7499998677552727  0.7500002925177829  0.7499992218918359  1.0000
  As  As1       1.0  1.1258618630159517e-08  6.578518588154598e-16  0.9999999768202414  1.0000
  O   O1        1.0  0.24919584526061989  0.2491956534835524  0.7508043326556643  1.0000
  O   O2        1.0  0.7508040031105945  0.7508044778061639  0.24919610281969728  1.0000
  O   O3        1.0  0.7508042394205838  0.24919558721607366  0.24919598236013538  1.0000
  O   O4        1.0  0.249195895130442  0.7508041786616765  0.7508043640280145  1.0000
  O   O5        1.0  0.24919551906249812  0.7508044170040249  0.24919601416156786  1.0000
  O   O6        1.0  0.7508042911425712  0.24919574772208233  0.750804308625729  1.0000
