data_image0
_chemical_formula_structural       In2AsSe6
_chemical_formula_sum              "In2 As1 Se6"
_cell_length_a       6.590071669836314
_cell_length_b       6.5900716582694985
_cell_length_c       6.590072105182028
_cell_angle_alpha    59.99999815603127
_cell_angle_beta     59.99999563000136
_cell_angle_gamma    60.00000004829435

_space_group_name_H-M_alt    "P 1"
_space_group_IT_number       1

loop_
  _space_group_symop_operation_xyz
  'x, y, z'

loop_
  _atom_site_type_symbol
  _atom_site_label
  _atom_site_symmetry_multiplicity
  _atom_site_fract_x
  _atom_site_fract_y
  _atom_site_fract_z
  _atom_site_occupancy
  In  In1       1.0  0.2500000062592398  0.25000003878686194  0.2499999858500483  1.0000
  In  In2       1.0  0.7500000101595694  0.7500000475972036  0.7499998885030913  1.0000
  As  As1       1.0  0.999999721652086  0.9999999256612049  2.0213973828219473e-07  1.0000
  Se  Se1       1.0  0.2901960943432364  0.2901960630212174  0.7098039090287014  1.0000
  Se  Se2       1.0  0.7098041646722988  0.7098040735415373  0.29019591150020546  1.0000
  Se  Se3       1.0  0.7098038984357864  0.29019602581253084  0.29019603352272555  1.0000
  Se  Se4       1.0  0.2901959611369299  0.7098040159682582  0.7098039840432553  1.0000
  Se  Se5       1.0  0.2901961303568914  0.709803861926899  0.2901960471529071  1.0000
  Se  Se6       1.0  0.7098040106309617  0.29019594011129907  0.709804055797181  1.0000
