data_image0
_chemical_formula_structural       In2BiSe6
_chemical_formula_sum              "In2 Bi1 Se6"
_cell_length_a       6.945688015414575
_cell_length_b       6.945688206174464
_cell_length_c       6.945688246441432
_cell_angle_alpha    60.00000088797661
_cell_angle_beta     60.000000335235065
_cell_angle_gamma    60.00000151999817

_space_group_name_H-M_alt    "P 1"
_space_group_IT_number       1

loop_
  _space_group_symop_operation_xyz
  'x, y, z'

loop_
  _atom_site_type_symbol
  _atom_site_label
  _atom_site_symmetry_multiplicity
  _atom_site_fract_x
  _atom_site_fract_y
  _atom_site_fract_z
  _atom_site_occupancy
  In  In1       1.0  0.24999997244799724  0.24999998919381144  0.25000001194977106  1.0000
  In  In2       1.0  0.7500000244796974  0.7500000451673731  0.7499999190128767  1.0000
  Bi  Bi1       1.0  4.1864313393554616e-08  0.9999999841301492  0.9999999740450899  1.0000
  Se  Se1       1.0  0.2997344059241142  0.29973443425089774  0.7002656019597266  1.0000
  Se  Se2       1.0  0.7002655073931016  0.7002655965836532  0.2997344402393567  1.0000
  Se  Se3       1.0  0.7002656068302479  0.2997343984256501  0.2997343984376516  1.0000
  Se  Se4       1.0  0.29973440566475995  0.7002656041958324  0.7002655146958321  1.0000
  Se  Se5       1.0  0.2997344217044286  0.7002656085191443  0.29973446262294756  1.0000
  Se  Se6       1.0  0.7002656116478456  0.29973434649278674  0.7002656755287718  1.0000
