data_image0
_chemical_formula_structural       In2BiTe6
_chemical_formula_sum              "In2 Bi1 Te6"
_cell_length_a       7.690606269823703
_cell_length_b       7.690606324735746
_cell_length_c       7.690606280787878
_cell_angle_alpha    60.00000009725717
_cell_angle_beta     59.99999992053951
_cell_angle_gamma    59.99999949420511

_space_group_name_H-M_alt    "P 1"
_space_group_IT_number       1

loop_
  _space_group_symop_operation_xyz
  'x, y, z'

loop_
  _atom_site_type_symbol
  _atom_site_label
  _atom_site_symmetry_multiplicity
  _atom_site_fract_x
  _atom_site_fract_y
  _atom_site_fract_z
  _atom_site_occupancy
  In  In1       1.0  0.24999999179526058  0.24999999739686452  0.2499999869142609  1.0000
  In  In2       1.0  0.7500000180324715  0.7500000128933603  0.7500000044847354  1.0000
  Bi  Bi1       1.0  2.5787497883377124e-09  0.9999999697421093  4.50464729562777e-08  1.0000
  Te  Te1       1.0  0.2821125855739567  0.2821125846302668  0.7178874158311902  1.0000
  Te  Te2       1.0  0.7178874421643845  0.7178874575103692  0.282112544185858  1.0000
  Te  Te3       1.0  0.7178874436144445  0.2821125226502408  0.2821125704869322  1.0000
  Te  Te4       1.0  0.2821126085737992  0.7178873920887501  0.7178874280031112  1.0000
  Te  Te5       1.0  0.282112529671884  0.7178874625598489  0.2821125677098318  1.0000
  Te  Te6       1.0  0.7178873804074519  0.28211260824615814  0.717887431602883  1.0000
