data_image0
_chemical_formula_structural       In2BiSe6
_chemical_formula_sum              "In2 Bi1 Se6"
_cell_length_a       6.946207731324308
_cell_length_b       6.946207737248556
_cell_length_c       6.946207363325499
_cell_angle_alpha    60.00000092394885
_cell_angle_beta     60.000002995068556
_cell_angle_gamma    59.99999695999931

_space_group_name_H-M_alt    "P 1"
_space_group_IT_number       1

loop_
  _space_group_symop_operation_xyz
  'x, y, z'

loop_
  _atom_site_type_symbol
  _atom_site_label
  _atom_site_symmetry_multiplicity
  _atom_site_fract_x
  _atom_site_fract_y
  _atom_site_fract_z
  _atom_site_occupancy
  In  In1       1.0  0.24999996605803457  0.25000001930573246  0.25000001500580216  1.0000
  In  In2       1.0  0.7500000089982072  0.7499999997320892  0.7500000431716972  1.0000
  Bi  Bi1       1.0  0.9999999205617834  0.9999998942089082  5.8063425312001894e-08  1.0000
  Se  Se1       1.0  0.299725503519296  0.29972545179014126  0.7002745788861442  1.0000
  Se  Se2       1.0  0.7002746296615557  0.7002745566685633  0.2997254256734936  1.0000
  Se  Se3       1.0  0.7002745895649074  0.2997254628912747  0.29972548463516036  1.0000
  Se  Se4       1.0  0.29972552195650615  0.700274460934555  0.7002745126059837  1.0000
  Se  Se5       1.0  0.2997254049482966  0.7002745724967381  0.2997254510021891  1.0000
  Se  Se6       1.0  0.7002744622714112  0.299725580543146  0.7002744098193238  1.0000
