data_image0
_chemical_formula_structural       In2BiS6
_chemical_formula_sum              "In2 Bi1 S6"
_cell_length_a       6.912505575286347
_cell_length_b       6.912505271945542
_cell_length_c       6.912504982194589
_cell_angle_alpha    60.00000181412855
_cell_angle_beta     59.999999902773276
_cell_angle_gamma    60.000000865750366

_space_group_name_H-M_alt    "P 1"
_space_group_IT_number       1

loop_
  _space_group_symop_operation_xyz
  'x, y, z'

loop_
  _atom_site_type_symbol
  _atom_site_label
  _atom_site_symmetry_multiplicity
  _atom_site_fract_x
  _atom_site_fract_y
  _atom_site_fract_z
  _atom_site_occupancy
  In  In1       1.0  0.24999994366873815  0.2500000019408322  0.2500000584643876  1.0000
  In  In2       1.0  0.7500000390050012  0.7499998729388888  0.7500000192099756  1.0000
  Bi  Bi1       1.0  6.66442104113011e-09  3.0120284180768384e-08  0.9999999671411116  1.0000
  S   S1        1.0  0.2518667514282528  0.2518667783323718  0.7481331851821373  1.0000
  S   S2        1.0  0.7481332715186159  0.7481332914433062  0.2518667242748075  1.0000
  S   S3        1.0  0.7481332332749652  0.2518666401204831  0.25186679096247494  1.0000
  S   S4        1.0  0.2518666724392894  0.748133270194866  0.7481333118137793  1.0000
  S   S5        1.0  0.2518667531803355  0.7481333526457605  0.25186677849933053  1.0000
  S   S6        1.0  0.7481333382376564  0.2518667472502039  0.7481331699077758  1.0000
