data_image0
_chemical_formula_structural       In2BO6
_chemical_formula_sum              "In2 B1 O6"
_cell_length_a       4.854797275782842
_cell_length_b       4.854797009551443
_cell_length_c       4.854797369322837
_cell_angle_alpha    59.999997532502874
_cell_angle_beta     59.999997178538955
_cell_angle_gamma    59.9999991334802

_space_group_name_H-M_alt    "P 1"
_space_group_IT_number       1

loop_
  _space_group_symop_operation_xyz
  'x, y, z'

loop_
  _atom_site_type_symbol
  _atom_site_label
  _atom_site_symmetry_multiplicity
  _atom_site_fract_x
  _atom_site_fract_y
  _atom_site_fract_z
  _atom_site_occupancy
  In  In1       1.0  0.2500000333505096  0.2500000177105296  0.24999994463454225  1.0000
  In  In2       1.0  0.7499999833620574  0.750000060699843  0.749999948198965  1.0000
  B   B1        1.0  6.133320733583538e-08  1.5136512292649787e-07  0.99999987511247  1.0000
  O   O1        1.0  0.23245859027424767  0.2324585823153091  0.7675413955607011  1.0000
  O   O2        1.0  0.7675414647619409  0.767541274092886  0.2324586323682659  1.0000
  O   O3        1.0  0.7675414456648285  0.23245855794207512  0.23245861342648422  1.0000
  O   O4        1.0  0.2324585397442542  0.7675414573994975  0.7675415037375313  1.0000
  O   O5        1.0  0.2324586273441554  0.7675412941475283  0.2324585314229493  1.0000
  O   O6        1.0  0.7675414284134269  0.23245852441938586  0.7675414862285064  1.0000
