data_image0
_chemical_formula_structural       In2BTe6
_chemical_formula_sum              "In2 B1 Te6"
_cell_length_a       7.423092800914388
_cell_length_b       7.423094133020719
_cell_length_c       7.423093232330005
_cell_angle_alpha    60.00000101871329
_cell_angle_beta     60.00000109391929
_cell_angle_gamma    60.000003726305955

_space_group_name_H-M_alt    "P 1"
_space_group_IT_number       1

loop_
  _space_group_symop_operation_xyz
  'x, y, z'

loop_
  _atom_site_type_symbol
  _atom_site_label
  _atom_site_symmetry_multiplicity
  _atom_site_fract_x
  _atom_site_fract_y
  _atom_site_fract_z
  _atom_site_occupancy
  In  In1       1.0  0.24999999240558712  0.24999992559677808  0.25000006311021894  1.0000
  In  In2       1.0  0.750000003704166  0.7500000193273291  0.7499999268394588  1.0000
  B   B1        1.0  1.9567200926184235e-08  0.9999997079656537  4.08357334190191e-07  1.0000
  Te  Te1       1.0  0.21991375127878277  0.21991376355370737  0.7800862908027212  1.0000
  Te  Te2       1.0  0.780086183719502  0.7800864767045491  0.2199137450404311  1.0000
  Te  Te3       1.0  0.7800863459462315  0.21991359518783307  0.2199136662148774  1.0000
  Te  Te4       1.0  0.21991404133504047  0.7800860395529287  0.7800859599253777  1.0000
  Te  Te5       1.0  0.2199136534691213  0.7800864147385984  0.2199137806475496  1.0000
  Te  Te6       1.0  0.7800859822619111  0.21991407465630233  0.7800860781887994  1.0000
