data_image0
_chemical_formula_structural       In2BSe6
_chemical_formula_sum              "In2 B1 Se6"
_cell_length_a       6.49730886242779
_cell_length_b       6.497309186498611
_cell_length_c       6.497309057009669
_cell_angle_alpha    59.99999949390572
_cell_angle_beta     60.000000147291445
_cell_angle_gamma    59.99999911848955

_space_group_name_H-M_alt    "P 1"
_space_group_IT_number       1

loop_
  _space_group_symop_operation_xyz
  'x, y, z'

loop_
  _atom_site_type_symbol
  _atom_site_label
  _atom_site_symmetry_multiplicity
  _atom_site_fract_x
  _atom_site_fract_y
  _atom_site_fract_z
  _atom_site_occupancy
  In  In1       1.0  0.2500000153071637  0.24999997442476354  0.2500000006951015  1.0000
  In  In2       1.0  0.7499999600399607  0.7500000156394497  0.7500000296254631  1.0000
  B   B1        1.0  1.7035842207039615e-08  7.540012538716813e-09  0.9999999923293689  1.0000
  Se  Se1       1.0  0.23199594407047505  0.23199594954644667  0.7680040135871818  1.0000
  Se  Se2       1.0  0.7680040012798893  0.768004029207749  0.23199595581453958  1.0000
  Se  Se3       1.0  0.7680040689949889  0.2319959452587478  0.23199593887294806  1.0000
  Se  Se4       1.0  0.23199596070913855  0.7680040523454781  0.7680040174043451  1.0000
  Se  Se5       1.0  0.23199589799187922  0.7680040994315309  0.23199600259975783  1.0000
  Se  Se6       1.0  0.7680041429852772  0.23199592833274427  0.7680040468543005  1.0000
