data_image0
_chemical_formula_structural       In2BiTe6
_chemical_formula_sum              "In2 Bi1 Te6"
_cell_length_a       7.691340698737942
_cell_length_b       7.691340619407451
_cell_length_c       7.6913409221478934
_cell_angle_alpha    59.99999979693862
_cell_angle_beta     59.99999952371983
_cell_angle_gamma    60.000000446186846

_space_group_name_H-M_alt    "P 1"
_space_group_IT_number       1

loop_
  _space_group_symop_operation_xyz
  'x, y, z'

loop_
  _atom_site_type_symbol
  _atom_site_label
  _atom_site_symmetry_multiplicity
  _atom_site_fract_x
  _atom_site_fract_y
  _atom_site_fract_z
  _atom_site_occupancy
  In  In1       1.0  0.25000002272018945  0.2500000124056073  0.24999997358798037  1.0000
  In  In2       1.0  0.7499999851806289  0.7499999798915546  0.7500000299214458  1.0000
  Bi  Bi1       1.0  0.9999999641665764  0.9999999633755223  0.9999999179140804  1.0000
  Te  Te1       1.0  0.2821207376693667  0.2821208077298367  0.7178792199962285  1.0000
  Te  Te2       1.0  0.7178792835453836  0.717879221191801  0.28212072734007226  1.0000
  Te  Te3       1.0  0.717879173043043  0.2821208475717005  0.2821208005022211  1.0000
  Te  Te4       1.0  0.2821207082307788  0.7178792768920488  0.7178792873483585  1.0000
  Te  Te5       1.0  0.28212080307936027  0.7178791751266039  0.2821208081280583  1.0000
  Te  Te6       1.0  0.7178793179211352  0.2821207120742369  0.7178792485868792  1.0000
