data_image0
_chemical_formula_structural       In2BiO6
_chemical_formula_sum              "In2 Bi1 O6"
_cell_length_a       5.715324050692104
_cell_length_b       5.715323843549524
_cell_length_c       5.7153241052561325
_cell_angle_alpha    60.00000232463099
_cell_angle_beta     60.000002741005964
_cell_angle_gamma    59.999998863933875

_space_group_name_H-M_alt    "P 1"
_space_group_IT_number       1

loop_
  _space_group_symop_operation_xyz
  'x, y, z'

loop_
  _atom_site_type_symbol
  _atom_site_label
  _atom_site_symmetry_multiplicity
  _atom_site_fract_x
  _atom_site_fract_y
  _atom_site_fract_z
  _atom_site_occupancy
  In  In1       1.0  0.24999976896674753  0.24999983496900924  0.2500001423641498  1.0000
  In  In2       1.0  0.7499997815931974  0.7500000749221705  0.7499992381095669  1.0000
  Bi  Bi1       1.0  3.412201754041111e-08  0.9999999764279441  2.9718660270491055e-08  1.0000
  O   O1        1.0  0.2505234036516883  0.25052295772666805  0.7494768471950365  1.0000
  O   O2        1.0  0.7494766556079452  0.7494770807393941  0.250523565395953  1.0000
  O   O3        1.0  0.7494770721360585  0.25052300827279367  0.25052321648330067  1.0000
  O   O4        1.0  0.25052327244594097  0.7494768651888624  0.7494769417340031  1.0000
  O   O5        1.0  0.2505228899342742  0.7494768513787253  0.25052333124256865  1.0000
  O   O6        1.0  0.7494771262009262  0.25052336494920585  0.7494766955375741  1.0000
