data_image0
_chemical_formula_structural       In2BiO6
_chemical_formula_sum              "In2 Bi1 O6"
_cell_length_a       5.7157084549512245
_cell_length_b       5.715708161813598
_cell_length_c       5.715708125324545
_cell_angle_alpha    60.00000040840425
_cell_angle_beta     60.00000125101528
_cell_angle_gamma    59.999999052866265

_space_group_name_H-M_alt    "P 1"
_space_group_IT_number       1

loop_
  _space_group_symop_operation_xyz
  'x, y, z'

loop_
  _atom_site_type_symbol
  _atom_site_label
  _atom_site_symmetry_multiplicity
  _atom_site_fract_x
  _atom_site_fract_y
  _atom_site_fract_z
  _atom_site_occupancy
  In  In1       1.0  0.24999982348106028  0.2500002137386945  0.24999988557973024  1.0000
  In  In2       1.0  0.7499999647574606  0.7499998976748425  0.7499999108204405  1.0000
  Bi  Bi1       1.0  6.550857840595655e-09  0.9999999742867582  2.5829339049065483e-09  1.0000
  O   O1        1.0  0.250504241180394  0.2505043049126434  0.7494957513955055  1.0000
  O   O2        1.0  0.7494957856510839  0.7494956543642138  0.25050431844769894  1.0000
  O   O3        1.0  0.7494958601241369  0.25050426870035697  0.2505042207640411  1.0000
  O   O4        1.0  0.25050437954500443  0.7494956884337293  0.7494958137142956  1.0000
  O   O5        1.0  0.25050419881098385  0.7494957375063274  0.2505043044918197  1.0000
  O   O6        1.0  0.7494957597600231  0.2505043053385657  0.7494957646958607  1.0000
