data_image0
_chemical_formula_structural       In2BS6
_chemical_formula_sum              "In2 B1 S6"
_cell_length_a       6.4297056597165225
_cell_length_b       6.429706004527726
_cell_length_c       6.429707239024646
_cell_angle_alpha    60.000000402438516
_cell_angle_beta     59.9999942781944
_cell_angle_gamma    60.000000336472745

_space_group_name_H-M_alt    "P 1"
_space_group_IT_number       1

loop_
  _space_group_symop_operation_xyz
  'x, y, z'

loop_
  _atom_site_type_symbol
  _atom_site_label
  _atom_site_symmetry_multiplicity
  _atom_site_fract_x
  _atom_site_fract_y
  _atom_site_fract_z
  _atom_site_occupancy
  In  In1       1.0  0.2500002412693764  0.25000009002562784  0.24999979573958292  1.0000
  In  In2       1.0  0.7500000456239733  0.7499998586352224  0.7499998449359011  1.0000
  B   B1        1.0  0.9999997733015429  0.9999999904759328  7.946583907866151e-07  1.0000
  S   S1        1.0  0.22136926979888147  0.2213689828628241  0.7786309855681726  1.0000
  S   S2        1.0  0.7786308460000559  0.7786307086470199  0.22136927982412688  1.0000
  S   S3        1.0  0.7786308741141746  0.22136960345183337  0.22136904307704608  1.0000
  S   S4        1.0  0.2213692710319605  0.7786303071125713  0.7786307497314943  1.0000
  S   S5        1.0  0.2213691552704451  0.7786307647626102  0.22136932305649784  1.0000
  S   S6        1.0  0.7786305424202119  0.22136963153151198  0.7786302779787744  1.0000
