data_image0
_chemical_formula_structural       In2GaSe6
_chemical_formula_sum              "In2 Ga1 Se6"
_cell_length_a       6.570589649273802
_cell_length_b       6.57059010128512
_cell_length_c       6.570589452521824
_cell_angle_alpha    60.000003904889546
_cell_angle_beta     60.0000025101896
_cell_angle_gamma    60.000003912120675

_space_group_name_H-M_alt    "P 1"
_space_group_IT_number       1

loop_
  _space_group_symop_operation_xyz
  'x, y, z'

loop_
  _atom_site_type_symbol
  _atom_site_label
  _atom_site_symmetry_multiplicity
  _atom_site_fract_x
  _atom_site_fract_y
  _atom_site_fract_z
  _atom_site_occupancy
  In  In1       1.0  0.24999997234733232  0.2500000882314258  0.25000004436649986  1.0000
  In  In2       1.0  0.7500001253050435  0.7499999720494286  0.7499998404650388  1.0000
  Ga  Ga1       1.0  0.9999999825511185  0.9999999627204013  2.127650581409482e-08  1.0000
  Se  Se1       1.0  0.28377148366469207  0.283771299144702  0.7162286508885725  1.0000
  Se  Se2       1.0  0.716228752360635  0.716228662345217  0.2837713480821045  1.0000
  Se  Se3       1.0  0.716228542749328  0.2837713641741771  0.2837714722618043  1.0000
  Se  Se4       1.0  0.28377123209379673  0.7162288209933314  0.7162285845838362  1.0000
  Se  Se5       1.0  0.2837713098498812  0.7162286153077556  0.28377134612049904  1.0000
  Se  Se6       1.0  0.7162286117846655  0.2837712138395864  0.7162286646681001  1.0000
