data_image0
_chemical_formula_structural       In2GaS6
_chemical_formula_sum              "In2 Ga1 S6"
_cell_length_a       6.416115410565852
_cell_length_b       6.41611501076827
_cell_length_c       6.416115344013742
_cell_angle_alpha    59.99999761939693
_cell_angle_beta     60.00000211924078
_cell_angle_gamma    59.99999801026135

_space_group_name_H-M_alt    "P 1"
_space_group_IT_number       1

loop_
  _space_group_symop_operation_xyz
  'x, y, z'

loop_
  _atom_site_type_symbol
  _atom_site_label
  _atom_site_symmetry_multiplicity
  _atom_site_fract_x
  _atom_site_fract_y
  _atom_site_fract_z
  _atom_site_occupancy
  In  In1       1.0  0.24999972908618742  0.25000035854062785  0.24999991277918707  1.0000
  In  In2       1.0  0.7500005216295275  0.7499998692239511  0.7499995683679365  1.0000
  Ga  Ga1       1.0  4.862903507213253e-08  0.9999999350988462  0.9999999457930414  1.0000
  S   S1        1.0  0.2589072719046509  0.2589074412276967  0.7410928663050116  1.0000
  S   S2        1.0  0.7410926165124545  0.7410926586434231  0.2589074288181894  1.0000
  S   S3        1.0  0.7410929180178273  0.2589072760099661  0.25890716297660554  1.0000
  S   S4        1.0  0.2589067782506175  0.7410928334054441  0.7410930395368722  1.0000
  S   S5        1.0  0.2589070335518126  0.7410923439599204  0.2589074220763101  1.0000
  S   S6        1.0  0.741093057238422  0.25890727297025945  0.7410926875885278  1.0000
