data_image0
_chemical_formula_structural       In2GaTe6
_chemical_formula_sum              "In2 Ga1 Te6"
_cell_length_a       7.382753393795217
_cell_length_b       7.382753525374257
_cell_length_c       7.382753444967811
_cell_angle_alpha    59.99999986688326
_cell_angle_beta     59.99999945013139
_cell_angle_gamma    59.999999940043345

_space_group_name_H-M_alt    "P 1"
_space_group_IT_number       1

loop_
  _space_group_symop_operation_xyz
  'x, y, z'

loop_
  _atom_site_type_symbol
  _atom_site_label
  _atom_site_symmetry_multiplicity
  _atom_site_fract_x
  _atom_site_fract_y
  _atom_site_fract_z
  _atom_site_occupancy
  In  In1       1.0  0.2500000030388113  0.24999999495733652  0.250000000482088  1.0000
  In  In2       1.0  0.7499999987210498  0.7499999832130828  0.7499999979918619  1.0000
  Ga  Ga1       1.0  3.2687883121755004e-08  0.9999999535500457  2.817511136189954e-09  1.0000
  Te  Te1       1.0  0.2688885789137693  0.26888858461726933  0.7311114104894597  1.0000
  Te  Te2       1.0  0.7311114151993083  0.7311114118013463  0.268888597583374  1.0000
  Te  Te3       1.0  0.7311113510417182  0.2688886244143859  0.2688886256916081  1.0000
  Te  Te4       1.0  0.26888859804453863  0.7311114367023801  0.7311114145353146  1.0000
  Te  Te5       1.0  0.2688886078050559  0.7311114072081457  0.26888856873766565  1.0000
  Te  Te6       1.0  0.7311114116011922  0.2688886024818854  0.7311113726450881  1.0000
