data_image0
_chemical_formula_structural       In2GaO6
_chemical_formula_sum              "In2 Ga1 O6"
_cell_length_a       5.177500970574183
_cell_length_b       5.177500834640521
_cell_length_c       5.177500839731309
_cell_angle_alpha    60.00000023065296
_cell_angle_beta     60.000000102738284
_cell_angle_gamma    59.999999307271715

_space_group_name_H-M_alt    "P 1"
_space_group_IT_number       1

loop_
  _space_group_symop_operation_xyz
  'x, y, z'

loop_
  _atom_site_type_symbol
  _atom_site_label
  _atom_site_symmetry_multiplicity
  _atom_site_fract_x
  _atom_site_fract_y
  _atom_site_fract_z
  _atom_site_occupancy
  In  In1       1.0  0.25000002308639957  0.2500002170532329  0.2499997902220674  1.0000
  In  In2       1.0  0.7499999610490817  0.7499999320435586  0.7499997785350286  1.0000
  Ga  Ga1       1.0  4.843101067989018e-09  1.892410916059607e-08  2.6745070427613477e-08  1.0000
  O   O1        1.0  0.26002693012928213  0.2600270028943228  0.7399729901248194  1.0000
  O   O2        1.0  0.7399731283961957  0.7399729096511087  0.26002704986258035  1.0000
  O   O3        1.0  0.739973051209393  0.2600267912213197  0.2600271387998793  1.0000
  O   O4        1.0  0.26002706672449666  0.739972929717509  0.7399731140755822  1.0000
  O   O5        1.0  0.26002698389529594  0.7399730215763641  0.2600269430761245  1.0000
  O   O6        1.0  0.7399728766306622  0.2600271771962168  0.7399731416434157  1.0000
