data_image0
_chemical_formula_structural       In2GaO6
_chemical_formula_sum              "In2 Ga1 O6"
_cell_length_a       5.177797703706222
_cell_length_b       5.177797956214708
_cell_length_c       5.177797301809386
_cell_angle_alpha    59.999998861333154
_cell_angle_beta     60.00000077533307
_cell_angle_gamma    60.0000037992698

_space_group_name_H-M_alt    "P 1"
_space_group_IT_number       1

loop_
  _space_group_symop_operation_xyz
  'x, y, z'

loop_
  _atom_site_type_symbol
  _atom_site_label
  _atom_site_symmetry_multiplicity
  _atom_site_fract_x
  _atom_site_fract_y
  _atom_site_fract_z
  _atom_site_occupancy
  In  In1       1.0  0.2500016558953103  0.2499997139079465  0.24999904075815452  1.0000
  In  In2       1.0  0.750000425119401  0.749999796933241  0.7500007288223289  1.0000
  Ga  Ga1       1.0  3.65589162455456e-08  7.096133423180178e-08  2.248243911544152e-09  1.0000
  O   O1        1.0  0.25997679175841387  0.2599772652864263  0.7400228799021061  1.0000
  O   O2        1.0  0.7400225896486852  0.7400231656867031  0.2599766727680247  1.0000
  O   O3        1.0  0.7400225870177349  0.25997727552748656  0.25997675661497666  1.0000
  O   O4        1.0  0.25997676024621214  0.740022762792912  0.7400230982939785  1.0000
  O   O5        1.0  0.2599770827174023  0.740023152758272  0.2599769783816479  1.0000
  O   O6        1.0  0.7400221058732559  0.2599767862162082  0.7400237896541321  1.0000
