data_image0
_chemical_formula_structural       In2IrO6
_chemical_formula_sum              "In2 Ir1 O6"
_cell_length_a       5.57148200831106
_cell_length_b       5.571482239739793
_cell_length_c       5.571482111306078
_cell_angle_alpha    59.99999961466007
_cell_angle_beta     60.00000021438232
_cell_angle_gamma    60.00000125646965

_space_group_name_H-M_alt    "P 1"
_space_group_IT_number       1

loop_
  _space_group_symop_operation_xyz
  'x, y, z'

loop_
  _atom_site_type_symbol
  _atom_site_label
  _atom_site_symmetry_multiplicity
  _atom_site_fract_x
  _atom_site_fract_y
  _atom_site_fract_z
  _atom_site_occupancy
  In  In1       1.0  0.2500002443170206  0.25000001737810057  0.24999974727417706  1.0000
  In  In2       1.0  0.7500000192321526  0.7499999114470085  0.7499997462043746  1.0000
  Ir  Ir1       1.0  0.9999999787719279  2.6378865624895136e-08  1.7168002902758576e-08  1.0000
  O   O1        1.0  0.2399458888078291  0.23994586268071139  0.7600541324116766  1.0000
  O   O2        1.0  0.7600540218454455  0.7600542046334329  0.2399460318546314  1.0000
  O   O3        1.0  0.7600541368784465  0.23994581620312494  0.23994591083234182  1.0000
  O   O4        1.0  0.23994590958062773  0.7600540488730483  0.7600541933176179  1.0000
  O   O5        1.0  0.23994578890464505  0.7600541429956111  0.23994599981760212  1.0000
  O   O6        1.0  0.7600540210104996  0.23994599026569702  0.7600542177412785  1.0000
