data_image0
_chemical_formula_structural       In2IrS6
_chemical_formula_sum              "In2 Ir1 S6"
_cell_length_a       6.3133855971145625
_cell_length_b       6.313385638218588
_cell_length_c       6.313385194991193
_cell_angle_alpha    60.00000254401555
_cell_angle_beta     60.00000224949705
_cell_angle_gamma    60.00000085346191

_space_group_name_H-M_alt    "P 1"
_space_group_IT_number       1

loop_
  _space_group_symop_operation_xyz
  'x, y, z'

loop_
  _atom_site_type_symbol
  _atom_site_label
  _atom_site_symmetry_multiplicity
  _atom_site_fract_x
  _atom_site_fract_y
  _atom_site_fract_z
  _atom_site_occupancy
  In  In1       1.0  0.2499999314199363  0.24999999899665715  0.2500000279568071  1.0000
  In  In2       1.0  0.7499999367896396  0.7500000357883236  0.7499999932063302  1.0000
  Ir  Ir1       1.0  1.1103812989044616e-08  0.9999999612016462  1.543120662071211e-08  1.0000
  S   S1        1.0  0.25693604520089275  0.2569359971093137  0.7430640215277984  1.0000
  S   S2        1.0  0.7430640287411081  0.7430639911176409  0.25693605785059803  1.0000
  S   S3        1.0  0.7430639944610177  0.2569360110624891  0.2569359753505831  1.0000
  S   S4        1.0  0.2569359027711823  0.743064068340598  0.7430639709777179  1.0000
  S   S5        1.0  0.25693609040942417  0.7430639587454059  0.25693595540964537  1.0000
  S   S6        1.0  0.7430640590941908  0.2569359674041819  0.7430639699205513  1.0000
