data_image0
_chemical_formula_structural       In2MoSe6
_chemical_formula_sum              "In2 Mo1 Se6"
_cell_length_a       6.94046164104526
_cell_length_b       6.940461520255224
_cell_length_c       6.940461639050355
_cell_angle_alpha    59.99999936915528
_cell_angle_beta     59.99999945048979
_cell_angle_gamma    60.000000218550284

_space_group_name_H-M_alt    "P 1"
_space_group_IT_number       1

loop_
  _space_group_symop_operation_xyz
  'x, y, z'

loop_
  _atom_site_type_symbol
  _atom_site_label
  _atom_site_symmetry_multiplicity
  _atom_site_fract_x
  _atom_site_fract_y
  _atom_site_fract_z
  _atom_site_occupancy
  In  In1       1.0  0.2500000043048225  0.250000001867789  0.24999999724460673  1.0000
  In  In2       1.0  0.7499999794381649  0.7500000161912348  0.7499999974147324  1.0000
  Mo  Mo1       1.0  0.9999999780025461  0.9999999611778158  0.9999999036171006  1.0000
  Se  Se1       1.0  0.2489626762674639  0.2489626490895062  0.7510373651014309  1.0000
  Se  Se2       1.0  0.751037342027334  0.7510373601462943  0.2489626844124526  1.0000
  Se  Se3       1.0  0.7510373028075243  0.24896269099953464  0.2489626957056689  1.0000
  Se  Se4       1.0  0.2489626405851095  0.7510373782341857  0.7510373425295944  1.0000
  Se  Se5       1.0  0.24896271728633176  0.7510372963678665  0.248962684776322  1.0000
  Se  Se6       1.0  0.7510373505684144  0.24896264404679053  0.7510373325841949  1.0000
