data_image0
_chemical_formula_structural       In2NO6
_chemical_formula_sum              "In2 N1 O6"
_cell_length_a       5.068364244068601
_cell_length_b       5.06836424763022
_cell_length_c       5.068364271025124
_cell_angle_alpha    60.00000032601243
_cell_angle_beta     60.00000218543727
_cell_angle_gamma    60.000000134313495

_space_group_name_H-M_alt    "P 1"
_space_group_IT_number       1

loop_
  _space_group_symop_operation_xyz
  'x, y, z'

loop_
  _atom_site_type_symbol
  _atom_site_label
  _atom_site_symmetry_multiplicity
  _atom_site_fract_x
  _atom_site_fract_y
  _atom_site_fract_z
  _atom_site_occupancy
  In  In1       1.0  0.25000003626248773  0.24999999728495328  0.24999993817903277  1.0000
  In  In2       1.0  0.7500001757333588  0.74999986619946  0.7499999484620777  1.0000
  N   N1        1.0  0.9999746309288203  3.3854465447295314e-06  1.19428090315453e-05  1.0000
  O   O1        1.0  0.22935637049002267  0.22935670801979544  0.7706434299512962  1.0000
  O   O2        1.0  0.7706545888500685  0.7706549429076047  0.22934527019038176  1.0000
  O   O3        1.0  0.7706529183958084  0.2293468159538331  0.22934695484506085  1.0000
  O   O4        1.0  0.2293546151320813  0.7706453197235165  0.7706451639201679  1.0000
  O   O5        1.0  0.22935422577294645  0.7706456768342005  0.22935438812482614  1.0000
  O   O6        1.0  0.7706523775928286  0.2293473287650958  0.770652848468442  1.0000
