data_image0
_chemical_formula_structural       In2NO6
_chemical_formula_sum              "In2 N1 O6"
_cell_length_a       5.06803719595361
_cell_length_b       5.068036313555778
_cell_length_c       5.06803703601409
_cell_angle_alpha    59.99999784266498
_cell_angle_beta     60.000000026196204
_cell_angle_gamma    59.999995253550665

_space_group_name_H-M_alt    "P 1"
_space_group_IT_number       1

loop_
  _space_group_symop_operation_xyz
  'x, y, z'

loop_
  _atom_site_type_symbol
  _atom_site_label
  _atom_site_symmetry_multiplicity
  _atom_site_fract_x
  _atom_site_fract_y
  _atom_site_fract_z
  _atom_site_occupancy
  In  In1       1.0  0.2500000942423182  0.25000002394986715  0.2500001198181158  1.0000
  In  In2       1.0  0.7499997384188474  0.7500001395145705  0.7500000788373309  1.0000
  N   N1        1.0  0.9999979133056554  2.931343634051405e-06  0.9999987864420626  1.0000
  O   O1        1.0  0.22927715390333342  0.2292770069763875  0.7707229545863352  1.0000
  O   O2        1.0  0.7707224694101944  0.7707224653385948  0.22927743780807622  1.0000
  O   O3        1.0  0.7707229632379214  0.22927698355396314  0.2292768424910596  1.0000
  O   O4        1.0  0.22927783902633384  0.7707221166035804  0.7707221540119711  1.0000
  O   O5        1.0  0.2292782379576557  0.7707216541633325  0.2292782123896711  1.0000
  O   O6        1.0  0.7707235976098831  0.22927654701668554  0.7707234122740891  1.0000
