data_image0
_chemical_formula_structural       In2PSe6
_chemical_formula_sum              "In2 P1 Se6"
_cell_length_a       6.634629392431793
_cell_length_b       6.63462947823687
_cell_length_c       6.634629213218393
_cell_angle_alpha    60.00000070359015
_cell_angle_beta     60.0000012726606
_cell_angle_gamma    60.00000037203969

_space_group_name_H-M_alt    "P 1"
_space_group_IT_number       1

loop_
  _space_group_symop_operation_xyz
  'x, y, z'

loop_
  _atom_site_type_symbol
  _atom_site_label
  _atom_site_symmetry_multiplicity
  _atom_site_fract_x
  _atom_site_fract_y
  _atom_site_fract_z
  _atom_site_occupancy
  In  In1       1.0  0.24999996808572425  0.25000003710472296  0.25000000952289  1.0000
  In  In2       1.0  0.7500000482561627  0.7500000134767858  0.7500000552268941  1.0000
  P   P1        1.0  3.758632967779508e-08  0.9999999760021513  1.2799921796395637e-08  1.0000
  Se  Se1       1.0  0.24615719102831038  0.24615720021833992  0.7538427944041477  1.0000
  Se  Se2       1.0  0.7538427859174853  0.7538428171353803  0.24615719059984728  1.0000
  Se  Se3       1.0  0.7538427801791528  0.24615719264041883  0.24615722714513952  1.0000
  Se  Se4       1.0  0.24615723591846647  0.7538427490277791  0.7538427731112187  1.0000
  Se  Se5       1.0  0.24615719229261554  0.7538427957682385  0.2461571780185267  1.0000
  Se  Se6       1.0  0.7538427632584502  0.24615721789350525  0.7538427803404971  1.0000
