data_image0
_chemical_formula_structural       In2PS6
_chemical_formula_sum              "In2 P1 S6"
_cell_length_a       6.628706380904027
_cell_length_b       6.628706198620136
_cell_length_c       6.628706111644581
_cell_angle_alpha    60.000005228377226
_cell_angle_beta     60.000005730445984
_cell_angle_gamma    60.000001778436385

_space_group_name_H-M_alt    "P 1"
_space_group_IT_number       1

loop_
  _space_group_symop_operation_xyz
  'x, y, z'

loop_
  _atom_site_type_symbol
  _atom_site_label
  _atom_site_symmetry_multiplicity
  _atom_site_fract_x
  _atom_site_fract_y
  _atom_site_fract_z
  _atom_site_occupancy
  In  In1       1.0  0.24999993445083177  0.24999995122095983  0.2500001203985395  1.0000
  In  In2       1.0  0.749999912178703  0.7500000236455492  0.7500000377432053  1.0000
  P   P1        1.0  5.947454172459064e-09  0.9999999926094462  0.9999999328349981  1.0000
  S   S1        1.0  0.23244280187842697  0.2324429325383509  0.7675571200085757  1.0000
  S   S2        1.0  0.7675571612154676  0.767557116233665  0.2324428448898897  1.0000
  S   S3        1.0  0.7675571979528343  0.2324429143274172  0.23244267442192998  1.0000
  S   S4        1.0  0.23244289281504804  0.7675571381398704  0.767557175008439  1.0000
  S   S5        1.0  0.23244287362839394  0.7675571456413595  0.2324427995136403  1.0000
  S   S6        1.0  0.7675572336988252  0.23244279966293827  0.7675571842253637  1.0000
