data_image0
_chemical_formula_structural       In2PO6
_chemical_formula_sum              "In2 P1 O6"
_cell_length_a       4.988294806276083
_cell_length_b       4.988295277369472
_cell_length_c       4.988295613688614
_cell_angle_alpha    59.99999535227897
_cell_angle_beta     59.999995070185086
_cell_angle_gamma    59.99999691649158

_space_group_name_H-M_alt    "P 1"
_space_group_IT_number       1

loop_
  _space_group_symop_operation_xyz
  'x, y, z'

loop_
  _atom_site_type_symbol
  _atom_site_label
  _atom_site_symmetry_multiplicity
  _atom_site_fract_x
  _atom_site_fract_y
  _atom_site_fract_z
  _atom_site_occupancy
  In  In1       1.0  0.25000007294954446  0.2499999963243772  0.2499999582209163  1.0000
  In  In2       1.0  0.7499999077038861  0.7499999987940841  0.7500001175405112  1.0000
  P   P1        1.0  1.0615272151387418e-08  9.820948495634598e-09  2.3861666105205666e-08  1.0000
  O   O1        1.0  0.23975979240571357  0.23975977598819836  0.7602402234806221  1.0000
  O   O2        1.0  0.7602402789710503  0.7602401552940901  0.2397597807011372  1.0000
  O   O3        1.0  0.7602401878091843  0.23975981151536457  0.23975981132207883  1.0000
  O   O4        1.0  0.23975982592972483  0.7602401885135724  0.7602401913146675  1.0000
  O   O5        1.0  0.23975981441385397  0.7602402649929859  0.23975976010204456  1.0000
  O   O6        1.0  0.7602401205729836  0.23975981851402386  0.7602402622233194  1.0000
