data_image0
_chemical_formula_structural       In2RuSe6
_chemical_formula_sum              "In2 Ru1 Se6"
_cell_length_a       6.6793349524637184
_cell_length_b       6.6793348532027945
_cell_length_c       6.679334856214217
_cell_angle_alpha    60.00000018778064
_cell_angle_beta     60.00000014208191
_cell_angle_gamma    59.99999991026773

_space_group_name_H-M_alt    "P 1"
_space_group_IT_number       1

loop_
  _space_group_symop_operation_xyz
  'x, y, z'

loop_
  _atom_site_type_symbol
  _atom_site_label
  _atom_site_symmetry_multiplicity
  _atom_site_fract_x
  _atom_site_fract_y
  _atom_site_fract_z
  _atom_site_occupancy
  In  In1       1.0  0.24999997420843148  0.2500000004321008  0.25000004864563563  1.0000
  In  In2       1.0  0.7499999841447829  0.750000008630834  0.7500000261720581  1.0000
  Ru  Ru1       1.0  0.9999999949365628  0.9999999633273401  0.9999999774505517  1.0000
  Se  Se1       1.0  0.25904210259546834  0.25904211037996716  0.7409579387354959  1.0000
  Se  Se2       1.0  0.7409579063114211  0.740957876679372  0.25904213827586375  1.0000
  Se  Se3       1.0  0.7409579020805567  0.2590420840610739  0.25904208061990375  1.0000
  Se  Se4       1.0  0.25904211271071603  0.7409579268354938  0.7409578797241058  1.0000
  Se  Se5       1.0  0.2590421184701792  0.7409579196179339  0.259042041631977  1.0000
  Se  Se6       1.0  0.7409579009830547  0.25904211878312833  0.7409578651999279  1.0000
