data_image0
_chemical_formula_structural       In2RuS6
_chemical_formula_sum              "In2 Ru1 S6"
_cell_length_a       6.127084156119714
_cell_length_b       6.127084181752471
_cell_length_c       6.127083575065904
_cell_angle_alpha    60.00000175176232
_cell_angle_beta     60.00000492441913
_cell_angle_gamma    60.00000299213445

_space_group_name_H-M_alt    "P 1"
_space_group_IT_number       1

loop_
  _space_group_symop_operation_xyz
  'x, y, z'

loop_
  _atom_site_type_symbol
  _atom_site_label
  _atom_site_symmetry_multiplicity
  _atom_site_fract_x
  _atom_site_fract_y
  _atom_site_fract_z
  _atom_site_occupancy
  In  In1       1.0  0.24999996569652194  0.25000000847406095  0.24999999423031036  1.0000
  In  In2       1.0  0.7500000748709015  0.7499998934945689  0.7500000397368692  1.0000
  Ru  Ru1       1.0  0.9999998376382954  1.1393748349875439e-07  2.9948348508227155e-09  1.0000
  S   S1        1.0  0.26363727885679134  0.26363732217810487  0.7363627448797894  1.0000
  S   S2        1.0  0.736362805474114  0.736362623766396  0.26363728438806255  1.0000
  S   S3        1.0  0.7363626411422669  0.26363736041470515  0.2636372248313862  1.0000
  S   S4        1.0  0.26363734633009417  0.7363627234541218  0.7363626582320365  1.0000
  S   S5        1.0  0.263637248100166  0.736362760798023  0.2636372501341114  1.0000
  S   S6        1.0  0.7363627795592851  0.26363722512454324  0.7363627466779871  1.0000
