data_image0
_chemical_formula_structural       In2RuO6
_chemical_formula_sum              "In2 Ru1 O6"
_cell_length_a       5.529408032355029
_cell_length_b       5.529407996893519
_cell_length_c       5.5294079169490695
_cell_angle_alpha    60.000000004852176
_cell_angle_beta     59.999999851596876
_cell_angle_gamma    59.999999595320006

_space_group_name_H-M_alt    "P 1"
_space_group_IT_number       1

loop_
  _space_group_symop_operation_xyz
  'x, y, z'

loop_
  _atom_site_type_symbol
  _atom_site_label
  _atom_site_symmetry_multiplicity
  _atom_site_fract_x
  _atom_site_fract_y
  _atom_site_fract_z
  _atom_site_occupancy
  In  In1       1.0  0.24999991664467963  0.24999991855811085  0.2500000856207175  1.0000
  In  In2       1.0  0.7499997070641717  0.7500001787327707  0.7499999329379854  1.0000
  Ru  Ru1       1.0  9.196422260182709e-09  2.8794553372444583e-08  0.9999999556853455  1.0000
  O   O1        1.0  0.23951841382158526  0.23951820170733  0.7604817175396281  1.0000
  O   O2        1.0  0.76048172190198  0.7604816563672602  0.23951839610938389  1.0000
  O   O3        1.0  0.7604817140105021  0.23951824494718835  0.23951838487806767  1.0000
  O   O4        1.0  0.23951842569776352  0.7604817327355464  0.7604816091021406  1.0000
  O   O5        1.0  0.2395184021086807  0.7604816851508955  0.23951824078274953  1.0000
  O   O6        1.0  0.7604817116533779  0.2395183390461179  0.7604816759984827  1.0000
