data_image0
_chemical_formula_structural       In2RhS6
_chemical_formula_sum              "In2 Rh1 S6"
_cell_length_a       6.226209428371158
_cell_length_b       6.226209573595464
_cell_length_c       6.226209602586895
_cell_angle_alpha    59.999996777645
_cell_angle_beta     59.999999438876294
_cell_angle_gamma    60.00000215694861

_space_group_name_H-M_alt    "P 1"
_space_group_IT_number       1

loop_
  _space_group_symop_operation_xyz
  'x, y, z'

loop_
  _atom_site_type_symbol
  _atom_site_label
  _atom_site_symmetry_multiplicity
  _atom_site_fract_x
  _atom_site_fract_y
  _atom_site_fract_z
  _atom_site_occupancy
  In  In1       1.0  0.25000004369823753  0.25000020970018194  0.24999987440892674  1.0000
  In  In2       1.0  0.7499999846699852  0.7499999111165365  0.7500000859473235  1.0000
  Rh  Rh1       1.0  0.9999999061652972  2.5572027810213564e-08  7.42841769492228e-08  1.0000
  S   S1        1.0  0.26026693527932904  0.26026679870590474  0.7397331304857605  1.0000
  S   S2        1.0  0.7397331949077168  0.7397330722917268  0.26026689744617304  1.0000
  S   S3        1.0  0.7397329478893766  0.26026702297522303  0.26026691164470617  1.0000
  S   S4        1.0  0.26026707489910694  0.7397329365409838  0.7397330132992658  1.0000
  S   S5        1.0  0.2602669315791326  0.7397330719035097  0.26026688289669747  1.0000
  S   S6        1.0  0.7397329452953005  0.2602669859666621  0.7397331316779727  1.0000
