data_image0
_chemical_formula_structural       In2RhSe6
_chemical_formula_sum              "In2 Rh1 Se6"
_cell_length_a       6.644919855690825
_cell_length_b       6.644919846350435
_cell_length_c       6.64491973807844
_cell_angle_alpha    59.99999951470361
_cell_angle_beta     60.00000001785303
_cell_angle_gamma    59.99999845098089

_space_group_name_H-M_alt    "P 1"
_space_group_IT_number       1

loop_
  _space_group_symop_operation_xyz
  'x, y, z'

loop_
  _atom_site_type_symbol
  _atom_site_label
  _atom_site_symmetry_multiplicity
  _atom_site_fract_x
  _atom_site_fract_y
  _atom_site_fract_z
  _atom_site_occupancy
  In  In1       1.0  0.24999996539457373  0.2499999843509581  0.2500000282836875  1.0000
  In  In2       1.0  0.7500000104334665  0.7500000065036329  0.7499999829419005  1.0000
  Rh  Rh1       1.0  5.7115829721542695e-08  4.239198134194568e-08  0.9999999457313666  1.0000
  Se  Se1       1.0  0.2596441599628973  0.2596441498826327  0.7403558332131565  1.0000
  Se  Se2       1.0  0.7403558238520386  0.7403558170112726  0.25964417396005407  1.0000
  Se  Se3       1.0  0.7403558588179194  0.2596441359338138  0.2596441389728544  1.0000
  Se  Se4       1.0  0.25964410491532425  0.7403559120577963  0.7403558813347125  1.0000
  Se  Se5       1.0  0.2596441064823808  0.7403558686871722  0.2596441230263965  1.0000
  Se  Se6       1.0  0.7403559094366999  0.2596440853048249  0.7403558986242411  1.0000
