data_image0
_chemical_formula_structural       In2RhO6
_chemical_formula_sum              "In2 Rh1 O6"
_cell_length_a       5.382611669430974
_cell_length_b       5.382611864869343
_cell_length_c       5.382611810497247
_cell_angle_alpha    60.00000086710605
_cell_angle_beta     60.00000055033786
_cell_angle_gamma    60.0000014100541

_space_group_name_H-M_alt    "P 1"
_space_group_IT_number       1

loop_
  _space_group_symop_operation_xyz
  'x, y, z'

loop_
  _atom_site_type_symbol
  _atom_site_label
  _atom_site_symmetry_multiplicity
  _atom_site_fract_x
  _atom_site_fract_y
  _atom_site_fract_z
  _atom_site_occupancy
  In  In1       1.0  0.2499997541733719  0.2500004670910124  0.24999984005807213  1.0000
  In  In2       1.0  0.7500003269997156  0.7499997652800106  0.7499998337984468  1.0000
  Rh  Rh1       1.0  3.636131184349594e-08  0.9999999681447812  5.178290324091101e-09  1.0000
  O   O1        1.0  0.2498941464935684  0.24989424620615738  0.7501057217805549  1.0000
  O   O2        1.0  0.7501059084868991  0.7501056721634218  0.24989431538774526  1.0000
  O   O3        1.0  0.7501058981221453  0.24989436369028967  0.24989412132136363  1.0000
  O   O4        1.0  0.24989394385102429  0.7501055501285433  0.7501060153367854  1.0000
  O   O5        1.0  0.2498941799216747  0.7501058888158771  0.24989430926526632  1.0000
  O   O6        1.0  0.750105817482996  0.2498940864380214  0.7501058174248109  1.0000
