data_image0
_chemical_formula_structural       In2SbTe6
_chemical_formula_sum              "In2 Sb1 Te6"
_cell_length_a       7.57999861039083
_cell_length_b       7.579998489942171
_cell_length_c       7.57999863491259
_cell_angle_alpha    59.99999981012551
_cell_angle_beta     59.9999996328796
_cell_angle_gamma    60.000001191653965

_space_group_name_H-M_alt    "P 1"
_space_group_IT_number       1

loop_
  _space_group_symop_operation_xyz
  'x, y, z'

loop_
  _atom_site_type_symbol
  _atom_site_label
  _atom_site_symmetry_multiplicity
  _atom_site_fract_x
  _atom_site_fract_y
  _atom_site_fract_z
  _atom_site_occupancy
  In  In1       1.0  0.24999996350203513  0.24999999846140283  0.25000002761458834  1.0000
  In  In2       1.0  0.7500000182669985  0.7500000325466613  0.7499999634427714  1.0000
  Sb  Sb1       1.0  2.9112645666592612e-08  1.7773346387334926e-08  0.9999999594066051  1.0000
  Te  Te1       1.0  0.27553768923623234  0.27553768738973644  0.7244623219734235  1.0000
  Te  Te2       1.0  0.7244622808397277  0.72446226444615  0.2755377343054833  1.0000
  Te  Te3       1.0  0.7244622953751647  0.27553770393351484  0.2755377226241834  1.0000
  Te  Te4       1.0  0.2755376837933446  0.7244623303060665  0.7244622615213727  1.0000
  Te  Te5       1.0  0.2755377146429149  0.7244623098380832  0.27553772429611656  1.0000
  Te  Te6       1.0  0.7244623262147786  0.27553765815539183  0.7244622898323907  1.0000
