data_image0
_chemical_formula_structural       In2SbS6
_chemical_formula_sum              "In2 Sb1 S6"
_cell_length_a       6.817581352172776
_cell_length_b       6.817581578652047
_cell_length_c       6.817581613649819
_cell_angle_alpha    60.000000102231176
_cell_angle_beta     59.999999511495304
_cell_angle_gamma    59.99999797280224

_space_group_name_H-M_alt    "P 1"
_space_group_IT_number       1

loop_
  _space_group_symop_operation_xyz
  'x, y, z'

loop_
  _atom_site_type_symbol
  _atom_site_label
  _atom_site_symmetry_multiplicity
  _atom_site_fract_x
  _atom_site_fract_y
  _atom_site_fract_z
  _atom_site_occupancy
  In  In1       1.0  0.2500000114794722  0.2499999861777565  0.24999996695532173  1.0000
  In  In2       1.0  0.7499999466208375  0.7500000339841987  0.7500000610628476  1.0000
  Sb  Sb1       1.0  6.757211880399829e-09  3.053966060633207e-08  0.9999999725507891  1.0000
  S   S1        1.0  0.25389603018610557  0.25389611749261176  0.7461038000331469  1.0000
  S   S2        1.0  0.7461038986074285  0.7461039296161036  0.25389597100897127  1.0000
  S   S3        1.0  0.7461039591213628  0.25389608528661073  0.25389612085961133  1.0000
  S   S4        1.0  0.25389619374099376  0.7461037875663865  0.7461039890413109  1.0000
  S   S5        1.0  0.2538960271563686  0.7461040318168688  0.25389617475888043  1.0000
  S   S6        1.0  0.7461039358195901  0.25389599912378985  0.7461039305062686  1.0000
