data_image0
_chemical_formula_structural       In2SbS6
_chemical_formula_sum              "In2 Sb1 S6"
_cell_length_a       6.815159021324268
_cell_length_b       6.815159184738348
_cell_length_c       6.815159072940356
_cell_angle_alpha    60.00000029835164
_cell_angle_beta     60.000000078199285
_cell_angle_gamma    59.99999947607684

_space_group_name_H-M_alt    "P 1"
_space_group_IT_number       1

loop_
  _space_group_symop_operation_xyz
  'x, y, z'

loop_
  _atom_site_type_symbol
  _atom_site_label
  _atom_site_symmetry_multiplicity
  _atom_site_fract_x
  _atom_site_fract_y
  _atom_site_fract_z
  _atom_site_occupancy
  In  In1       1.0  0.24999997179325445  0.2500000207587743  0.25000000586877297  1.0000
  In  In2       1.0  0.7500000554615274  0.7499999724218636  0.7499999337999799  1.0000
  Sb  Sb1       1.0  1.2623354462185078e-07  7.368065412460375e-08  0.999999860425337  1.0000
  S   S1        1.0  0.2539638910428748  0.2539639067835026  0.7460360993501134  1.0000
  S   S2        1.0  0.7460360166704666  0.7460359875572327  0.25396398619224  1.0000
  S   S3        1.0  0.7460360517304666  0.25396391610751073  0.2539639638688338  1.0000
  S   S4        1.0  0.25396390651850986  0.7460361417683374  0.7460360703961983  1.0000
  S   S5        1.0  0.25396390796270807  0.7460360664675203  0.2539639467031519  1.0000
  S   S6        1.0  0.7460360802201218  0.2539639321043851  0.7460361169200971  1.0000
