data_image0
_chemical_formula_structural       In2SbO6
_chemical_formula_sum              "In2 Sb1 O6"
_cell_length_a       5.395307583206731
_cell_length_b       5.395307575321677
_cell_length_c       5.395307792950045
_cell_angle_alpha    60.00000085857684
_cell_angle_beta     60.000001123553695
_cell_angle_gamma    59.99999896472241

_space_group_name_H-M_alt    "P 1"
_space_group_IT_number       1

loop_
  _space_group_symop_operation_xyz
  'x, y, z'

loop_
  _atom_site_type_symbol
  _atom_site_label
  _atom_site_symmetry_multiplicity
  _atom_site_fract_x
  _atom_site_fract_y
  _atom_site_fract_z
  _atom_site_occupancy
  In  In1       1.0  0.2499995002971151  0.2500000783424946  0.25000034606468974  1.0000
  In  In2       1.0  0.7499997080498936  0.7500000806661861  0.7499999464894387  1.0000
  Sb  Sb1       1.0  0.9999999389284187  2.270018712522852e-08  2.504535005866192e-09  1.0000
  O   O1        1.0  0.25406635278861045  0.2540659800663358  0.7459337992332654  1.0000
  O   O2        1.0  0.7459339494871516  0.7459336772682117  0.2540664084882753  1.0000
  O   O3        1.0  0.7459340004450178  0.25406618049790425  0.2540660800111008  1.0000
  O   O4        1.0  0.2540661528291762  0.7459340329912073  0.7459337888311949  1.0000
  O   O5        1.0  0.2540662896780239  0.7459337278697559  0.25406597741060927  1.0000
  O   O6        1.0  0.7459340796743184  0.254066190516926  0.7459336566313947  1.0000
