data_image0
_chemical_formula_structural       In2SbSe6
_chemical_formula_sum              "In2 Sb1 Se6"
_cell_length_a       6.78564677220072
_cell_length_b       6.785647105816465
_cell_length_c       6.785647128348996
_cell_angle_alpha    59.999999474905046
_cell_angle_beta     60.00000005417209
_cell_angle_gamma    60.00000116238036

_space_group_name_H-M_alt    "P 1"
_space_group_IT_number       1

loop_
  _space_group_symop_operation_xyz
  'x, y, z'

loop_
  _atom_site_type_symbol
  _atom_site_label
  _atom_site_symmetry_multiplicity
  _atom_site_fract_x
  _atom_site_fract_y
  _atom_site_fract_z
  _atom_site_occupancy
  In  In1       1.0  0.2500000585235972  0.24999989875095036  0.249999993871689  1.0000
  In  In2       1.0  0.7499998578488118  0.7500000572338561  0.7500000734603561  1.0000
  Sb  Sb1       1.0  0.9999999293374843  0.9999999873656653  0.9999999458580026  1.0000
  Se  Se1       1.0  0.29436016066944853  0.29436012570913755  0.7056398217969938  1.0000
  Se  Se2       1.0  0.7056400000047272  0.7056398988620629  0.29436003309041986  1.0000
  Se  Se3       1.0  0.7056398161467229  0.29436017058639635  0.29436028746806714  1.0000
  Se  Se4       1.0  0.29436025298178015  0.7056397763738851  0.7056397802094367  1.0000
  Se  Se5       1.0  0.2943601972001376  0.7056398550935055  0.2943601918316156  1.0000
  Se  Se6       1.0  0.7056397478235605  0.29436023445427373  0.7056398621834432  1.0000
