data_image0
_chemical_formula_structural       In2SbO6
_chemical_formula_sum              "In2 Sb1 O6"
_cell_length_a       5.396244763630565
_cell_length_b       5.396244972176094
_cell_length_c       5.396245043231159
_cell_angle_alpha    60.00000049595414
_cell_angle_beta     60.00000124671635
_cell_angle_gamma    60.00000157284057

_space_group_name_H-M_alt    "P 1"
_space_group_IT_number       1

loop_
  _space_group_symop_operation_xyz
  'x, y, z'

loop_
  _atom_site_type_symbol
  _atom_site_label
  _atom_site_symmetry_multiplicity
  _atom_site_fract_x
  _atom_site_fract_y
  _atom_site_fract_z
  _atom_site_occupancy
  In  In1       1.0  0.2500001420206122  0.24999987072296714  0.24999993952908336  1.0000
  In  In2       1.0  0.7499998601695023  0.7500000002746492  0.7500002095424277  1.0000
  Sb  Sb1       1.0  3.1859999187385034e-08  0.9999999750341332  0.9999999187210352  1.0000
  O   O1        1.0  0.2540371234062098  0.2540371280231959  0.7459628014741284  1.0000
  O   O2        1.0  0.7459628065007936  0.7459630175989573  0.25403720751072045  1.0000
  O   O3        1.0  0.745962816146372  0.25403720574007643  0.2540370402142688  1.0000
  O   O4        1.0  0.25403707489895894  0.7459628831414699  0.745962875733044  1.0000
  O   O5        1.0  0.2540373498599885  0.7459629129553662  0.254036986331519  1.0000
  O   O6        1.0  0.7459628048397109  0.2540370397487249  0.7459629548280841  1.0000
