data_image0
_chemical_formula_structural       In2SbSe6
_chemical_formula_sum              "In2 Sb1 Se6"
_cell_length_a       6.788322182549732
_cell_length_b       6.788322205550549
_cell_length_c       6.788322156836531
_cell_angle_alpha    59.99999794664786
_cell_angle_beta     60.000001915010635
_cell_angle_gamma    60.00000006603466

_space_group_name_H-M_alt    "P 1"
_space_group_IT_number       1

loop_
  _space_group_symop_operation_xyz
  'x, y, z'

loop_
  _atom_site_type_symbol
  _atom_site_label
  _atom_site_symmetry_multiplicity
  _atom_site_fract_x
  _atom_site_fract_y
  _atom_site_fract_z
  _atom_site_occupancy
  In  In1       1.0  0.2500000169790507  0.25000004403099274  0.24999997467383112  1.0000
  In  In2       1.0  0.7500000390508221  0.7499999228064956  0.7500000080917777  1.0000
  Sb  Sb1       1.0  0.9999999349311739  5.232162168083386e-08  0.9999999651262946  1.0000
  Se  Se1       1.0  0.2945447680804938  0.2945446010511507  0.7054552676451228  1.0000
  Se  Se2       1.0  0.7054555580473324  0.705455474037973  0.2945444125156025  1.0000
  Se  Se3       1.0  0.7054552004263975  0.2945447283907977  0.294544702969284  1.0000
  Se  Se4       1.0  0.29454430579378993  0.7054555559847921  0.7054556036417512  1.0000
  Se  Se5       1.0  0.29454467683983104  0.7054552013788743  0.29454460658614656  1.0000
  Se  Se6       1.0  0.705455510672116  0.294544411836627  0.7054554563139473  1.0000
