data_image0
_chemical_formula_structural       In2TaTe6
_chemical_formula_sum              "In2 Ta1 Te6"
_cell_length_a       7.41018041697286
_cell_length_b       7.410180430481907
_cell_length_c       7.410180391150191
_cell_angle_alpha    60.00000007145168
_cell_angle_beta     60.00000033295537
_cell_angle_gamma    59.99999912142256

_space_group_name_H-M_alt    "P 1"
_space_group_IT_number       1

loop_
  _space_group_symop_operation_xyz
  'x, y, z'

loop_
  _atom_site_type_symbol
  _atom_site_label
  _atom_site_symmetry_multiplicity
  _atom_site_fract_x
  _atom_site_fract_y
  _atom_site_fract_z
  _atom_site_occupancy
  In  In1       1.0  0.24999998868214585  0.24999998928790634  0.2500000010306956  1.0000
  In  In2       1.0  0.7500000275424302  0.7499999843915868  0.749999991070053  1.0000
  Ta  Ta1       1.0  1.5944503800403666e-08  8.263934018589767e-09  6.788708489866136e-09  1.0000
  Te  Te1       1.0  0.262827915023676  0.262827873436713  0.7371721179855913  1.0000
  Te  Te2       1.0  0.7371720910168233  0.7371721167706485  0.2628279019816419  1.0000
  Te  Te3       1.0  0.737172152931585  0.26282786192361235  0.2628278711224035  1.0000
  Te  Te4       1.0  0.2628278520070563  0.737172131589323  0.7371721261510549  1.0000
  Te  Te5       1.0  0.2628278301088985  0.7371721474145108  0.2628278872851624  1.0000
  Te  Te6       1.0  0.7371721304421999  0.2628278857653094  0.7371720961546872  1.0000
