data_image0
_chemical_formula_structural       In2TaSe6
_chemical_formula_sum              "In2 Ta1 Se6"
_cell_length_a       6.803203065238051
_cell_length_b       6.803203069241279
_cell_length_c       6.803203142694396
_cell_angle_alpha    59.99999862967418
_cell_angle_beta     59.99999857223335
_cell_angle_gamma    60.000001058953664

_space_group_name_H-M_alt    "P 1"
_space_group_IT_number       1

loop_
  _space_group_symop_operation_xyz
  'x, y, z'

loop_
  _atom_site_type_symbol
  _atom_site_label
  _atom_site_symmetry_multiplicity
  _atom_site_fract_x
  _atom_site_fract_y
  _atom_site_fract_z
  _atom_site_occupancy
  In  In1       1.0  0.2500000505808332  0.24999995813645579  0.2499999944828615  1.0000
  In  In2       1.0  0.749999954598004  0.7499999770234661  0.7500000542321172  1.0000
  Ta  Ta1       1.0  0.999999878362933  0.999999881183667  1.7755263966459903e-07  1.0000
  Se  Se1       1.0  0.26185776419505424  0.26185778296147794  0.7381422116511598  1.0000
  Se  Se2       1.0  0.7381422301969369  0.7381423322231863  0.26185769805872355  1.0000
  Se  Se3       1.0  0.7381422698269418  0.26185778279827265  0.2618576777355666  1.0000
  Se  Se4       1.0  0.26185782444925154  0.738142256776002  0.7381422345363685  1.0000
  Se  Se5       1.0  0.26185776959912005  0.7381422531535865  0.26185770162789057  1.0000
  Se  Se6       1.0  0.7381422580886141  0.2618577774194494  0.7381422528485819  1.0000
