data_image0
_chemical_formula_structural       In2TaO6
_chemical_formula_sum              "In2 Ta1 O6"
_cell_length_a       5.397107588867438
_cell_length_b       5.39710749314607
_cell_length_c       5.397108389941245
_cell_angle_alpha    59.999997662461446
_cell_angle_beta     59.9999962504694
_cell_angle_gamma    60.00000119858368

_space_group_name_H-M_alt    "P 1"
_space_group_IT_number       1

loop_
  _space_group_symop_operation_xyz
  'x, y, z'

loop_
  _atom_site_type_symbol
  _atom_site_label
  _atom_site_symmetry_multiplicity
  _atom_site_fract_x
  _atom_site_fract_y
  _atom_site_fract_z
  _atom_site_occupancy
  In  In1       1.0  0.24999945607577861  0.2500004990719975  0.25000012230838264  1.0000
  In  In2       1.0  0.7499997126741074  0.7500008913231788  0.7499995826111059  1.0000
  Ta  Ta1       1.0  0.9999998851576845  1.1346307579280862e-07  0.9999999821611814  1.0000
  O   O1        1.0  0.2549775689141475  0.2549774731562937  0.745022518797542  1.0000
  O   O2        1.0  0.7450230381422398  0.7450218295182556  0.2549776182939254  1.0000
  O   O3        1.0  0.7450224834297229  0.25497701397129746  0.25497792151100823  1.0000
  O   O4        1.0  0.2549776577982425  0.7450225950535528  0.745022317553651  1.0000
  O   O5        1.0  0.2549777087052278  0.7450223096107133  0.2549773960876372  1.0000
  O   O6        1.0  0.7450224970112409  0.25497720864366474  0.7450225300174573  1.0000
