data_image0
_chemical_formula_structural       In2TaS6
_chemical_formula_sum              "In2 Ta1 S6"
_cell_length_a       6.435140188673675
_cell_length_b       6.435140813183665
_cell_length_c       6.435139655392909
_cell_angle_alpha    59.99999811628506
_cell_angle_beta     60.00000388116393
_cell_angle_gamma    59.99999990820799

_space_group_name_H-M_alt    "P 1"
_space_group_IT_number       1

loop_
  _space_group_symop_operation_xyz
  'x, y, z'

loop_
  _atom_site_type_symbol
  _atom_site_label
  _atom_site_symmetry_multiplicity
  _atom_site_fract_x
  _atom_site_fract_y
  _atom_site_fract_z
  _atom_site_occupancy
  In  In1       1.0  0.24999990907820338  0.25000008412501035  0.25000019933777967  1.0000
  In  In2       1.0  0.7500000129060791  0.7499999821187144  0.7500000433091056  1.0000
  Ta  Ta1       1.0  3.608636567121388e-08  2.0935347143028544e-08  1.8108177535896814e-08  1.0000
  S   S1        1.0  0.2621390337131674  0.26213899967978754  0.7378609676470094  1.0000
  S   S2        1.0  0.7378609962783556  0.7378610170804009  0.26213898000952907  1.0000
  S   S3        1.0  0.7378608231715477  0.26213914178667047  0.26213900962532916  1.0000
  S   S4        1.0  0.2621391364042619  0.7378608978120913  0.7378608934451928  1.0000
  S   S5        1.0  0.26213885540732823  0.7378610353736946  0.26213897248868934  1.0000
  S   S6        1.0  0.7378611954667202  0.2621388272261875  0.7378608941798048  1.0000
