data_image0
_chemical_formula_structural       In2YS6
_chemical_formula_sum              "In2 Y1 S6"
_cell_length_a       6.976221256533079
_cell_length_b       6.976221134405303
_cell_length_c       6.976220992897737
_cell_angle_alpha    60.00000128378394
_cell_angle_beta     59.99999911341736
_cell_angle_gamma    59.999997772765894

_space_group_name_H-M_alt    "P 1"
_space_group_IT_number       1

loop_
  _space_group_symop_operation_xyz
  'x, y, z'

loop_
  _atom_site_type_symbol
  _atom_site_label
  _atom_site_symmetry_multiplicity
  _atom_site_fract_x
  _atom_site_fract_y
  _atom_site_fract_z
  _atom_site_occupancy
  In  In1       1.0  0.24999997756470962  0.24999989139874043  0.25000006888185666  1.0000
  In  In2       1.0  0.7499999469308551  0.750000142941222  0.749999876281377  1.0000
  Y   Y1        1.0  0.9999999305477701  5.442357624098433e-08  0.9999998254673429  1.0000
  S   S1        1.0  0.27556853955410976  0.27556847391683204  0.724431531245255  1.0000
  S   S2        1.0  0.7244314588572476  0.7244315323335424  0.2755685458164846  1.0000
  S   S3        1.0  0.7244315336007442  0.27556842305965523  0.27556855408909714  1.0000
  S   S4        1.0  0.27556851878089317  0.7244315305227406  0.7244315552906296  1.0000
  S   S5        1.0  0.27556851960827466  0.7244314974465227  0.2755685117172622  1.0000
  S   S6        1.0  0.724431584184809  0.2755684508690732  0.7244315330203566  1.0000
