data_image0
_chemical_formula_structural       In2YTe6
_chemical_formula_sum              "In2 Y1 Te6"
_cell_length_a       7.726591376050049
_cell_length_b       7.726591246752441
_cell_length_c       7.726591248915354
_cell_angle_alpha    59.99999957954802
_cell_angle_beta     60.00000081861933
_cell_angle_gamma    59.999999597214234

_space_group_name_H-M_alt    "P 1"
_space_group_IT_number       1

loop_
  _space_group_symop_operation_xyz
  'x, y, z'

loop_
  _atom_site_type_symbol
  _atom_site_label
  _atom_site_symmetry_multiplicity
  _atom_site_fract_x
  _atom_site_fract_y
  _atom_site_fract_z
  _atom_site_occupancy
  In  In1       1.0  0.25000002134019317  0.24999998732662917  0.2500000621311114  1.0000
  In  In2       1.0  0.7499999406131249  0.750000085617982  0.749999953316292  1.0000
  Y   Y1        1.0  2.569316668226581e-08  0.9999999587873024  0.9999999922289842  1.0000
  Te  Te1       1.0  0.2788754232836736  0.278875331387336  0.721124568158666  1.0000
  Te  Te2       1.0  0.7211245959586784  0.7211246369404275  0.27887540494682367  1.0000
  Te  Te3       1.0  0.721124528265049  0.27887535933227603  0.278875416755718  1.0000
  Te  Te4       1.0  0.2788753573651057  0.7211247453144106  0.7211245562906399  1.0000
  Te  Te5       1.0  0.2788754456820079  0.7211245798133293  0.2788753714001647  1.0000
  Te  Te6       1.0  0.721124660194459  0.27887531242945335  0.7211246689077385  1.0000
