data_image0
_chemical_formula_structural       In2YO6
_chemical_formula_sum              "In2 Y1 O6"
_cell_length_a       5.541391203922406
_cell_length_b       5.541391333248892
_cell_length_c       5.541391436934767
_cell_angle_alpha    59.99999718783596
_cell_angle_beta     59.99999618447592
_cell_angle_gamma    59.99999609546793

_space_group_name_H-M_alt    "P 1"
_space_group_IT_number       1

loop_
  _space_group_symop_operation_xyz
  'x, y, z'

loop_
  _atom_site_type_symbol
  _atom_site_label
  _atom_site_symmetry_multiplicity
  _atom_site_fract_x
  _atom_site_fract_y
  _atom_site_fract_z
  _atom_site_occupancy
  In  In1       1.0  0.2500000532947433  0.24999960510507044  0.25000020746705054  1.0000
  In  In2       1.0  0.7500006197835336  0.7500003049736926  0.7500001077954568  1.0000
  Y   Y1        1.0  0.9999999917479306  6.851544975302399e-08  1.8592533247393333e-08  1.0000
  O   O1        1.0  0.27538923510742674  0.275389088545785  0.7246108615986699  1.0000
  O   O2        1.0  0.7246107056163764  0.7246109806656683  0.27538892098592915  1.0000
  O   O3        1.0  0.7246108849946822  0.27538915134735376  0.27538912732261184  1.0000
  O   O4        1.0  0.27538852343860926  0.7246110394237857  0.7246106909949227  1.0000
  O   O5        1.0  0.27538906767920623  0.724610896185024  0.27538936285300064  1.0000
  O   O6        1.0  0.7246108980969789  0.27538887907304277  0.7246107093777832  1.0000
