data_image0
_chemical_formula_structural       In2YSe6
_chemical_formula_sum              "In2 Y1 Se6"
_cell_length_a       7.279145096882279
_cell_length_b       7.279145270829238
_cell_length_c       7.279145004276164
_cell_angle_alpha    59.99999927290545
_cell_angle_beta     60.00000142235945
_cell_angle_gamma    60.000000092629094

_space_group_name_H-M_alt    "P 1"
_space_group_IT_number       1

loop_
  _space_group_symop_operation_xyz
  'x, y, z'

loop_
  _atom_site_type_symbol
  _atom_site_label
  _atom_site_symmetry_multiplicity
  _atom_site_fract_x
  _atom_site_fract_y
  _atom_site_fract_z
  _atom_site_occupancy
  In  In1       1.0  0.24999996407661326  0.2499999689601555  0.25000004790315233  1.0000
  In  In2       1.0  0.7500000052731792  0.7499999960550567  0.7499999835276197  1.0000
  Y   Y1        1.0  2.9562598788999152e-08  3.0285708058844885e-08  2.0905991899714273e-08  1.0000
  Se  Se1       1.0  0.27996005633919613  0.2799600368653513  0.7200399219784016  1.0000
  Se  Se2       1.0  0.7200399822310282  0.7200399584355706  0.27996004046627193  1.0000
  Se  Se3       1.0  0.7200398821233298  0.27996006016260694  0.279960062141367  1.0000
  Se  Se4       1.0  0.2799599491181403  0.7200400764716254  0.7200399594029914  1.0000
  Se  Se5       1.0  0.27996005352928754  0.7200399212362512  0.27996000452646874  1.0000
  Se  Se6       1.0  0.7200400761839107  0.2799599529218333  0.7200399564326863  1.0000
