data_image0
_chemical_formula_structural       Ir2AsN6
_chemical_formula_sum              "Ir2 As1 N6"
_cell_length_a       5.097838231015533
_cell_length_b       5.097838202753711
_cell_length_c       5.097838106225283
_cell_angle_alpha    59.9999989983967
_cell_angle_beta     59.99999930442126
_cell_angle_gamma    59.9999989774903

_space_group_name_H-M_alt    "P 1"
_space_group_IT_number       1

loop_
  _space_group_symop_operation_xyz
  'x, y, z'

loop_
  _atom_site_type_symbol
  _atom_site_label
  _atom_site_symmetry_multiplicity
  _atom_site_fract_x
  _atom_site_fract_y
  _atom_site_fract_z
  _atom_site_occupancy
  Ir  Ir1       1.0  0.2500000962238518  0.25000014340800975  0.24999995407973394  1.0000
  Ir  Ir2       1.0  0.7499998307134288  0.7500004518463395  0.7500002294899192  1.0000
  As  As1       1.0  0.9999999967731202  5.045205744414006e-08  0.9999999822722581  1.0000
  N   N1        1.0  0.2573374758902503  0.25733723317062435  0.7426625341890117  1.0000
  N   N2        1.0  0.7426626292231526  0.7426626101078283  0.25733723990691076  1.0000
  N   N3        1.0  0.742662716423278  0.2573372777852587  0.2573373859863124  1.0000
  N   N4        1.0  0.2573372896665058  0.7426626111402911  0.7426626286139988  1.0000
  N   N5        1.0  0.2573374502720654  0.7426624707851319  0.25733729068391736  1.0000
  N   N6        1.0  0.7426625017346742  0.2573371658801321  0.742662757429496  1.0000
