data_image0
_chemical_formula_structural       Ir2AsO6
_chemical_formula_sum              "Ir2 As1 O6"
_cell_length_a       5.074961871425186
_cell_length_b       5.074961896769915
_cell_length_c       5.074961778377704
_cell_angle_alpha    60.00000156164166
_cell_angle_beta     60.000000109813186
_cell_angle_gamma    60.00000072500361

_space_group_name_H-M_alt    "P 1"
_space_group_IT_number       1

loop_
  _space_group_symop_operation_xyz
  'x, y, z'

loop_
  _atom_site_type_symbol
  _atom_site_label
  _atom_site_symmetry_multiplicity
  _atom_site_fract_x
  _atom_site_fract_y
  _atom_site_fract_z
  _atom_site_occupancy
  Ir  Ir1       1.0  0.25000012037481534  0.2500007271562692  0.24999977202370294  1.0000
  Ir  Ir2       1.0  0.7500000391145626  0.7500007720966617  0.7499998329910166  1.0000
  As  As1       1.0  0.9999999885092159  0.9999999662136807  0.9999999497315984  1.0000
  O   O1        1.0  0.2464756657445255  0.24647559601233504  0.7535243699874727  1.0000
  O   O2        1.0  0.7535244083021184  0.7535241391121037  0.2464756514346369  1.0000
  O   O3        1.0  0.753524247795852  0.24647541136724965  0.24647585802920455  1.0000
  O   O4        1.0  0.24647559757442822  0.7535242248115432  0.753524409963154  1.0000
  O   O5        1.0  0.2464756748036196  0.7535238983492828  0.24647568133244382  1.0000
  O   O6        1.0  0.7535242523471742  0.24647526723435628  0.7535244677643794  1.0000
