data_image0
_chemical_formula_structural       Ir2BeO6
_chemical_formula_sum              "Ir2 Be1 O6"
_cell_length_a       4.887175635270165
_cell_length_b       4.887175839976782
_cell_length_c       4.887175677634853
_cell_angle_alpha    60.00000202999649
_cell_angle_beta     60.00000038299314
_cell_angle_gamma    59.99999984624759

_space_group_name_H-M_alt    "P 1"
_space_group_IT_number       1

loop_
  _space_group_symop_operation_xyz
  'x, y, z'

loop_
  _atom_site_type_symbol
  _atom_site_label
  _atom_site_symmetry_multiplicity
  _atom_site_fract_x
  _atom_site_fract_y
  _atom_site_fract_z
  _atom_site_occupancy
  Ir  Ir1       1.0  0.24999867417209398  0.25000013854957  0.24999987665344198  1.0000
  Ir  Ir2       1.0  0.7499989932934017  0.7499999169470873  0.7499994006390086  1.0000
  Be  Be1       1.0  2.2959721455753987e-08  0.999999952385277  0.9999999918657847  1.0000
  O   O1        1.0  0.239661689999356  0.2396607486691202  0.7603390500516322  1.0000
  O   O2        1.0  0.7603394776432902  0.7603383044122751  0.2396617386453521  1.0000
  O   O3        1.0  0.7603391939961842  0.23966124644704412  0.23966117226598463  1.0000
  O   O4        1.0  0.23966156645214096  0.7603389644239215  0.760338795067976  1.0000
  O   O5        1.0  0.23966133860350125  0.7603392334036271  0.2396611729901775  1.0000
  O   O6        1.0  0.7603390233974099  0.23966142855419137  0.7603388314553838  1.0000
