data_image0
_chemical_formula_structural       Ir2BO6
_chemical_formula_sum              "Ir2 B1 O6"
_cell_length_a       4.7692224256029485
_cell_length_b       4.769222596176125
_cell_length_c       4.769222598270853
_cell_angle_alpha    60.000003710352814
_cell_angle_beta     60.00000126365941
_cell_angle_gamma    60.00000587014183

_space_group_name_H-M_alt    "P 1"
_space_group_IT_number       1

loop_
  _space_group_symop_operation_xyz
  'x, y, z'

loop_
  _atom_site_type_symbol
  _atom_site_label
  _atom_site_symmetry_multiplicity
  _atom_site_fract_x
  _atom_site_fract_y
  _atom_site_fract_z
  _atom_site_occupancy
  Ir  Ir1       1.0  0.24999983113757832  0.250000079128119  0.2500005473824457  1.0000
  Ir  Ir2       1.0  0.7500001476942296  0.7499997417569187  0.7500001307210794  1.0000
  B   B1        1.0  7.704051980075227e-09  0.9999999768878404  0.9999999888330532  1.0000
  O   O1        1.0  0.23657499838047513  0.23657511748862858  0.7634249492948252  1.0000
  O   O2        1.0  0.763424956478854  0.7634250295346371  0.23657501998294286  1.0000
  O   O3        1.0  0.763424814487276  0.2365750278509683  0.23657497696243263  1.0000
  O   O4        1.0  0.23657509518011322  0.7634249496831191  0.763424835461888  1.0000
  O   O5        1.0  0.23657501895367125  0.7634249503124168  0.2365749227232366  1.0000
  O   O6        1.0  0.7634250486507684  0.23657504006176142  0.7634246973768497  1.0000
