data_image0
_chemical_formula_structural       Ir2BeS6
_chemical_formula_sum              "Ir2 Be1 S6"
_cell_length_a       5.603345267671858
_cell_length_b       5.603345515510143
_cell_length_c       5.603345646369697
_cell_angle_alpha    60.000000881430665
_cell_angle_beta     59.99999869702268
_cell_angle_gamma    60.0000009566333

_space_group_name_H-M_alt    "P 1"
_space_group_IT_number       1

loop_
  _space_group_symop_operation_xyz
  'x, y, z'

loop_
  _atom_site_type_symbol
  _atom_site_label
  _atom_site_symmetry_multiplicity
  _atom_site_fract_x
  _atom_site_fract_y
  _atom_site_fract_z
  _atom_site_occupancy
  Ir  Ir1       1.0  0.2500002182963213  0.24999839597818382  0.2500004830237465  1.0000
  Ir  Ir2       1.0  0.7499990030135085  0.7500000446457072  0.750001010243981  1.0000
  Be  Be1       1.0  0.9999999611175043  0.9999999497280126  5.3500480967624654e-08  1.0000
  S   S1        1.0  0.25564053538767834  0.255640124927842  0.7443597379502331  1.0000
  S   S2        1.0  0.7443595435509889  0.7443602063599173  0.2556398136530846  1.0000
  S   S3        1.0  0.7443599199756957  0.25564041191899656  0.2556400737456063  1.0000
  S   S4        1.0  0.25564047248013155  0.7443602647154618  0.7443593179673549  1.0000
  S   S5        1.0  0.25564063661881736  0.7443603643757069  0.25563975435227027  1.0000
  S   S6        1.0  0.7443597050901263  0.2556402357579023  0.7443597848630154  1.0000
