data_image0
_chemical_formula_structural       Ir2BeSe6
_chemical_formula_sum              "Ir2 Be1 Se6"
_cell_length_a       6.11909484181433
_cell_length_b       6.119094685145857
_cell_length_c       6.119094891330311
_cell_angle_alpha    59.99999935977323
_cell_angle_beta     59.999999352161694
_cell_angle_gamma    59.99999861155017

_space_group_name_H-M_alt    "P 1"
_space_group_IT_number       1

loop_
  _space_group_symop_operation_xyz
  'x, y, z'

loop_
  _atom_site_type_symbol
  _atom_site_label
  _atom_site_symmetry_multiplicity
  _atom_site_fract_x
  _atom_site_fract_y
  _atom_site_fract_z
  _atom_site_occupancy
  Ir  Ir1       1.0  0.24999738867914267  0.250002488241242  0.2500008043660991  1.0000
  Ir  Ir2       1.0  0.7500002251169294  0.7499969647853577  0.7500021937722556  1.0000
  Be  Be1       1.0  0.99999996193534  0.9999999839878951  1.2182364241543638e-07  1.0000
  Se  Se1       1.0  0.22993000899346916  0.22993212389203768  0.7700685233122406  1.0000
  Se  Se2       1.0  0.7700704287568757  0.7700672470724867  0.22993069502702088  1.0000
  Se  Se3       1.0  0.7700694215186016  0.22993269720152304  0.22992961679837626  1.0000
  Se  Se4       1.0  0.229931176734292  0.7700684170810131  0.7700694340603486  1.0000
  Se  Se5       1.0  0.2299316622277741  0.7700678329614211  0.22993061664609438  1.0000
  Se  Se6       1.0  0.7700697291731027  0.22993226054936852  0.7700679858498609  1.0000
