data_image0
_chemical_formula_structural       Ir2BSe6
_chemical_formula_sum              "Ir2 B1 Se6"
_cell_length_a       6.060290747676243
_cell_length_b       6.060290753430067
_cell_length_c       6.0602906775591485
_cell_angle_alpha    59.999999328525845
_cell_angle_beta     59.99999903861714
_cell_angle_gamma    59.99999883920966

_space_group_name_H-M_alt    "P 1"
_space_group_IT_number       1

loop_
  _space_group_symop_operation_xyz
  'x, y, z'

loop_
  _atom_site_type_symbol
  _atom_site_label
  _atom_site_symmetry_multiplicity
  _atom_site_fract_x
  _atom_site_fract_y
  _atom_site_fract_z
  _atom_site_occupancy
  Ir  Ir1       1.0  0.24999900764542796  0.24999972184396543  0.25000098398441417  1.0000
  Ir  Ir2       1.0  0.7499977926560691  0.7500006003951724  0.7500014750922006  1.0000
  B   B1        1.0  0.9999998742267362  3.4355881899726905e-08  1.0181161143506477e-07  1.0000
  Se  Se1       1.0  0.2395515068495675  0.2395497828480512  0.7604491564450377  1.0000
  Se  Se2       1.0  0.7604494840648128  0.7604490681509709  0.23955035226238602  1.0000
  Se  Se3       1.0  0.7604495772225258  0.2395509589166058  0.23955050758399762  1.0000
  Se  Se4       1.0  0.2395512957405289  0.7604497149650564  0.7604489472993151  1.0000
  Se  Se5       1.0  0.23955169604835733  0.7604495469505435  0.23954967004650182  1.0000
  Se  Se6       1.0  0.7604497736081233  0.23955057723701978  0.7604488026372572  1.0000
