data_image0
_chemical_formula_structural       Ir2CS6
_chemical_formula_sum              "Ir2 C1 S6"
_cell_length_a       5.327385245896735
_cell_length_b       5.327385712602044
_cell_length_c       5.327385324253102
_cell_angle_alpha    60.000001161703175
_cell_angle_beta     59.99999921326258
_cell_angle_gamma    59.999998390926045

_space_group_name_H-M_alt    "P 1"
_space_group_IT_number       1

loop_
  _space_group_symop_operation_xyz
  'x, y, z'

loop_
  _atom_site_type_symbol
  _atom_site_label
  _atom_site_symmetry_multiplicity
  _atom_site_fract_x
  _atom_site_fract_y
  _atom_site_fract_z
  _atom_site_occupancy
  Ir  Ir1       1.0  0.25000041162232267  0.24999775175806388  0.25000207127187696  1.0000
  Ir  Ir2       1.0  0.7499971546417772  0.7500021016738414  0.750001730260777  1.0000
  C   C1        1.0  0.9999993169921777  0.9999993310025475  1.8510631335169405e-06  1.0000
  S   S1        1.0  0.2576851271988881  0.2576817509567688  0.7423162961895206  1.0000
  S   S2        1.0  0.7423157333731759  0.7423181162688113  0.2576825044347175  1.0000
  S   S3        1.0  0.7423164650955576  0.25768297628200076  0.25768312790988324  1.0000
  S   S4        1.0  0.25768396788851644  0.7423183622782306  0.7423148035787266  1.0000
  S   S5        1.0  0.2576845970586653  0.7423175455664124  0.25768154292593726  1.0000
  S   S6        1.0  0.7423172340453388  0.25768208256726294  0.7423160341465851  1.0000
