data_image0
_chemical_formula_structural       Ir2CO6
_chemical_formula_sum              "Ir2 C1 O6"
_cell_length_a       4.900633018818764
_cell_length_b       4.900632269642859
_cell_length_c       4.9006323392530735
_cell_angle_alpha    59.999992017347296
_cell_angle_beta     59.99999857660744
_cell_angle_gamma    59.999998453250974

_space_group_name_H-M_alt    "P 1"
_space_group_IT_number       1

loop_
  _space_group_symop_operation_xyz
  'x, y, z'

loop_
  _atom_site_type_symbol
  _atom_site_label
  _atom_site_symmetry_multiplicity
  _atom_site_fract_x
  _atom_site_fract_y
  _atom_site_fract_z
  _atom_site_occupancy
  Ir  Ir1       1.0  0.2499783844779767  0.2500114859118272  0.2500042782047891  1.0000
  Ir  Ir2       1.0  0.7499861444331152  0.750006324727428  0.7499999302982668  1.0000
  C   C1        1.0  0.9999926323244209  3.6537672241214664e-06  1.5325063784040027e-06  1.0000
  O   O1        1.0  0.22206937874880867  0.222058398681621  0.7779365825556448  1.0000
  O   O2        1.0  0.7779452073026913  0.7779316913099179  0.222063377215573  1.0000
  O   O3        1.0  0.7779449398897025  0.22206026326098063  0.2220622851723626  1.0000
  O   O4        1.0  0.2220696058997237  0.7779335454761478  0.7779379330453677  1.0000
  O   O5        1.0  0.22206857612867503  0.7779343324393675  0.22206076935280492  1.0000
  O   O6        1.0  0.7779451739539607  0.22206042847694146  0.7779332346858547  1.0000
