data_image0
_chemical_formula_structural       Ir2GaS6
_chemical_formula_sum              "Ir2 Ga1 S6"
_cell_length_a       5.745063331411203
_cell_length_b       5.745063534827832
_cell_length_c       5.745063355395656
_cell_angle_alpha    59.99999867772166
_cell_angle_beta     59.999998603539744
_cell_angle_gamma    59.99999747854764

_space_group_name_H-M_alt    "P 1"
_space_group_IT_number       1

loop_
  _space_group_symop_operation_xyz
  'x, y, z'

loop_
  _atom_site_type_symbol
  _atom_site_label
  _atom_site_symmetry_multiplicity
  _atom_site_fract_x
  _atom_site_fract_y
  _atom_site_fract_z
  _atom_site_occupancy
  Ir  Ir1       1.0  0.24999824615331923  0.2500009946836507  0.2499996299076121  1.0000
  Ir  Ir2       1.0  0.7499997024528732  0.749999072158596  0.7500034167064978  1.0000
  Ga  Ga1       1.0  1.3645031104618074e-07  0.9999999765499641  0.99999984950612  1.0000
  S   S1        1.0  0.2713620827534817  0.2713626705992049  0.7286382677075398  1.0000
  S   S2        1.0  0.7286385395780111  0.7286368398376795  0.2713605749374946  1.0000
  S   S3        1.0  0.7286385516805888  0.27136350834554457  0.2713611688521781  1.0000
  S   S4        1.0  0.2713616821125415  0.7286370893202034  0.7286381843162625  1.0000
  S   S5        1.0  0.27136319676975085  0.7286378327024372  0.27136139313472046  1.0000
  S   S6        1.0  0.7286378926039166  0.27136202522130054  0.7286374913269988  1.0000
