data_image0
_chemical_formula_structural       Ir2NO6
_chemical_formula_sum              "Ir2 N1 O6"
_cell_length_a       4.70203391621863
_cell_length_b       4.702033817669274
_cell_length_c       4.7020338475558034
_cell_angle_alpha    59.99999983377877
_cell_angle_beta     60.00000139092592
_cell_angle_gamma    60.00000045937737

_space_group_name_H-M_alt    "P 1"
_space_group_IT_number       1

loop_
  _space_group_symop_operation_xyz
  'x, y, z'

loop_
  _atom_site_type_symbol
  _atom_site_label
  _atom_site_symmetry_multiplicity
  _atom_site_fract_x
  _atom_site_fract_y
  _atom_site_fract_z
  _atom_site_occupancy
  Ir  Ir1       1.0  0.24999957693645128  0.25000238364118915  0.24999802539224728  1.0000
  Ir  Ir2       1.0  0.7499986397322111  0.7500022670866106  0.75000403699556  1.0000
  N   N1        1.0  0.9999996206524254  1.2632858197715097e-06  0.9999987902780012  1.0000
  O   O1        1.0  0.24235886016404265  0.24235711438359805  0.7576416576973352  1.0000
  O   O2        1.0  0.7576418628467089  0.7576407172055192  0.24235722297323323  1.0000
  O   O3        1.0  0.7576419849084272  0.24235855938483242  0.24235777290158597  1.0000
  O   O4        1.0  0.24235772757670085  0.7576406240503369  0.7576422365464515  1.0000
  O   O5        1.0  0.24235994664450033  0.7576407010975333  0.2423577199399621  1.0000
  O   O6        1.0  0.7576417794647705  0.24235638293894696  0.7576424791403705  1.0000
