data_image0
_chemical_formula_structural       Ir2PO6
_chemical_formula_sum              "Ir2 P1 O6"
_cell_length_a       4.973663302424801
_cell_length_b       4.973663164475488
_cell_length_c       4.973663148436921
_cell_angle_alpha    59.99999942970369
_cell_angle_beta     60.000000396345285
_cell_angle_gamma    60.00000165239291

_space_group_name_H-M_alt    "P 1"
_space_group_IT_number       1

loop_
  _space_group_symop_operation_xyz
  'x, y, z'

loop_
  _atom_site_type_symbol
  _atom_site_label
  _atom_site_symmetry_multiplicity
  _atom_site_fract_x
  _atom_site_fract_y
  _atom_site_fract_z
  _atom_site_occupancy
  Ir  Ir1       1.0  0.2500000445981443  0.25000014666018944  0.2499996215853459  1.0000
  Ir  Ir2       1.0  0.7499999163903266  0.7499999499509313  0.7500002981600246  1.0000
  P   P1        1.0  1.4083015479005865e-10  0.9999999926126184  5.187744832673049e-08  1.0000
  O   O1        1.0  0.23755307915538815  0.23755320158236634  0.7624470204607208  1.0000
  O   O2        1.0  0.7624468888704585  0.7624467694432726  0.23755298871756106  1.0000
  O   O3        1.0  0.7624467961518498  0.23755313804073663  0.23755320578295  1.0000
  O   O4        1.0  0.23755322229402595  0.7624467861981552  0.7624468578752257  1.0000
  O   O5        1.0  0.23755316446551447  0.7624467815936996  0.23755319965468955  1.0000
  O   O6        1.0  0.7624468796107962  0.23755321898146625  0.7624467687871396  1.0000
