data_image0
_chemical_formula_structural       Ir2PSe6
_chemical_formula_sum              "Ir2 P1 Se6"
_cell_length_a       6.841685305981042
_cell_length_b       6.847634163700744
_cell_length_c       6.8517023434770525
_cell_angle_alpha    54.77300450459945
_cell_angle_beta     54.779522817109594
_cell_angle_gamma    54.884972420139285

_space_group_name_H-M_alt    "P 1"
_space_group_IT_number       1

loop_
  _space_group_symop_operation_xyz
  'x, y, z'

loop_
  _atom_site_type_symbol
  _atom_site_label
  _atom_site_symmetry_multiplicity
  _atom_site_fract_x
  _atom_site_fract_y
  _atom_site_fract_z
  _atom_site_occupancy
  Ir  Ir1       1.0  0.3325173599446242  0.33224549274132087  0.3325922332554528  1.0000
  Ir  Ir2       1.0  0.667611474182891  0.6676971321454003  0.6675769814769629  1.0000
  P   P1        1.0  8.374334812032712e-05  0.9997696525518303  0.9998935506194336  1.0000
  Se  Se1       1.0  0.08052052398369228  0.40331750543843187  0.749715484453188  1.0000
  Se  Se2       1.0  0.9196203063519577  0.5968944544682858  0.25004890398790913  1.0000
  Se  Se3       1.0  0.7504740770508403  0.08057068337061471  0.40246239128038974  1.0000
  Se  Se4       1.0  0.2496349956547609  0.9191523544889333  0.5976141623290627  1.0000
  Se  Se5       1.0  0.40310382378979015  0.7503481747411578  0.08014819479968015  1.0000
  Se  Se6       1.0  0.5964312602482975  0.25000525843853216  0.9199479911312493  1.0000
