data_image0
_chemical_formula_structural       Ir2RhO6
_chemical_formula_sum              "Ir2 Rh1 O6"
_cell_length_a       5.26671471504782
_cell_length_b       5.26671455571577
_cell_length_c       5.266714693630271
_cell_angle_alpha    59.999999925576965
_cell_angle_beta     60.00000159472275
_cell_angle_gamma    60.0000021625086

_space_group_name_H-M_alt    "P 1"
_space_group_IT_number       1

loop_
  _space_group_symop_operation_xyz
  'x, y, z'

loop_
  _atom_site_type_symbol
  _atom_site_label
  _atom_site_symmetry_multiplicity
  _atom_site_fract_x
  _atom_site_fract_y
  _atom_site_fract_z
  _atom_site_occupancy
  Ir  Ir1       1.0  0.24999956254257488  0.24999996918321216  0.2500003984889152  1.0000
  Ir  Ir2       1.0  0.7499977218176094  0.7500000819578926  0.7500010918051304  1.0000
  Rh  Rh1       1.0  1.0563264236923003e-08  2.092899456935081e-08  2.032949123060295e-08  1.0000
  O   O1        1.0  0.2565852205753484  0.2565854674653469  0.7434147242137005  1.0000
  O   O2        1.0  0.7434149534558556  0.7434145441432928  0.25658526506242496  1.0000
  O   O3        1.0  0.7434146345816067  0.25658530564974596  0.2565852776315796  1.0000
  O   O4        1.0  0.25658653610590093  0.7434147152606977  0.7434146073960441  1.0000
  O   O5        1.0  0.25658631490986733  0.7434146996243919  0.25658431080967153  1.0000
  O   O6        1.0  0.7434150552716066  0.2565851305996619  0.7434143413443551  1.0000
