data_image0
_chemical_formula_structural       Ir2RhSe6
_chemical_formula_sum              "Ir2 Rh1 Se6"
_cell_length_a       6.171428786366906
_cell_length_b       6.1714288405003055
_cell_length_c       6.17142906801358
_cell_angle_alpha    60.000005492483396
_cell_angle_beta     60.00000527834566
_cell_angle_gamma    60.00000296846299

_space_group_name_H-M_alt    "P 1"
_space_group_IT_number       1

loop_
  _space_group_symop_operation_xyz
  'x, y, z'

loop_
  _atom_site_type_symbol
  _atom_site_label
  _atom_site_symmetry_multiplicity
  _atom_site_fract_x
  _atom_site_fract_y
  _atom_site_fract_z
  _atom_site_occupancy
  Ir  Ir1       1.0  0.24999965302724694  0.2499997620673124  0.25000162980988777  1.0000
  Ir  Ir2       1.0  0.7499989855257179  0.7499990440876262  0.7499967171728931  1.0000
  Rh  Rh1       1.0  0.9999999952559062  1.984539891459827e-08  0.9999999486993517  1.0000
  Se  Se1       1.0  0.27867601651457186  0.27867600856721403  0.7213231914447856  1.0000
  Se  Se2       1.0  0.7213240124300538  0.7213239644975196  0.2786783215629662  1.0000
  Se  Se3       1.0  0.7213236535411842  0.2786753900764721  0.2786766426010138  1.0000
  Se  Se4       1.0  0.27867762648871425  0.7213245512355695  0.7213234926850164  1.0000
  Se  Se5       1.0  0.2786754266069872  0.7213236338814593  0.27867661770759017  1.0000
  Se  Se6       1.0  0.7213246362589089  0.2786776350879245  0.7213234428873323  1.0000
