data_image0
_chemical_formula_structural       Ir2RhS6
_chemical_formula_sum              "Ir2 Rh1 S6"
_cell_length_a       5.91238800675974
_cell_length_b       5.912388043523382
_cell_length_c       5.912388105661376
_cell_angle_alpha    60.00000003231226
_cell_angle_beta     60.00000006225074
_cell_angle_gamma    59.9999983842695

_space_group_name_H-M_alt    "P 1"
_space_group_IT_number       1

loop_
  _space_group_symop_operation_xyz
  'x, y, z'

loop_
  _atom_site_type_symbol
  _atom_site_label
  _atom_site_symmetry_multiplicity
  _atom_site_fract_x
  _atom_site_fract_y
  _atom_site_fract_z
  _atom_site_occupancy
  Ir  Ir1       1.0  0.2499989906027515  0.24999798276633586  0.25000126101310227  1.0000
  Ir  Ir2       1.0  0.749999816409395  0.7499997691839817  0.749997696351881  1.0000
  Rh  Rh1       1.0  4.111154097477307e-08  2.9000850133378865e-08  8.841337183177114e-08  1.0000
  S   S1        1.0  0.2710347862612978  0.2710347426409478  0.7289651994206119  1.0000
  S   S2        1.0  0.728965077309032  0.728965640100813  0.2710357908757049  1.0000
  S   S3        1.0  0.7289658766901704  0.2710341841833984  0.2710353571569706  1.0000
  S   S4        1.0  0.2710353412700111  0.7289661488425907  0.7289645444304175  1.0000
  S   S5        1.0  0.27103413843414087  0.7289661396493795  0.2710353373788099  1.0000
  S   S6        1.0  0.7289659373647844  0.27103536998257527  0.7289647228880708  1.0000
