data_image0
_chemical_formula_structural       Ir2RuSe6
_chemical_formula_sum              "Ir2 Ru1 Se6"
_cell_length_a       6.160931430721989
_cell_length_b       6.160931571743068
_cell_length_c       6.1609314936470385
_cell_angle_alpha    60.000000158072
_cell_angle_beta     59.99999907662034
_cell_angle_gamma    59.9999999223529

_space_group_name_H-M_alt    "P 1"
_space_group_IT_number       1

loop_
  _space_group_symop_operation_xyz
  'x, y, z'

loop_
  _atom_site_type_symbol
  _atom_site_label
  _atom_site_symmetry_multiplicity
  _atom_site_fract_x
  _atom_site_fract_y
  _atom_site_fract_z
  _atom_site_occupancy
  Ir  Ir1       1.0  0.24999770149266937  0.25000157965464154  0.25000234180838055  1.0000
  Ir  Ir2       1.0  0.750000984347154  0.7499981529797867  0.7500030218473371  1.0000
  Ru  Ru1       1.0  1.654650780406956e-08  0.9999999840966276  0.999999879566725  1.0000
  Se  Se1       1.0  0.2764568354513078  0.2764585547743401  0.723541473106013  1.0000
  Se  Se2       1.0  0.7235433822584886  0.7235412434614976  0.2764564467149594  1.0000
  Se  Se3       1.0  0.7235425094614005  0.2764589227622669  0.27645650011341283  1.0000
  Se  Se4       1.0  0.2764567180594769  0.723542479726268  0.7235421904347746  1.0000
  Se  Se5       1.0  0.27645828982709786  0.7235414045955819  0.27645711040857873  1.0000
  Se  Se6       1.0  0.7235435621860464  0.27645767401264604  0.7235410419052698  1.0000
