data_image0
_chemical_formula_structural       Ir2SO6
_chemical_formula_sum              "Ir2 S1 O6"
_cell_length_a       4.930963442562836
_cell_length_b       4.930963372571774
_cell_length_c       4.9309637009136775
_cell_angle_alpha    60.00000330497691
_cell_angle_beta     60.00000267157331
_cell_angle_gamma    60.000003764610426

_space_group_name_H-M_alt    "P 1"
_space_group_IT_number       1

loop_
  _space_group_symop_operation_xyz
  'x, y, z'

loop_
  _atom_site_type_symbol
  _atom_site_label
  _atom_site_symmetry_multiplicity
  _atom_site_fract_x
  _atom_site_fract_y
  _atom_site_fract_z
  _atom_site_occupancy
  Ir  Ir1       1.0  0.24999722203648125  0.2500009514167697  0.2500007716968607  1.0000
  Ir  Ir2       1.0  0.7499974487852626  0.7500007579366763  0.7500002528854711  1.0000
  S   S1        1.0  1.1531316741248283e-07  0.9999999701945931  0.9999999430501144  1.0000
  O   O1        1.0  0.23396087922836245  0.23395968560128708  0.7660397937386011  1.0000
  O   O2        1.0  0.7660407760174872  0.7660391674006908  0.23396028829215534  1.0000
  O   O3        1.0  0.7660407914774738  0.23395988607552784  0.2339601754920628  1.0000
  O   O4        1.0  0.23396116053913837  0.7660398188644063  0.7660397033085881  1.0000
  O   O5        1.0  0.23396100721493338  0.7660396951479975  0.2339596159059369  1.0000
  O   O6        1.0  0.7660405854043121  0.23396002717837097  0.7660394219276007  1.0000
