data_image0
_chemical_formula_structural       K2AsSe6
_chemical_formula_sum              "K2 As1 Se6"
_cell_length_a       6.729206704703288
_cell_length_b       6.729206407048969
_cell_length_c       6.729206942407613
_cell_angle_alpha    59.99999420788685
_cell_angle_beta     59.99999600547501
_cell_angle_gamma    59.99999429246835

_space_group_name_H-M_alt    "P 1"
_space_group_IT_number       1

loop_
  _space_group_symop_operation_xyz
  'x, y, z'

loop_
  _atom_site_type_symbol
  _atom_site_label
  _atom_site_symmetry_multiplicity
  _atom_site_fract_x
  _atom_site_fract_y
  _atom_site_fract_z
  _atom_site_occupancy
  K   K1        1.0  0.24999996940984176  0.24999998019444208  0.2499999810151465  1.0000
  K   K2        1.0  0.7499999547148681  0.750000022485289  0.7499999695013962  1.0000
  As  As1       1.0  0.9999996502934848  0.9999999217381412  0.999999664142286  1.0000
  Se  Se1       1.0  0.2898158054659457  0.2898161179573468  0.7101837603001538  1.0000
  Se  Se2       1.0  0.7101846209004161  0.710184632760338  0.2898151846453978  1.0000
  Se  Se3       1.0  0.7101838978196015  0.28981600184149964  0.2898157947051514  1.0000
  Se  Se4       1.0  0.28981535400796055  0.7101844321885854  0.7101846299668858  1.0000
  Se  Se5       1.0  0.2898160932551761  0.7101837329429554  0.2898160993510947  1.0000
  Se  Se6       1.0  0.7101846789674805  0.28981519773101133  0.710184894878493  1.0000
