data_image0
_chemical_formula_structural       K2AsO6
_chemical_formula_sum              "K2 As1 O6"
_cell_length_a       6.208554837579043
_cell_length_b       6.208555537606052
_cell_length_c       6.20855534498928
_cell_angle_alpha    60.00000013534916
_cell_angle_beta     60.000000526641735
_cell_angle_gamma    59.999999586135736

_space_group_name_H-M_alt    "P 1"
_space_group_IT_number       1

loop_
  _space_group_symop_operation_xyz
  'x, y, z'

loop_
  _atom_site_type_symbol
  _atom_site_label
  _atom_site_symmetry_multiplicity
  _atom_site_fract_x
  _atom_site_fract_y
  _atom_site_fract_z
  _atom_site_occupancy
  K   K1        1.0  0.2499999686256857  0.25000003924524666  0.2500000016931045  1.0000
  K   K2        1.0  0.750000028817661  0.7499999776759692  0.7499999492116746  1.0000
  As  As1       1.0  6.569769461200677e-08  0.9999999033390321  0.9999999623291772  1.0000
  O   O1        1.0  0.20357887514405618  0.20357942442636398  0.7964209351549147  1.0000
  O   O2        1.0  0.796420895693539  0.796420837106281  0.20357920808210037  1.0000
  O   O3        1.0  0.7964209824903811  0.20357913455934237  0.20357894809915603  1.0000
  O   O4        1.0  0.20357901891765312  0.7964208369904071  0.7964206562738229  1.0000
  O   O5        1.0  0.2035790447909934  0.7964208186514408  0.20357943816994534  1.0000
  O   O6        1.0  0.7964210536131848  0.20357904045593953  0.7964209293353777  1.0000
