data_image0
_chemical_formula_structural       K2AsS6
_chemical_formula_sum              "K2 As1 S6"
_cell_length_a       6.853600198614163
_cell_length_b       6.853598303194721
_cell_length_c       6.853599527811285
_cell_angle_alpha    60.00000026972165
_cell_angle_beta     59.999999834581295
_cell_angle_gamma    59.999999075043654

_space_group_name_H-M_alt    "P 1"
_space_group_IT_number       1

loop_
  _space_group_symop_operation_xyz
  'x, y, z'

loop_
  _atom_site_type_symbol
  _atom_site_label
  _atom_site_symmetry_multiplicity
  _atom_site_fract_x
  _atom_site_fract_y
  _atom_site_fract_z
  _atom_site_occupancy
  K   K1        1.0  0.25000004196746733  0.2499999674506866  0.24999998829581427  1.0000
  K   K2        1.0  0.7499999854149993  0.7499999952765762  0.7499999915870686  1.0000
  As  As1       1.0  1.460528319412332e-07  0.9999998802703365  2.1856501512528686e-08  1.0000
  S   S1        1.0  0.2477529212660433  0.24775287051002545  0.7522471023361745  1.0000
  S   S2        1.0  0.7522472202395338  0.7522471744197079  0.2477528319110614  1.0000
  S   S3        1.0  0.7522470853342815  0.24775289665495606  0.24775289213171675  1.0000
  S   S4        1.0  0.24775278006706644  0.7522471375527121  0.7522472584830379  1.0000
  S   S5        1.0  0.24775279592681312  0.7522471368197102  0.2477528278111406  1.0000
  S   S6        1.0  0.7522470745289767  0.24775289738793707  0.7522470663952139  1.0000
