data_image0
_chemical_formula_structural       K2BiO6
_chemical_formula_sum              "K2 Bi1 O6"
_cell_length_a       6.05488098881842
_cell_length_b       6.054881475576165
_cell_length_c       6.054880238729414
_cell_angle_alpha    59.999998876664314
_cell_angle_beta     59.999997310549766
_cell_angle_gamma    60.000001426600356

_space_group_name_H-M_alt    "P 1"
_space_group_IT_number       1

loop_
  _space_group_symop_operation_xyz
  'x, y, z'

loop_
  _atom_site_type_symbol
  _atom_site_label
  _atom_site_symmetry_multiplicity
  _atom_site_fract_x
  _atom_site_fract_y
  _atom_site_fract_z
  _atom_site_occupancy
  K   K1        1.0  0.2499999501004753  0.2500000113994712  0.25000007917422234  1.0000
  K   K2        1.0  0.750000067015283  0.7499998703565205  0.7500000029900822  1.0000
  Bi  Bi1       1.0  6.906964708814918e-10  1.6384190826915796e-07  0.9999999325977308  1.0000
  O   O1        1.0  0.24511302007575847  0.2451128605484406  0.7548869914370618  1.0000
  O   O2        1.0  0.7548871742012756  0.7548871648220715  0.2451128477613105  1.0000
  O   O3        1.0  0.7548869286336845  0.24511279822322005  0.24511317419859827  1.0000
  O   O4        1.0  0.24511293828726738  0.7548870592598946  0.7548869902448763  1.0000
  O   O5        1.0  0.24511289026916258  0.7548869703623624  0.2451131245699077  1.0000
  O   O6        1.0  0.7548870412802172  0.24511286487060902  0.7548871458545678  1.0000
