data_image0
_chemical_formula_structural       K2BiSe6
_chemical_formula_sum              "K2 Bi1 Se6"
_cell_length_a       7.079562883894293
_cell_length_b       7.079562309463642
_cell_length_c       7.079562216850974
_cell_angle_alpha    59.99999990229615
_cell_angle_beta     60.00000555288047
_cell_angle_gamma    60.00000014166098

_space_group_name_H-M_alt    "P 1"
_space_group_IT_number       1

loop_
  _space_group_symop_operation_xyz
  'x, y, z'

loop_
  _atom_site_type_symbol
  _atom_site_label
  _atom_site_symmetry_multiplicity
  _atom_site_fract_x
  _atom_site_fract_y
  _atom_site_fract_z
  _atom_site_occupancy
  K   K1        1.0  0.24999998174245547  0.2500000214472777  0.24999997821520412  1.0000
  K   K2        1.0  0.7500000161703008  0.7499999934129553  0.7500000151520386  1.0000
  Bi  Bi1       1.0  2.0438793189455208e-07  1.1590817447042802e-07  0.9999993158082471  1.0000
  Se  Se1       1.0  0.2966185377843436  0.29661874179015757  0.7033811615269905  1.0000
  Se  Se2       1.0  0.7033814447424702  0.7033811675417515  0.2966185222180053  1.0000
  Se  Se3       1.0  0.7033810922687878  0.29661898469084597  0.296618759478635  1.0000
  Se  Se4       1.0  0.2966180117919552  0.7033817740575963  0.7033818413892938  1.0000
  Se  Se5       1.0  0.29661893565756353  0.7033809688907874  0.2966187984269378  1.0000
  Se  Se6       1.0  0.7033817622460689  0.29661823288231665  0.7033816116802113  1.0000
