data_image0
_chemical_formula_structural       K2BiS6
_chemical_formula_sum              "K2 Bi1 S6"
_cell_length_a       6.979787301360929
_cell_length_b       6.979786617645865
_cell_length_c       6.979787506006707
_cell_angle_alpha    59.99999718968222
_cell_angle_beta     59.99999008968875
_cell_angle_gamma    59.999999578872824

_space_group_name_H-M_alt    "P 1"
_space_group_IT_number       1

loop_
  _space_group_symop_operation_xyz
  'x, y, z'

loop_
  _atom_site_type_symbol
  _atom_site_label
  _atom_site_symmetry_multiplicity
  _atom_site_fract_x
  _atom_site_fract_y
  _atom_site_fract_z
  _atom_site_occupancy
  K   K1        1.0  0.25000000471673417  0.25000001318408555  0.24999998210335034  1.0000
  K   K2        1.0  0.7500000291741273  0.7499999746282681  0.7500000214048743  1.0000
  Bi  Bi1       1.0  6.164382036901369e-08  9.299923546315181e-08  0.9999999413036778  1.0000
  S   S1        1.0  0.24693455767426936  0.2469346463238987  0.7530652827786576  1.0000
  S   S2        1.0  0.7530656833083769  0.7530654994116843  0.24693445799037902  1.0000
  S   S3        1.0  0.7530652399512204  0.24693463887549316  0.24693461964013194  1.0000
  S   S4        1.0  0.24693455992522903  0.7530653015598752  0.753065387023803  1.0000
  S   S5        1.0  0.24693461734292538  0.7530652115046065  0.2469346798843365  1.0000
  S   S6        1.0  0.7530652945132187  0.24693461136571276  0.7530655659691485  1.0000
