data_image0
_chemical_formula_structural       K2BiTe6
_chemical_formula_sum              "K2 Bi1 Te6"
_cell_length_a       7.762293889639508
_cell_length_b       7.7622939413628975
_cell_length_c       7.762294293883201
_cell_angle_alpha    59.99999991456859
_cell_angle_beta     59.99999858878548
_cell_angle_gamma    60.00000049959561

_space_group_name_H-M_alt    "P 1"
_space_group_IT_number       1

loop_
  _space_group_symop_operation_xyz
  'x, y, z'

loop_
  _atom_site_type_symbol
  _atom_site_label
  _atom_site_symmetry_multiplicity
  _atom_site_fract_x
  _atom_site_fract_y
  _atom_site_fract_z
  _atom_site_occupancy
  K   K1        1.0  0.2500000114501904  0.24999995688444493  0.24999998084386757  1.0000
  K   K2        1.0  0.7499999965423317  0.7500000331680806  0.7500000167359153  1.0000
  Bi  Bi1       1.0  0.9999999837423776  0.9999999684437375  0.9999999311508608  1.0000
  Te  Te1       1.0  0.28310687533743856  0.2831068828444778  0.7168931202419343  1.0000
  Te  Te2       1.0  0.7168931534501903  0.7168931608536913  0.28310683238780066  1.0000
  Te  Te3       1.0  0.7168930620602116  0.28310693969878914  0.2831069139693861  1.0000
  Te  Te4       1.0  0.28310686539174573  0.7168931134662584  0.7168931438555748  1.0000
  Te  Te5       1.0  0.2831069569555172  0.7168930533637774  0.28310693650199853  1.0000
  Te  Te6       1.0  0.7168931025169695  0.28310688935435796  0.7168931259954998  1.0000
