data_image0
_chemical_formula_structural       K2GaS6
_chemical_formula_sum              "K2 Ga1 S6"
_cell_length_a       6.518134254475333
_cell_length_b       6.518134333137117
_cell_length_c       6.518134862818957
_cell_angle_alpha    60.00000439006329
_cell_angle_beta     60.000003110839714
_cell_angle_gamma    60.00000509304758

_space_group_name_H-M_alt    "P 1"
_space_group_IT_number       1

loop_
  _space_group_symop_operation_xyz
  'x, y, z'

loop_
  _atom_site_type_symbol
  _atom_site_label
  _atom_site_symmetry_multiplicity
  _atom_site_fract_x
  _atom_site_fract_y
  _atom_site_fract_z
  _atom_site_occupancy
  K   K1        1.0  0.25000000668022726  0.25000000391742505  0.24999997507780383  1.0000
  K   K2        1.0  0.7500000401537328  0.7500000098733011  0.7500000219748769  1.0000
  Ga  Ga1       1.0  0.9999999271743576  0.9999997933121357  2.2413670514290026e-07  1.0000
  S   S1        1.0  0.24932952115804338  0.2493296571237809  0.7506703479951391  1.0000
  S   S2        1.0  0.75067057225114  0.750670546443982  0.2493294234887396  1.0000
  S   S3        1.0  0.7506703119028187  0.24932964587533687  0.24932953161209861  1.0000
  S   S4        1.0  0.24932940352785365  0.7506705915140719  0.7506704871250758  1.0000
  S   S5        1.0  0.2493295978577435  0.7506703450666709  0.2493295300997874  1.0000
  S   S6        1.0  0.7506705809499683  0.24932940566676964  0.7506704772641288  1.0000
