data_image0
_chemical_formula_structural       K2GaSe6
_chemical_formula_sum              "K2 Ga1 Se6"
_cell_length_a       6.75679055126648
_cell_length_b       6.756790622662858
_cell_length_c       6.756790877873864
_cell_angle_alpha    60.00000727215267
_cell_angle_beta     59.999999302488554
_cell_angle_gamma    59.9999972715156

_space_group_name_H-M_alt    "P 1"
_space_group_IT_number       1

loop_
  _space_group_symop_operation_xyz
  'x, y, z'

loop_
  _atom_site_type_symbol
  _atom_site_label
  _atom_site_symmetry_multiplicity
  _atom_site_fract_x
  _atom_site_fract_y
  _atom_site_fract_z
  _atom_site_occupancy
  K   K1        1.0  0.25000000188010735  0.24999998604825285  0.24999995443725367  1.0000
  K   K2        1.0  0.7500000294116291  0.7499998765771647  0.7499999203297573  1.0000
  Ga  Ga1       1.0  4.880863566050188e-07  9.914993876250522e-07  0.9999992010074941  1.0000
  Se  Se1       1.0  0.2877392601537805  0.2877388092360703  0.7122608218318947  1.0000
  Se  Se2       1.0  0.7122607801151524  0.7122610008235359  0.28773878021090793  1.0000
  Se  Se3       1.0  0.7122608097927513  0.28773914281715923  0.2877392440145162  1.0000
  Se  Se4       1.0  0.2877383092579697  0.7122611802121522  0.712261615907245  1.0000
  Se  Se5       1.0  0.28773908954182703  0.7122605914262705  0.28773925776395015  1.0000
  Se  Se6       1.0  0.7122613174909168  0.28773844646013613  0.7122611552604279  1.0000
