data_image0
_chemical_formula_structural       K2GaTe6
_chemical_formula_sum              "K2 Ga1 Te6"
_cell_length_a       7.450694373965763
_cell_length_b       7.450692715482716
_cell_length_c       7.450693706991308
_cell_angle_alpha    59.99999237866366
_cell_angle_beta     60.000003912496844
_cell_angle_gamma    60.00000077150451

_space_group_name_H-M_alt    "P 1"
_space_group_IT_number       1

loop_
  _space_group_symop_operation_xyz
  'x, y, z'

loop_
  _atom_site_type_symbol
  _atom_site_label
  _atom_site_symmetry_multiplicity
  _atom_site_fract_x
  _atom_site_fract_y
  _atom_site_fract_z
  _atom_site_occupancy
  K   K1        1.0  0.24999996085593723  0.2500000238068873  0.25000002036241803  1.0000
  K   K2        1.0  0.7500000732563872  0.7499999596422708  0.7499999531821641  1.0000
  Ga  Ga1       1.0  0.9999997313330118  3.271162075677718e-07  0.9999999600381252  1.0000
  Te  Te1       1.0  0.273910812770523  0.2739106176390089  0.726089277819867  1.0000
  Te  Te2       1.0  0.7260891191363765  0.7260892260871299  0.27391075763403605  1.0000
  Te  Te3       1.0  0.7260891966575103  0.27391072818497536  0.2739105774563529  1.0000
  Te  Te4       1.0  0.2739108577578318  0.7260893012905887  0.72608936560783  1.0000
  Te  Te5       1.0  0.27391108262418884  0.7260890925733003  0.273910627271088  1.0000
  Te  Te6       1.0  0.7260891362757228  0.27391073635865315  0.7260894868285087  1.0000
