data_image0
_chemical_formula_structural       K2GaO6
_chemical_formula_sum              "K2 Ga1 O6"
_cell_length_a       6.101821777485374
_cell_length_b       6.101821220962633
_cell_length_c       6.1018214607805845
_cell_angle_alpha    60.00000202833571
_cell_angle_beta     60.000004362554954
_cell_angle_gamma    60.000003716464875

_space_group_name_H-M_alt    "P 1"
_space_group_IT_number       1

loop_
  _space_group_symop_operation_xyz
  'x, y, z'

loop_
  _atom_site_type_symbol
  _atom_site_label
  _atom_site_symmetry_multiplicity
  _atom_site_fract_x
  _atom_site_fract_y
  _atom_site_fract_z
  _atom_site_occupancy
  K   K1        1.0  0.24999990226574062  0.2500000187069715  0.25000009334715256  1.0000
  K   K2        1.0  0.7500000269745969  0.7500000039342617  0.7499998936624469  1.0000
  Ga  Ga1       1.0  1.5194797034089946e-08  9.634459981429013e-08  0.9999999032589318  1.0000
  O   O1        1.0  0.22234970647732225  0.22234949046702313  0.7776503786616611  1.0000
  O   O2        1.0  0.7776503736390552  0.7776504599157692  0.22234969195325777  1.0000
  O   O3        1.0  0.7776504218692584  0.22234939430172915  0.22234965545591712  1.0000
  O   O4        1.0  0.22234958356509793  0.7776505360092665  0.7776503887874382  1.0000
  O   O5        1.0  0.222349501200637  0.7776505286366331  0.2223494728234548  1.0000
  O   O6        1.0  0.7776504318441679  0.22234945988255314  0.7776504818181417  1.0000
