data_image0
_chemical_formula_structural       K2NO6
_chemical_formula_sum              "K2 N1 O6"
_cell_length_a       6.227491850256948
_cell_length_b       6.227493156343818
_cell_length_c       6.227491226769503
_cell_angle_alpha    59.9999967658554
_cell_angle_beta     59.99999060890781
_cell_angle_gamma    59.9999960693277

_space_group_name_H-M_alt    "P 1"
_space_group_IT_number       1

loop_
  _space_group_symop_operation_xyz
  'x, y, z'

loop_
  _atom_site_type_symbol
  _atom_site_label
  _atom_site_symmetry_multiplicity
  _atom_site_fract_x
  _atom_site_fract_y
  _atom_site_fract_z
  _atom_site_occupancy
  K   K1        1.0  0.2499998840477792  0.25000003612251676  0.25000005412597415  1.0000
  K   K2        1.0  0.7499999178947288  0.750000012000535  0.7499998512703054  1.0000
  N   N1        1.0  5.8200185833531885e-08  0.9999995083314765  4.078223990398959e-07  1.0000
  O   O1        1.0  0.17829573916878885  0.17829597535736383  0.8217041400853826  1.0000
  O   O2        1.0  0.8217047498680824  0.8217045369006178  0.17829615958911343  1.0000
  O   O3        1.0  0.8217044151034999  0.1782950756258211  0.17829544635458086  1.0000
  O   O4        1.0  0.1782959639419315  0.821704008826998  0.8217041143880667  1.0000
  O   O5        1.0  0.17829540079515138  0.821704465692723  0.17829609610871366  1.0000
  O   O6        1.0  0.8217039055586035  0.17829629043295328  0.8217040836511941  1.0000
