data_image0
_chemical_formula_structural       K2SbO6
_chemical_formula_sum              "K2 Sb1 O6"
_cell_length_a       6.40035973745217
_cell_length_b       6.400359703322607
_cell_length_c       6.400359868933346
_cell_angle_alpha    59.999997607500276
_cell_angle_beta     59.999995490935255
_cell_angle_gamma    59.99999760220981

_space_group_name_H-M_alt    "P 1"
_space_group_IT_number       1

loop_
  _space_group_symop_operation_xyz
  'x, y, z'

loop_
  _atom_site_type_symbol
  _atom_site_label
  _atom_site_symmetry_multiplicity
  _atom_site_fract_x
  _atom_site_fract_y
  _atom_site_fract_z
  _atom_site_occupancy
  K   K1        1.0  0.2500000437841353  0.2499999299622246  0.24999997885424483  1.0000
  K   K2        1.0  0.7499998807017288  0.7500001304997057  0.7500001587540375  1.0000
  Sb  Sb1       1.0  1.4085857779273697e-08  4.975246543877367e-08  0.9999999008971151  1.0000
  O   O1        1.0  0.2097592486215957  0.20975911862144508  0.7902408049137242  1.0000
  O   O2        1.0  0.7902408681045288  0.7902408576440052  0.20975916461657693  1.0000
  O   O3        1.0  0.7902409134154346  0.2097589659250918  0.20975924279044975  1.0000
  O   O4        1.0  0.20975911445559037  0.790240876391414  0.7902407490843848  1.0000
  O   O5        1.0  0.20975909774210835  0.7902409125466778  0.20975918268827926  1.0000
  O   O6        1.0  0.7902408985989553  0.20975913260680196  0.7902407500940541  1.0000
