data_image0
_chemical_formula_structural       K2SbSe6
_chemical_formula_sum              "K2 Sb1 Se6"
_cell_length_a       6.927272872170885
_cell_length_b       6.927272455061934
_cell_length_c       6.927272071117244
_cell_angle_alpha    60.00000398835478
_cell_angle_beta     60.000002731186726
_cell_angle_gamma    59.99999872318254

_space_group_name_H-M_alt    "P 1"
_space_group_IT_number       1

loop_
  _space_group_symop_operation_xyz
  'x, y, z'

loop_
  _atom_site_type_symbol
  _atom_site_label
  _atom_site_symmetry_multiplicity
  _atom_site_fract_x
  _atom_site_fract_y
  _atom_site_fract_z
  _atom_site_occupancy
  K   K1        1.0  0.250000006078165  0.2499999176988075  0.2500000898383304  1.0000
  K   K2        1.0  0.7500000033970257  0.7499999776329842  0.7500000924869642  1.0000
  Sb  Sb1       1.0  6.014088897647327e-08  1.0961626892477552e-07  0.9999997693208836  1.0000
  Se  Se1       1.0  0.2937995998245419  0.293799378094804  0.7062007817384597  1.0000
  Se  Se2       1.0  0.7062013566897544  0.7062009415580343  0.2937991205498411  1.0000
  Se  Se3       1.0  0.7062010388194829  0.29379865754305057  0.2937994549560195  1.0000
  Se  Se4       1.0  0.2937992171855428  0.7062003431784931  0.706201182774307  1.0000
  Se  Se5       1.0  0.2937984447473551  0.7062012189373715  0.2937989559617586  1.0000
  Se  Se6       1.0  0.7062002445703711  0.29379949144447876  0.7062005507019522  1.0000
