data_image0
_chemical_formula_structural       K2SbS6
_chemical_formula_sum              "K2 Sb1 S6"
_cell_length_a       6.882389478045578
_cell_length_b       6.882389972319503
_cell_length_c       6.882390084618857
_cell_angle_alpha    60.0000001296877
_cell_angle_beta     59.99999958988672
_cell_angle_gamma    60.000001907915696

_space_group_name_H-M_alt    "P 1"
_space_group_IT_number       1

loop_
  _space_group_symop_operation_xyz
  'x, y, z'

loop_
  _atom_site_type_symbol
  _atom_site_label
  _atom_site_symmetry_multiplicity
  _atom_site_fract_x
  _atom_site_fract_y
  _atom_site_fract_z
  _atom_site_occupancy
  K   K1        1.0  0.25000000238719466  0.249999990524049  0.24999997288258954  1.0000
  K   K2        1.0  0.7500000102117892  0.7499999875879548  0.7500000006527299  1.0000
  Sb  Sb1       1.0  1.7456048644965542e-11  0.9999999697479184  0.9999998465712137  1.0000
  S   S1        1.0  0.25129271404923215  0.2512927464739552  0.7487072474899801  1.0000
  S   S2        1.0  0.7487072084420568  0.7487072351971166  0.25129277222561835  1.0000
  S   S3        1.0  0.748707194653493  0.25129280440717366  0.2512928439066081  1.0000
  S   S4        1.0  0.2512926917382504  0.7487073107289647  0.7487072637066894  1.0000
  S   S5        1.0  0.25129287632188274  0.7487071924343258  0.2512927905334613  1.0000
  S   S6        1.0  0.7487072544153329  0.25129277855954174  0.748707240824534  1.0000
