data_image0
_chemical_formula_structural       K2YO6
_chemical_formula_sum              "K2 Y1 O6"
_cell_length_a       5.655098554248957
_cell_length_b       5.655098737644141
_cell_length_c       5.655100636887627
_cell_angle_alpha    59.99999515276714
_cell_angle_beta     60.00001093709143
_cell_angle_gamma    60.00000027554738

_space_group_name_H-M_alt    "P 1"
_space_group_IT_number       1

loop_
  _space_group_symop_operation_xyz
  'x, y, z'

loop_
  _atom_site_type_symbol
  _atom_site_label
  _atom_site_symmetry_multiplicity
  _atom_site_fract_x
  _atom_site_fract_y
  _atom_site_fract_z
  _atom_site_occupancy
  K   K1        1.0  0.25000010119334837  0.25000012427027274  0.24999996604516533  1.0000
  K   K2        1.0  0.7499999054429661  0.749999907177633  0.7500002186166838  1.0000
  Y   Y1        1.0  3.17166402519079e-07  2.858771175411692e-07  0.999999839943519  1.0000
  O   O1        1.0  0.2870759773714761  0.287076134812771  0.7129238932643426  1.0000
  O   O2        1.0  0.7129235289702821  0.7129235414544702  0.28707672620827307  1.0000
  O   O3        1.0  0.712923717139196  0.28707631103247816  0.28707636652485685  1.0000
  O   O4        1.0  0.2870765360083627  0.7129236424489472  0.7129234014214055  1.0000
  O   O5        1.0  0.28707619666992007  0.7129236277627685  0.2870763840810826  1.0000
  O   O6        1.0  0.7129235405201226  0.2870764708229537  0.7129233429473701  1.0000
