data_image0
_chemical_formula_structural       K2YSe6
_chemical_formula_sum              "K2 Y1 Se6"
_cell_length_a       7.300009683418902
_cell_length_b       7.30000951589285
_cell_length_c       7.300009904874851
_cell_angle_alpha    59.99999977344557
_cell_angle_beta     59.9999967817713
_cell_angle_gamma    59.999999802993564

_space_group_name_H-M_alt    "P 1"
_space_group_IT_number       1

loop_
  _space_group_symop_operation_xyz
  'x, y, z'

loop_
  _atom_site_type_symbol
  _atom_site_label
  _atom_site_symmetry_multiplicity
  _atom_site_fract_x
  _atom_site_fract_y
  _atom_site_fract_z
  _atom_site_occupancy
  K   K1        1.0  0.25000001125368  0.2500000009485676  0.2500000005020099  1.0000
  K   K2        1.0  0.750000002876596  0.7499999911015885  0.7500000077518363  1.0000
  Y   Y1        1.0  7.39269050674934e-08  7.717560708025565e-08  3.6777358296910976e-08  1.0000
  Se  Se1       1.0  0.28540264359304485  0.2854026680310422  0.7145973489057715  1.0000
  Se  Se2       1.0  0.7145971551137267  0.7145972015447837  0.2854027872011594  1.0000
  Se  Se3       1.0  0.7145973548863215  0.28540272023465546  0.2854026237489213  1.0000
  Se  Se4       1.0  0.28540275435909046  0.7145972332276986  0.7145973110358379  1.0000
  Se  Se5       1.0  0.28540270392156875  0.7145973278590201  0.28540261237997516  1.0000
  Se  Se6       1.0  0.7145973081937391  0.2854027698881565  0.714597272800066  1.0000
