data_image0
_chemical_formula_structural       K2YS6
_chemical_formula_sum              "K2 Y1 S6"
_cell_length_a       7.009175116105052
_cell_length_b       7.009175235511716
_cell_length_c       7.009175021416811
_cell_angle_alpha    59.999999828671086
_cell_angle_beta     60.00000270569425
_cell_angle_gamma    59.99999742733897

_space_group_name_H-M_alt    "P 1"
_space_group_IT_number       1

loop_
  _space_group_symop_operation_xyz
  'x, y, z'

loop_
  _atom_site_type_symbol
  _atom_site_label
  _atom_site_symmetry_multiplicity
  _atom_site_fract_x
  _atom_site_fract_y
  _atom_site_fract_z
  _atom_site_occupancy
  K   K1        1.0  0.2500000169633439  0.24999997611483787  0.2500000182351352  1.0000
  K   K2        1.0  0.7499999831947299  0.7500000227011596  0.7499999914401816  1.0000
  Y   Y1        1.0  0.9999999671688217  0.9999999650530972  1.1061817557794315e-08  1.0000
  S   S1        1.0  0.2788130193132558  0.27881312776199807  0.7211869527836766  1.0000
  S   S2        1.0  0.721186932353169  0.7211869374531207  0.27881300513685964  1.0000
  S   S3        1.0  0.721186945964086  0.27881310074055854  0.2788131183026273  1.0000
  S   S4        1.0  0.2788130465222246  0.7211869260329631  0.7211868612559887  1.0000
  S   S5        1.0  0.2788130976024934  0.7211868710833576  0.27881323426489063  1.0000
  S   S6        1.0  0.7211869742937276  0.2788130805543152  0.7211868073582606  1.0000
