data_image0
_chemical_formula_structural       K2YTe6
_chemical_formula_sum              "K2 Y1 Te6"
_cell_length_a       7.7994822253671705
_cell_length_b       7.799482165452659
_cell_length_c       7.799482227774364
_cell_angle_alpha    60.00000186811032
_cell_angle_beta     60.00000270180019
_cell_angle_gamma    60.00000174787223

_space_group_name_H-M_alt    "P 1"
_space_group_IT_number       1

loop_
  _space_group_symop_operation_xyz
  'x, y, z'

loop_
  _atom_site_type_symbol
  _atom_site_label
  _atom_site_symmetry_multiplicity
  _atom_site_fract_x
  _atom_site_fract_y
  _atom_site_fract_z
  _atom_site_occupancy
  K   K1        1.0  0.2499999700411152  0.2499999957916901  0.2500000026597205  1.0000
  K   K2        1.0  0.7500000281284062  0.7499999842344918  0.7499999992681057  1.0000
  Y   Y1        1.0  1.3752687405308183e-09  3.140579903776147e-08  0.9999999810451938  1.0000
  Te  Te1       1.0  0.2794754032470097  0.27947542884184895  0.7205245226734085  1.0000
  Te  Te2       1.0  0.7205246233801067  0.7205245857307113  0.27947539390270365  1.0000
  Te  Te3       1.0  0.720524538815767  0.2794754078098939  0.27947542810050324  1.0000
  Te  Te4       1.0  0.2794753692674538  0.7205246381684662  0.72052463333343  1.0000
  Te  Te5       1.0  0.27947545754334907  0.7205245503714294  0.2794754173204027  1.0000
  Te  Te6       1.0  0.7205245998763317  0.2794753762648952  0.7205246278341828  1.0000
