data_image0
_chemical_formula_structural       Li2AsS6
_chemical_formula_sum              "Li2 As1 S6"
_cell_length_a       6.495156134526209
_cell_length_b       6.495155154047435
_cell_length_c       6.495155457078727
_cell_angle_alpha    60.00000195404411
_cell_angle_beta     60.000000717393185
_cell_angle_gamma    59.99999878774122

_space_group_name_H-M_alt    "P 1"
_space_group_IT_number       1

loop_
  _space_group_symop_operation_xyz
  'x, y, z'

loop_
  _atom_site_type_symbol
  _atom_site_label
  _atom_site_symmetry_multiplicity
  _atom_site_fract_x
  _atom_site_fract_y
  _atom_site_fract_z
  _atom_site_occupancy
  Li  Li1       1.0  0.24999989253325136  0.2500001465648689  0.24999984663473734  1.0000
  Li  Li2       1.0  0.7499999504702763  0.7500000210851286  0.7499999006805618  1.0000
  As  As1       1.0  0.9999999745379522  0.9999999057185793  0.999999993668544  1.0000
  S   S1        1.0  0.2580489368985292  0.2580488064611963  0.7419509501266518  1.0000
  S   S2        1.0  0.7419514597580698  0.7419509482361908  0.25804865139755223  1.0000
  S   S3        1.0  0.7419512203575324  0.25804877277338745  0.25804889345829163  1.0000
  S   S4        1.0  0.2580489098313235  0.7419508159887368  0.7419515709032094  1.0000
  S   S5        1.0  0.25804871295327664  0.7419513612660302  0.25804892650566824  1.0000
  S   S6        1.0  0.7419510164626574  0.25804920048031976  0.7419512409729518  1.0000
