data_image0
_chemical_formula_structural       Li2AsSe6
_chemical_formula_sum              "Li2 As1 Se6"
_cell_length_a       6.44530408678967
_cell_length_b       6.445304065007452
_cell_length_c       6.445304145966684
_cell_angle_alpha    60.00000040596784
_cell_angle_beta     59.9999987734123
_cell_angle_gamma    59.99999664690289

_space_group_name_H-M_alt    "P 1"
_space_group_IT_number       1

loop_
  _space_group_symop_operation_xyz
  'x, y, z'

loop_
  _atom_site_type_symbol
  _atom_site_label
  _atom_site_symmetry_multiplicity
  _atom_site_fract_x
  _atom_site_fract_y
  _atom_site_fract_z
  _atom_site_occupancy
  Li  Li1       1.0  0.2500000646869161  0.2500000133678405  0.2500000115182558  1.0000
  Li  Li2       1.0  0.7500000128794361  0.7500000838084219  0.7500001731112472  1.0000
  As  As1       1.0  0.9999998691618045  9.69108524376328e-08  0.9999999083574717  1.0000
  Se  Se1       1.0  0.28665713135910265  0.2866571018716475  0.7133428760331653  1.0000
  Se  Se2       1.0  0.7133428541526887  0.7133429059946161  0.2866570734600137  1.0000
  Se  Se3       1.0  0.7133429297718338  0.2866570584965295  0.2866569835006411  1.0000
  Se  Se4       1.0  0.28665708929174116  0.7133428809620732  0.7133428639536541  1.0000
  Se  Se5       1.0  0.28665713471135557  0.7133428640993017  0.28665708004852536  1.0000
  Se  Se6       1.0  0.7133429183386988  0.28665698414909196  0.7133430209876225  1.0000
