data_image0
_chemical_formula_structural       Li2BiTe6
_chemical_formula_sum              "Li2 Bi1 Te6"
_cell_length_a       7.66158449441983
_cell_length_b       7.661584380611181
_cell_length_c       7.661584209566138
_cell_angle_alpha    60.00000106625571
_cell_angle_beta     60.00000083997987
_cell_angle_gamma    59.9999981455476

_space_group_name_H-M_alt    "P 1"
_space_group_IT_number       1

loop_
  _space_group_symop_operation_xyz
  'x, y, z'

loop_
  _atom_site_type_symbol
  _atom_site_label
  _atom_site_symmetry_multiplicity
  _atom_site_fract_x
  _atom_site_fract_y
  _atom_site_fract_z
  _atom_site_occupancy
  Li  Li1       1.0  0.25000001030378605  0.24999999394146658  0.25000000105128173  1.0000
  Li  Li2       1.0  0.7499999709604688  0.7500000169925674  0.7499999959670101  1.0000
  Bi  Bi1       1.0  3.183258020438928e-08  0.999999990408681  0.9999999679959598  1.0000
  Te  Te1       1.0  0.2809075709204291  0.2809075672266732  0.7190924360719716  1.0000
  Te  Te2       1.0  0.719092442784993  0.7190924548972312  0.280907567845489  1.0000
  Te  Te3       1.0  0.7190924491269988  0.2809075355722293  0.2809075347941865  1.0000
  Te  Te4       1.0  0.28090753002153834  0.7190924545806155  0.719092467146493  1.0000
  Te  Te5       1.0  0.2809075422595163  0.7190924411170828  0.28090755741027706  1.0000
  Te  Te6       1.0  0.7190924536502986  0.2809075394444437  0.7190924683548975  1.0000
