data_image0
_chemical_formula_structural       Li2GaS6
_chemical_formula_sum              "Li2 Ga1 S6"
_cell_length_a       6.19071385457753
_cell_length_b       6.1907140188922165
_cell_length_c       6.190713988865771
_cell_angle_alpha    59.999995700924686
_cell_angle_beta     59.99999413838998
_cell_angle_gamma    59.9999954482982

_space_group_name_H-M_alt    "P 1"
_space_group_IT_number       1

loop_
  _space_group_symop_operation_xyz
  'x, y, z'

loop_
  _atom_site_type_symbol
  _atom_site_label
  _atom_site_symmetry_multiplicity
  _atom_site_fract_x
  _atom_site_fract_y
  _atom_site_fract_z
  _atom_site_occupancy
  Li  Li1       1.0  0.2500001937217974  0.24999989794367483  0.24999994015243607  1.0000
  Li  Li2       1.0  0.7499998299688969  0.7499999945414784  0.7499998599382532  1.0000
  Ga  Ga1       1.0  0.9999999564017996  6.924253440728209e-08  0.9999999952544452  1.0000
  S   S1        1.0  0.25951925016046146  0.2595188115659438  0.7404807098013306  1.0000
  S   S2        1.0  0.7404810660327271  0.7404809028669718  0.25951909283116  1.0000
  S   S3        1.0  0.7404805442226117  0.2595189038456166  0.25951938250145723  1.0000
  S   S4        1.0  0.25951928652685724  0.7404807057343223  0.7404809446552079  1.0000
  S   S5        1.0  0.2595192114106134  0.7404811737440052  0.25951902467300925  1.0000
  S   S6        1.0  0.7404806499736984  0.2595195358030309  0.7404810489399027  1.0000
