data_image0
_chemical_formula_structural       Li2GaO6
_chemical_formula_sum              "Li2 Ga1 O6"
_cell_length_a       5.000315980997659
_cell_length_b       5.000316013175936
_cell_length_c       5.000316032879542
_cell_angle_alpha    60.00000250106304
_cell_angle_beta     60.00000115390008
_cell_angle_gamma    60.000001334816545

_space_group_name_H-M_alt    "P 1"
_space_group_IT_number       1

loop_
  _space_group_symop_operation_xyz
  'x, y, z'

loop_
  _atom_site_type_symbol
  _atom_site_label
  _atom_site_symmetry_multiplicity
  _atom_site_fract_x
  _atom_site_fract_y
  _atom_site_fract_z
  _atom_site_occupancy
  Li  Li1       1.0  0.2499999394674483  0.25000005323287905  0.2500000001629506  1.0000
  Li  Li2       1.0  0.7499999607398056  0.7499999613025117  0.7499999965202043  1.0000
  Ga  Ga1       1.0  6.981393940298429e-08  1.2246675981408232e-08  3.2965016350263055e-08  1.0000
  O   O1        1.0  0.2646447368029976  0.2646448099398741  0.735355224310617  1.0000
  O   O2        1.0  0.7353553254723544  0.7353551825515052  0.26464481835316456  1.0000
  O   O3        1.0  0.7353553262783048  0.2646447271768003  0.26464471828034586  1.0000
  O   O4        1.0  0.2646447623794118  0.7353552138785459  0.735355308912039  1.0000
  O   O5        1.0  0.26464467771088124  0.7353551902533455  0.26464474706518354  1.0000
  O   O6        1.0  0.7353551936887058  0.2646448414273869  0.7353551494558336  1.0000
