data_image0
_chemical_formula_structural       Li2NO6
_chemical_formula_sum              "Li2 N1 O6"
_cell_length_a       5.155731957537178
_cell_length_b       5.155730040972683
_cell_length_c       5.155726341426644
_cell_angle_alpha    60.000005247823175
_cell_angle_beta     60.00000819041291
_cell_angle_gamma    59.99999792179019

_space_group_name_H-M_alt    "P 1"
_space_group_IT_number       1

loop_
  _space_group_symop_operation_xyz
  'x, y, z'

loop_
  _atom_site_type_symbol
  _atom_site_label
  _atom_site_symmetry_multiplicity
  _atom_site_fract_x
  _atom_site_fract_y
  _atom_site_fract_z
  _atom_site_occupancy
  Li  Li1       1.0  0.24999974520910878  0.2500000286085782  0.25000027174232853  1.0000
  Li  Li2       1.0  0.7499999189053358  0.7499997627574404  0.7500004353441646  1.0000
  N   N1        1.0  0.9999991083727536  0.9999999738692564  2.5400602438781503e-06  1.0000
  O   O1        1.0  0.21211528855867276  0.21211447716400797  0.7878842609338651  1.0000
  O   O2        1.0  0.7878854046053064  0.7878846324330897  0.21211393336554996  1.0000
  O   O3        1.0  0.7878846819022419  0.21211619197538328  0.21211501475215033  1.0000
  O   O4        1.0  0.2121145975392477  0.7878860770396137  0.7878840872438809  1.0000
  O   O5        1.0  0.21211607465265025  0.7878843341333805  0.21211439772977875  1.0000
  O   O6        1.0  0.7878858021766038  0.21211463768446345  0.7878844257434026  1.0000
