data_image0
_chemical_formula_structural       Li2SbS6
_chemical_formula_sum              "Li2 Sb1 S6"
_cell_length_a       6.634142716623329
_cell_length_b       6.6341426611553205
_cell_length_c       6.634142688503141
_cell_angle_alpha    59.999999130784715
_cell_angle_beta     60.000003135425096
_cell_angle_gamma    59.99999917412143

_space_group_name_H-M_alt    "P 1"
_space_group_IT_number       1

loop_
  _space_group_symop_operation_xyz
  'x, y, z'

loop_
  _atom_site_type_symbol
  _atom_site_label
  _atom_site_symmetry_multiplicity
  _atom_site_fract_x
  _atom_site_fract_y
  _atom_site_fract_z
  _atom_site_occupancy
  Li  Li1       1.0  0.24999993411643157  0.24999995919336532  0.25000004642720436  1.0000
  Li  Li2       1.0  0.7500000659945841  0.7500000474234876  0.7499998954049097  1.0000
  Sb  Sb1       1.0  0.9999999641695663  0.9999999926155075  0.9999998889603304  1.0000
  S   S1        1.0  0.2598347096309075  0.2598349100613961  0.740165392285415  1.0000
  S   S2        1.0  0.740165069322576  0.7401652848600817  0.259835004613094  1.0000
  S   S3        1.0  0.7401652573491894  0.25983478132320287  0.25983470811711895  1.0000
  S   S4        1.0  0.25983470847577755  0.7401653803680535  0.7401651386516793  1.0000
  S   S5        1.0  0.2598348780819742  0.740165063031063  0.259834710201795  1.0000
  S   S6        1.0  0.7401654086093441  0.2598345798993927  0.7401651616539034  1.0000
