data_image0
_chemical_formula_structural       Li2SbTe6
_chemical_formula_sum              "Li2 Sb1 Te6"
_cell_length_a       7.543657195143292
_cell_length_b       7.543657196933116
_cell_length_c       7.543657144323472
_cell_angle_alpha    59.99999991330002
_cell_angle_beta     60.00000083184271
_cell_angle_gamma    60.00000013765928

_space_group_name_H-M_alt    "P 1"
_space_group_IT_number       1

loop_
  _space_group_symop_operation_xyz
  'x, y, z'

loop_
  _atom_site_type_symbol
  _atom_site_label
  _atom_site_symmetry_multiplicity
  _atom_site_fract_x
  _atom_site_fract_y
  _atom_site_fract_z
  _atom_site_occupancy
  Li  Li1       1.0  0.25000000007371775  0.24999999807022116  0.25000001047171655  1.0000
  Li  Li2       1.0  0.7499999975152485  0.7500000023283767  0.7499999809870344  1.0000
  Sb  Sb1       1.0  9.539620472808336e-09  8.117713059043105e-09  0.9999999726126956  1.0000
  Te  Te1       1.0  0.2754454282880914  0.2754454339392671  0.7245545543384125  1.0000
  Te  Te2       1.0  0.7245545529275379  0.7245545421061919  0.27544546543727805  1.0000
  Te  Te3       1.0  0.7245545474665938  0.27544544033034973  0.2754454430105572  1.0000
  Te  Te4       1.0  0.2754454356033413  0.7245545990332701  0.7245545521326017  1.0000
  Te  Te5       1.0  0.27544543369651014  0.7245545643412394  0.27544542944338374  1.0000
  Te  Te6       1.0  0.7245545950633806  0.27544540683359175  0.7245545928565961  1.0000
