data_image0
_chemical_formula_structural       Li2SbO6
_chemical_formula_sum              "Li2 Sb1 O6"
_cell_length_a       5.2426575045308885
_cell_length_b       5.24265819220901
_cell_length_c       5.242658001603709
_cell_angle_alpha    60.00000358901277
_cell_angle_beta     60.00000566286759
_cell_angle_gamma    60.00000217000008

_space_group_name_H-M_alt    "P 1"
_space_group_IT_number       1

loop_
  _space_group_symop_operation_xyz
  'x, y, z'

loop_
  _atom_site_type_symbol
  _atom_site_label
  _atom_site_symmetry_multiplicity
  _atom_site_fract_x
  _atom_site_fract_y
  _atom_site_fract_z
  _atom_site_occupancy
  Li  Li1       1.0  0.24999983521276803  0.2500000931900133  0.25000006440916805  1.0000
  Li  Li2       1.0  0.7500001244178206  0.7499998240277532  0.7499999933482996  1.0000
  Sb  Sb1       1.0  7.101080644537887e-08  2.0324193264461204e-07  0.9999998991147975  1.0000
  O   O1        1.0  0.2714701405930696  0.27147029645653226  0.728529832729529  1.0000
  O   O2        1.0  0.7285294427862377  0.7285296394501587  0.27147055258858543  1.0000
  O   O3        1.0  0.7285298485838156  0.2714702930316925  0.27147014304639383  1.0000
  O   O4        1.0  0.27147038718503563  0.72852954242207  0.7285296019844392  1.0000
  O   O5        1.0  0.27147034840569123  0.7285295966494303  0.2714704957521889  1.0000
  O   O6        1.0  0.7285296716010335  0.2714705424991837  0.7285293235728957  1.0000
