data_image0
_chemical_formula_structural       Li2SbSe6
_chemical_formula_sum              "Li2 Sb1 Se6"
_cell_length_a       6.698710348480205
_cell_length_b       6.698710185186603
_cell_length_c       6.698710548016353
_cell_angle_alpha    60.00000085062594
_cell_angle_beta     60.000002332676814
_cell_angle_gamma    60.000002313388414

_space_group_name_H-M_alt    "P 1"
_space_group_IT_number       1

loop_
  _space_group_symop_operation_xyz
  'x, y, z'

loop_
  _atom_site_type_symbol
  _atom_site_label
  _atom_site_symmetry_multiplicity
  _atom_site_fract_x
  _atom_site_fract_y
  _atom_site_fract_z
  _atom_site_occupancy
  Li  Li1       1.0  0.24999996795036122  0.25000008987711414  0.24999992800763784  1.0000
  Li  Li2       1.0  0.7500000797499964  0.7499999643003451  0.7500000771411202  1.0000
  Sb  Sb1       1.0  4.2153058526584706e-08  4.936489310089447e-08  0.9999999064706385  1.0000
  Se  Se1       1.0  0.29144457533161633  0.29144477570979144  0.7085554065736651  1.0000
  Se  Se2       1.0  0.708555338578304  0.7085551833945369  0.2914446801647301  1.0000
  Se  Se3       1.0  0.708555319608646  0.29144471708181857  0.29144462462082243  1.0000
  Se  Se4       1.0  0.2914446737528619  0.7085551432927228  0.7085553194885617  1.0000
  Se  Se5       1.0  0.2914446989113697  0.7085553517710064  0.29144472596396315  1.0000
  Se  Se6       1.0  0.7085553006101821  0.2914447280030636  0.7085553307821562  1.0000
