data_image0
_chemical_formula_structural       Li2YS6
_chemical_formula_sum              "Li2 Y1 S6"
_cell_length_a       6.881390888725447
_cell_length_b       6.881391119573563
_cell_length_c       6.88139106649635
_cell_angle_alpha    60.000000788658234
_cell_angle_beta     60.00000235145451
_cell_angle_gamma    60.0000025092393

_space_group_name_H-M_alt    "P 1"
_space_group_IT_number       1

loop_
  _space_group_symop_operation_xyz
  'x, y, z'

loop_
  _atom_site_type_symbol
  _atom_site_label
  _atom_site_symmetry_multiplicity
  _atom_site_fract_x
  _atom_site_fract_y
  _atom_site_fract_z
  _atom_site_occupancy
  Li  Li1       1.0  0.24999989026550515  0.2500001709988327  0.2500000064782656  1.0000
  Li  Li2       1.0  0.7500000259666443  0.7499999559214414  0.7499998733441937  1.0000
  Y   Y1        1.0  1.0217216534831713e-07  0.9999999804222832  6.658198303721342e-09  1.0000
  S   S1        1.0  0.2802041708521388  0.2802042941783248  0.7197957628341557  1.0000
  S   S2        1.0  0.7197959066575559  0.7197956761202073  0.2802042657926387  1.0000
  S   S3        1.0  0.7197956200411691  0.28020431201175255  0.28020438886445886  1.0000
  S   S4        1.0  0.2802043807398565  0.7197955461598495  0.7197956542644324  1.0000
  S   S5        1.0  0.28020426585034575  0.7197955612852901  0.28020443535084094  1.0000
  S   S6        1.0  0.7197956492476703  0.28020447842514895  0.7197956136183336  1.0000
