data_image0
_chemical_formula_structural       Li2YSe6
_chemical_formula_sum              "Li2 Y1 Se6"
_cell_length_a       7.216227939683234
_cell_length_b       7.216228035636161
_cell_length_c       7.216228165908703
_cell_angle_alpha    60.00000030405525
_cell_angle_beta     60.000001912168614
_cell_angle_gamma    60.00000140642247

_space_group_name_H-M_alt    "P 1"
_space_group_IT_number       1

loop_
  _space_group_symop_operation_xyz
  'x, y, z'

loop_
  _atom_site_type_symbol
  _atom_site_label
  _atom_site_symmetry_multiplicity
  _atom_site_fract_x
  _atom_site_fract_y
  _atom_site_fract_z
  _atom_site_occupancy
  Li  Li1       1.0  0.24999998266089035  0.25000000028590363  0.24999998351950883  1.0000
  Li  Li2       1.0  0.7500000580376639  0.7499999635191096  0.7499998310544033  1.0000
  Y   Y1        1.0  0.9999999255140787  3.8187207027919557e-07  1.1514543258318869e-07  1.0000
  Se  Se1       1.0  0.28230868557029326  0.2823086328931085  0.7176911943446095  1.0000
  Se  Se2       1.0  0.7176915162408409  0.7176913852226007  0.28230838779877376  1.0000
  Se  Se3       1.0  0.7176912052373061  0.2823087690101416  0.28230874806547346  1.0000
  Se  Se4       1.0  0.28230819355364106  0.7176916275832131  0.7176915535393366  1.0000
  Se  Se5       1.0  0.28230874812128687  0.7176910339638897  0.2823087113033057  1.0000
  Se  Se6       1.0  0.7176916838003975  0.2823082170132603  0.7176914677805045  1.0000
