data_image0
_chemical_formula_structural       Li2YO6
_chemical_formula_sum              "Li2 Y1 O6"
_cell_length_a       5.4683932743375605
_cell_length_b       5.4683934627481445
_cell_length_c       5.468393454726186
_cell_angle_alpha    59.999999937024036
_cell_angle_beta     60.00000116336805
_cell_angle_gamma    59.99999909239784

_space_group_name_H-M_alt    "P 1"
_space_group_IT_number       1

loop_
  _space_group_symop_operation_xyz
  'x, y, z'

loop_
  _atom_site_type_symbol
  _atom_site_label
  _atom_site_symmetry_multiplicity
  _atom_site_fract_x
  _atom_site_fract_y
  _atom_site_fract_z
  _atom_site_occupancy
  Li  Li1       1.0  0.25000000060295974  0.24999997997156678  0.24999999961450534  1.0000
  Li  Li2       1.0  0.7500000011464548  0.7500000115844445  0.7499999633398563  1.0000
  Y   Y1        1.0  0.9999999884612891  0.9999999776032046  7.914323520052546e-08  1.0000
  O   O1        1.0  0.2860358558860704  0.2860358957998953  0.7139641114672622  1.0000
  O   O2        1.0  0.7139641644614119  0.7139641539877822  0.28603589353462155  1.0000
  O   O3        1.0  0.7139641109267952  0.28603580930953226  0.2860358913239707  1.0000
  O   O4        1.0  0.28603584686349587  0.713964162089364  0.7139641494057757  1.0000
  O   O5        1.0  0.2860358615754298  0.713964177474414  0.2860357876913118  1.0000
  O   O6        1.0  0.7139641528215472  0.2860358521561492  0.7139641041847264  1.0000
