data_image0
_chemical_formula_structural       Mg2BTe6
_chemical_formula_sum              "Mg2 B1 Te6"
_cell_length_a       6.98181736519139
_cell_length_b       6.981817699416206
_cell_length_c       6.981817464521752
_cell_angle_alpha    59.99999986945917
_cell_angle_beta     60.0000008510439
_cell_angle_gamma    60.00000053864693

_space_group_name_H-M_alt    "P 1"
_space_group_IT_number       1

loop_
  _space_group_symop_operation_xyz
  'x, y, z'

loop_
  _atom_site_type_symbol
  _atom_site_label
  _atom_site_symmetry_multiplicity
  _atom_site_fract_x
  _atom_site_fract_y
  _atom_site_fract_z
  _atom_site_occupancy
  Mg  Mg1       1.0  0.25000007774424543  0.24999986617011336  0.25000004362196265  1.0000
  Mg  Mg2       1.0  0.7499999384340591  0.7500001405556648  0.7500000831540222  1.0000
  B   B1        1.0  4.9031312795162275e-08  1.7541925181214019e-09  0.9999999373676607  1.0000
  Te  Te1       1.0  0.23414222725819034  0.2341421435263776  0.7658578298536612  1.0000
  Te  Te2       1.0  0.7658578043065446  0.7658578368865228  0.234142192099078  1.0000
  Te  Te3       1.0  0.7658578216156038  0.23414212380992722  0.23414218068683368  1.0000
  Te  Te4       1.0  0.2341421046690873  0.7658578846700463  0.7658578297421762  1.0000
  Te  Te5       1.0  0.23414211780825098  0.7658579579716751  0.23414210520178783  1.0000
  Te  Te6       1.0  0.7658578621855979  0.23414203822895538  0.765857827220643  1.0000
