data_image0
_chemical_formula_structural       Mg2BO6
_chemical_formula_sum              "Mg2 B1 O6"
_cell_length_a       4.6978766773748175
_cell_length_b       4.697875793187346
_cell_length_c       4.697876951028815
_cell_angle_alpha    59.9999975328013
_cell_angle_beta     59.99999958268537
_cell_angle_gamma    59.99999855199837

_space_group_name_H-M_alt    "P 1"
_space_group_IT_number       1

loop_
  _space_group_symop_operation_xyz
  'x, y, z'

loop_
  _atom_site_type_symbol
  _atom_site_label
  _atom_site_symmetry_multiplicity
  _atom_site_fract_x
  _atom_site_fract_y
  _atom_site_fract_z
  _atom_site_occupancy
  Mg  Mg1       1.0  0.25000002443986225  0.24999997454858475  0.25000000866925  1.0000
  Mg  Mg2       1.0  0.7499999625385029  0.7499999757861199  0.7500000361705201  1.0000
  B   B1        1.0  6.924347294505507e-08  2.0856151620973386e-08  0.9999999741077793  1.0000
  O   O1        1.0  0.2277959357128199  0.22779573966341113  0.77220417235137  1.0000
  O   O2        1.0  0.7722041134078712  0.7722042602046488  0.22779584006539427  1.0000
  O   O3        1.0  0.77220411572555  0.22779582280698873  0.22779585063553057  1.0000
  O   O4        1.0  0.22779582710818586  0.7722042083452881  0.7722041673532867  1.0000
  O   O5        1.0  0.22779584319188345  0.7722042311089115  0.22779571265975335  1.0000
  O   O6        1.0  0.772204125537354  0.22779577397317913  0.7722042713584678  1.0000
