data_image0
_chemical_formula_structural       Mg2BS6
_chemical_formula_sum              "Mg2 B1 S6"
_cell_length_a       6.109600071736211
_cell_length_b       6.1096006227356865
_cell_length_c       6.10960060829182
_cell_angle_alpha    60.00000017782137
_cell_angle_beta     59.99999829013479
_cell_angle_gamma    60.0000007505871

_space_group_name_H-M_alt    "P 1"
_space_group_IT_number       1

loop_
  _space_group_symop_operation_xyz
  'x, y, z'

loop_
  _atom_site_type_symbol
  _atom_site_label
  _atom_site_symmetry_multiplicity
  _atom_site_fract_x
  _atom_site_fract_y
  _atom_site_fract_z
  _atom_site_occupancy
  Mg  Mg1       1.0  0.25000009545662294  0.2500000606060289  0.24999981898341644  1.0000
  Mg  Mg2       1.0  0.7499999114664865  0.7500002179013096  0.7500000208214623  1.0000
  B   B1        1.0  1.1569156495006643e-08  0.9999999879722593  1.9870510622819166e-08  1.0000
  S   S1        1.0  0.2330496619203493  0.23304955065638264  0.7669503537158703  1.0000
  S   S2        1.0  0.7669502967675849  0.7669503169031535  0.23304964366269582  1.0000
  S   S3        1.0  0.7669503977154486  0.23304955026662025  0.2330496638724811  1.0000
  S   S4        1.0  0.23304962013501476  0.7669502872235637  0.7669504302597348  1.0000
  S   S5        1.0  0.23304967928697676  0.7669504193325577  0.23304961523149648  1.0000
  S   S6        1.0  0.7669503368994345  0.23304960458760485  0.7669504470781796  1.0000
