data_image0
_chemical_formula_structural       Mg2GaSe6
_chemical_formula_sum              "Mg2 Ga1 Se6"
_cell_length_a       6.709703464808955
_cell_length_b       6.709703841493111
_cell_length_c       6.709703806412659
_cell_angle_alpha    60.00000185664408
_cell_angle_beta     60.000003631739204
_cell_angle_gamma    60.00000052852707

_space_group_name_H-M_alt    "P 1"
_space_group_IT_number       1

loop_
  _space_group_symop_operation_xyz
  'x, y, z'

loop_
  _atom_site_type_symbol
  _atom_site_label
  _atom_site_symmetry_multiplicity
  _atom_site_fract_x
  _atom_site_fract_y
  _atom_site_fract_z
  _atom_site_occupancy
  Mg  Mg1       1.0  0.2500000896978824  0.2500000590800701  0.24999991898307258  1.0000
  Mg  Mg2       1.0  0.7499998678190809  0.7500001626375496  0.7499999082534224  1.0000
  Ga  Ga1       1.0  3.2002953277513134e-08  0.9999999762706613  0.9999999362480435  1.0000
  Se  Se1       1.0  0.2649017831647238  0.2649016627249279  0.7350983333335551  1.0000
  Se  Se2       1.0  0.7350982539720091  0.7350982943193041  0.2649017309964879  1.0000
  Se  Se3       1.0  0.7350982600043617  0.26490171836540255  0.26490178276302484  1.0000
  Se  Se4       1.0  0.26490162024629815  0.7350983737535264  0.7350983848761846  1.0000
  Se  Se5       1.0  0.26490176586948166  0.7350982227213312  0.2649016738323478  1.0000
  Se  Se6       1.0  0.735098317649249  0.26490152806019196  0.735098336303962  1.0000
