data_image0
_chemical_formula_structural       Mg2GaO6
_chemical_formula_sum              "Mg2 Ga1 O6"
_cell_length_a       5.101421975309757
_cell_length_b       5.10142207568048
_cell_length_c       5.101421997346386
_cell_angle_alpha    60.0000001017095
_cell_angle_beta     59.999999291430186
_cell_angle_gamma    59.99999951374769

_space_group_name_H-M_alt    "P 1"
_space_group_IT_number       1

loop_
  _space_group_symop_operation_xyz
  'x, y, z'

loop_
  _atom_site_type_symbol
  _atom_site_label
  _atom_site_symmetry_multiplicity
  _atom_site_fract_x
  _atom_site_fract_y
  _atom_site_fract_z
  _atom_site_occupancy
  Mg  Mg1       1.0  0.2499999742942941  0.25000003928785614  0.24999999555317243  1.0000
  Mg  Mg2       1.0  0.7500000262972794  0.7499999570105642  0.7499999938162056  1.0000
  Ga  Ga1       1.0  0.9999999784399946  0.9999999831944625  2.8983960414374673e-08  1.0000
  O   O1        1.0  0.2610726359212428  0.2610726833574363  0.7389273252415224  1.0000
  O   O2        1.0  0.7389274390908154  0.73892732734573  0.26107260207310007  1.0000
  O   O3        1.0  0.7389273331770192  0.2610726511048841  0.26107265619422426  1.0000
  O   O4        1.0  0.2610726037622937  0.7389273595982832  0.7389273774012883  1.0000
  O   O5        1.0  0.261072625664179  0.7389273631782792  0.26107265056924867  1.0000
  O   O6        1.0  0.738927373326867  0.26107263792172314  0.738927368563406  1.0000
