data_image0
_chemical_formula_structural       Mg2GaTe6
_chemical_formula_sum              "Mg2 Ga1 Te6"
_cell_length_a       7.249406256876566
_cell_length_b       7.249406267120815
_cell_length_c       7.249406371919039
_cell_angle_alpha    59.999999366336766
_cell_angle_beta     59.99999913791747
_cell_angle_gamma    60.00000074960747

_space_group_name_H-M_alt    "P 1"
_space_group_IT_number       1

loop_
  _space_group_symop_operation_xyz
  'x, y, z'

loop_
  _atom_site_type_symbol
  _atom_site_label
  _atom_site_symmetry_multiplicity
  _atom_site_fract_x
  _atom_site_fract_y
  _atom_site_fract_z
  _atom_site_occupancy
  Mg  Mg1       1.0  0.24999999159362943  0.24999998190152115  0.24999999908485515  1.0000
  Mg  Mg2       1.0  0.7499999473964947  0.7499999896300453  0.7499999820869045  1.0000
  Ga  Ga1       1.0  2.90572580636846e-08  0.9999999797267008  1.7678793166733425e-08  1.0000
  Te  Te1       1.0  0.2671590227953616  0.2671589951448457  0.7328409883911874  1.0000
  Te  Te2       1.0  0.7328409515901496  0.732841013554437  0.2671590227113385  1.0000
  Te  Te3       1.0  0.7328410126544872  0.2671590099707065  0.2671590288718649  1.0000
  Te  Te4       1.0  0.2671590540345894  0.7328409750763947  0.7328409754934346  1.0000
  Te  Te5       1.0  0.26715900362088396  0.7328409972665657  0.2671590265858854  1.0000
  Te  Te6       1.0  0.7328409794519659  0.26715905704764115  0.7328409656420487  1.0000
