data_image0
_chemical_formula_structural       Mg2IrS6
_chemical_formula_sum              "Mg2 Ir1 S6"
_cell_length_a       6.290606187779071
_cell_length_b       6.290606220523488
_cell_length_c       6.29060628978293
_cell_angle_alpha    59.99999933786814
_cell_angle_beta     59.99999944340678
_cell_angle_gamma    59.99999928910951

_space_group_name_H-M_alt    "P 1"
_space_group_IT_number       1

loop_
  _space_group_symop_operation_xyz
  'x, y, z'

loop_
  _atom_site_type_symbol
  _atom_site_label
  _atom_site_symmetry_multiplicity
  _atom_site_fract_x
  _atom_site_fract_y
  _atom_site_fract_z
  _atom_site_occupancy
  Mg  Mg1       1.0  0.2500000003303551  0.25000005218757654  0.24999995010699516  1.0000
  Mg  Mg2       1.0  0.7499999035200423  0.7500001020483389  0.7499999994385993  1.0000
  Ir  Ir1       1.0  1.079087513350096e-08  1.168165517092898e-08  0.9999999824050473  1.0000
  S   S1        1.0  0.25961072143500824  0.2596107000873322  0.7403892870595089  1.0000
  S   S2        1.0  0.7403893330679119  0.740389222462421  0.2596107395653593  1.0000
  S   S3        1.0  0.7403892803047674  0.2596107144226321  0.2596106992035049  1.0000
  S   S4        1.0  0.2596107223561017  0.7403892314904318  0.740389332122702  1.0000
  S   S5        1.0  0.2596107099092267  0.7403892856449452  0.2596107263950926  1.0000
  S   S6        1.0  0.7403893009465939  0.2596106797375439  0.7403893085853167  1.0000
