data_image0
_chemical_formula_structural       Mg2IrO6
_chemical_formula_sum              "Mg2 Ir1 O6"
_cell_length_a       5.259551195744535
_cell_length_b       5.259550654486765
_cell_length_c       5.2595509504254165
_cell_angle_alpha    59.9999978844772
_cell_angle_beta     59.99999948973815
_cell_angle_gamma    59.999998884321236

_space_group_name_H-M_alt    "P 1"
_space_group_IT_number       1

loop_
  _space_group_symop_operation_xyz
  'x, y, z'

loop_
  _atom_site_type_symbol
  _atom_site_label
  _atom_site_symmetry_multiplicity
  _atom_site_fract_x
  _atom_site_fract_y
  _atom_site_fract_z
  _atom_site_occupancy
  Mg  Mg1       1.0  0.2500002020434111  0.24999988862668476  0.24999989417649682  1.0000
  Mg  Mg2       1.0  0.7499998630454751  0.7500001036589649  0.7500000557335729  1.0000
  Ir  Ir1       1.0  0.9999999677114965  4.6572217872048985e-09  0.9999999776908843  1.0000
  O   O1        1.0  0.2511227326833469  0.25112256582322334  0.7488774299440127  1.0000
  O   O2        1.0  0.7488774208013619  0.7488773193463083  0.2511225464379306  1.0000
  O   O3        1.0  0.7488773706869715  0.25112271175515155  0.25112273210719027  1.0000
  O   O4        1.0  0.25112256517934717  0.748877417918562  0.7488771832992849  1.0000
  O   O5        1.0  0.251122703515479  0.7488771523581965  0.2511227247713972  1.0000
  O   O6        1.0  0.748877135820226  0.2511228585563395  0.7488774294698822  1.0000
