data_image0
_chemical_formula_structural       Mg2IrSe6
_chemical_formula_sum              "Mg2 Ir1 Se6"
_cell_length_a       6.725028967071152
_cell_length_b       6.725028956816611
_cell_length_c       6.725028905671602
_cell_angle_alpha    60.00000064991839
_cell_angle_beta     59.99999936608786
_cell_angle_gamma    59.99999904247509

_space_group_name_H-M_alt    "P 1"
_space_group_IT_number       1

loop_
  _space_group_symop_operation_xyz
  'x, y, z'

loop_
  _atom_site_type_symbol
  _atom_site_label
  _atom_site_symmetry_multiplicity
  _atom_site_fract_x
  _atom_site_fract_y
  _atom_site_fract_z
  _atom_site_occupancy
  Mg  Mg1       1.0  0.25000001360569474  0.25000002399245846  0.24999999760732772  1.0000
  Mg  Mg2       1.0  0.7499999821617  0.7500000264480231  0.7500000211226323  1.0000
  Ir  Ir1       1.0  0.9999999877546836  4.1887005105059655e-08  1.78927698918333e-08  1.0000
  Se  Se1       1.0  0.25904698329902864  0.2590469488985356  0.7409530543101346  1.0000
  Se  Se2       1.0  0.7409530552570245  0.74095298862915  0.2590469756901742  1.0000
  Se  Se3       1.0  0.7409530067643592  0.2590469479517355  0.25904699799306236  1.0000
  Se  Se4       1.0  0.25904702695310144  0.7409529731853822  0.7409529266371951  1.0000
  Se  Se5       1.0  0.25904700400089065  0.7409529784107829  0.2590470588928697  1.0000
  Se  Se6       1.0  0.7409529419729407  0.2590470720296989  0.7409529416113809  1.0000
