data_image0
_chemical_formula_structural       Mg2MoSe6
_chemical_formula_sum              "Mg2 Mo1 Se6"
_cell_length_a       6.850471661183176
_cell_length_b       6.850471722256571
_cell_length_c       6.850471611315959
_cell_angle_alpha    59.99999968190922
_cell_angle_beta     60.00000255120714
_cell_angle_gamma    60.00000416780393

_space_group_name_H-M_alt    "P 1"
_space_group_IT_number       1

loop_
  _space_group_symop_operation_xyz
  'x, y, z'

loop_
  _atom_site_type_symbol
  _atom_site_label
  _atom_site_symmetry_multiplicity
  _atom_site_fract_x
  _atom_site_fract_y
  _atom_site_fract_z
  _atom_site_occupancy
  Mg  Mg1       1.0  0.24999998357726333  0.250000021708735  0.2500000124209259  1.0000
  Mg  Mg2       1.0  0.7499999551750366  0.7500000973070682  0.7499998773546318  1.0000
  Mo  Mo1       1.0  5.59483651214835e-08  0.9999999535165343  1.514611774459941e-07  1.0000
  Se  Se1       1.0  0.25285077611254136  0.2528507720326702  0.7471492460357905  1.0000
  Se  Se2       1.0  0.7471494155641831  0.7471491950179676  0.2528506691673257  1.0000
  Se  Se3       1.0  0.7471492158708759  0.2528507082278252  0.2528507774054945  1.0000
  Se  Se4       1.0  0.2528508442460492  0.7471492337932507  0.7471491124498006  1.0000
  Se  Se5       1.0  0.2528505799151105  0.7471492893764307  0.2528508251032364  1.0000
  Se  Se6       1.0  0.7471491776478214  0.25285072594547864  0.7471493326527519  1.0000
