data_image0
_chemical_formula_structural       Mg2MoO6
_chemical_formula_sum              "Mg2 Mo1 O6"
_cell_length_a       5.27010218282495
_cell_length_b       5.270102329418416
_cell_length_c       5.270102282406129
_cell_angle_alpha    59.999999561716166
_cell_angle_beta     59.99999988082186
_cell_angle_gamma    59.99999944912912

_space_group_name_H-M_alt    "P 1"
_space_group_IT_number       1

loop_
  _space_group_symop_operation_xyz
  'x, y, z'

loop_
  _atom_site_type_symbol
  _atom_site_label
  _atom_site_symmetry_multiplicity
  _atom_site_fract_x
  _atom_site_fract_y
  _atom_site_fract_z
  _atom_site_occupancy
  Mg  Mg1       1.0  0.2500000744287191  0.24999990004461262  0.25000003108019697  1.0000
  Mg  Mg2       1.0  0.7499999704695675  0.7500000510501318  0.7499999663933842  1.0000
  Mo  Mo1       1.0  3.740339771389299e-09  0.9999999953521017  3.460871412311686e-08  1.0000
  O   O1        1.0  0.2554802416261691  0.2554802103784296  0.7445197484344428  1.0000
  O   O2        1.0  0.744519722666857  0.7445198313503248  0.255480215562317  1.0000
  O   O3        1.0  0.7445197849294842  0.25548024345841586  0.25548020311234715  1.0000
  O   O4        1.0  0.2554802262829434  0.7445197889745422  0.7445197439701068  1.0000
  O   O5        1.0  0.25548019892928425  0.7445197846793221  0.2554802854366961  1.0000
  O   O6        1.0  0.7445197925865861  0.2554802082465034  0.7445197557624798  1.0000
