data_image0
_chemical_formula_structural       Mg2NO6
_chemical_formula_sum              "Mg2 N1 O6"
_cell_length_a       4.702351326680191
_cell_length_b       4.702351294081519
_cell_length_c       4.702351350168829
_cell_angle_alpha    59.99999598003304
_cell_angle_beta     60.00000044548155
_cell_angle_gamma    59.99999668464847

_space_group_name_H-M_alt    "P 1"
_space_group_IT_number       1

loop_
  _space_group_symop_operation_xyz
  'x, y, z'

loop_
  _atom_site_type_symbol
  _atom_site_label
  _atom_site_symmetry_multiplicity
  _atom_site_fract_x
  _atom_site_fract_y
  _atom_site_fract_z
  _atom_site_occupancy
  Mg  Mg1       1.0  0.2499999057555697  0.2500003058048223  0.25000103793092365  1.0000
  Mg  Mg2       1.0  0.7499999520707813  0.7500002793029235  0.7500010421157585  1.0000
  N   N1        1.0  0.9999987695984642  4.774116067176876e-06  1.7195249340456177e-05  1.0000
  O   O1        1.0  0.23795792918902894  0.23795777631437082  0.7620417568770693  1.0000
  O   O2        1.0  0.7620403675273942  0.7620401990471531  0.2379593824521197  1.0000
  O   O3        1.0  0.7620467689111438  0.23795316232886765  0.23795287062580514  1.0000
  O   O4        1.0  0.23796426582870775  0.7620357049660186  0.7620352380597559  1.0000
  O   O5        1.0  0.23795478660958  0.7620452004167165  0.23795439538171498  1.0000
  O   O6        1.0  0.7620373558575514  0.23796250810113517  0.7620369946460841  1.0000
