data_image0
_chemical_formula_structural       Mg2RhO6
_chemical_formula_sum              "Mg2 Rh1 O6"
_cell_length_a       5.280968934651467
_cell_length_b       5.2809687760067465
_cell_length_c       5.280968611600918
_cell_angle_alpha    59.99999945324374
_cell_angle_beta     60.000001117132065
_cell_angle_gamma    59.99999982235885

_space_group_name_H-M_alt    "P 1"
_space_group_IT_number       1

loop_
  _space_group_symop_operation_xyz
  'x, y, z'

loop_
  _atom_site_type_symbol
  _atom_site_label
  _atom_site_symmetry_multiplicity
  _atom_site_fract_x
  _atom_site_fract_y
  _atom_site_fract_z
  _atom_site_occupancy
  Mg  Mg1       1.0  0.25000007125035345  0.24999989030585157  0.24999993390129574  1.0000
  Mg  Mg2       1.0  0.7500001058568069  0.749999863408416  0.7500000566995283  1.0000
  Rh  Rh1       1.0  0.9999999788849829  3.710667295702725e-08  0.9999999863233957  1.0000
  O   O1        1.0  0.25356131188054737  0.2535615740613188  0.7464384743304454  1.0000
  O   O2        1.0  0.7464386233551229  0.7464385182513399  0.25356135618499676  1.0000
  O   O3        1.0  0.746438610508106  0.2535614361041685  0.2535615029448109  1.0000
  O   O4        1.0  0.2535614727751962  0.7464384219726143  0.746438611150941  1.0000
  O   O5        1.0  0.25356141570784174  0.746438705074267  0.25356153342656185  1.0000
  O   O6        1.0  0.7464384167796938  0.25356157741008667  0.7464384995440608  1.0000
