data_image0
_chemical_formula_structural       Mg2RuSe6
_chemical_formula_sum              "Mg2 Ru1 Se6"
_cell_length_a       6.726391020530416
_cell_length_b       6.7263910270875495
_cell_length_c       6.726391136229653
_cell_angle_alpha    60.00000071856363
_cell_angle_beta     60.00000025333838
_cell_angle_gamma    60.000000889420114

_space_group_name_H-M_alt    "P 1"
_space_group_IT_number       1

loop_
  _space_group_symop_operation_xyz
  'x, y, z'

loop_
  _atom_site_type_symbol
  _atom_site_label
  _atom_site_symmetry_multiplicity
  _atom_site_fract_x
  _atom_site_fract_y
  _atom_site_fract_z
  _atom_site_occupancy
  Mg  Mg1       1.0  0.2500000595993452  0.2500000647526898  0.24999991080939948  1.0000
  Mg  Mg2       1.0  0.7499999792685116  0.7500000048943167  0.7500001216300856  1.0000
  Ru  Ru1       1.0  0.9999999754816608  0.9999999654046993  8.159066544739589e-08  1.0000
  Se  Se1       1.0  0.2580009856888857  0.25800103854618506  0.7419990162809852  1.0000
  Se  Se2       1.0  0.7419989920214559  0.7419989673726339  0.25800099088715306  1.0000
  Se  Se3       1.0  0.7419989965928154  0.25800103662217944  0.2580010116139739  1.0000
  Se  Se4       1.0  0.25800103847876177  0.7419989620134181  0.7419989229413554  1.0000
  Se  Se5       1.0  0.2580010185931678  0.7419989529882283  0.2580010127942179  1.0000
  Se  Se6       1.0  0.74199895369049  0.2580010074104565  0.7419989351064938  1.0000
