data_image0
_chemical_formula_structural       Mg2RhSe6
_chemical_formula_sum              "Mg2 Rh1 Se6"
_cell_length_a       6.695669746034037
_cell_length_b       6.695669745620988
_cell_length_c       6.695669608304911
_cell_angle_alpha    60.00000158979753
_cell_angle_beta     60.000001560127664
_cell_angle_gamma    60.000002130444

_space_group_name_H-M_alt    "P 1"
_space_group_IT_number       1

loop_
  _space_group_symop_operation_xyz
  'x, y, z'

loop_
  _atom_site_type_symbol
  _atom_site_label
  _atom_site_symmetry_multiplicity
  _atom_site_fract_x
  _atom_site_fract_y
  _atom_site_fract_z
  _atom_site_occupancy
  Mg  Mg1       1.0  0.2500000338256225  0.24999995331242772  0.24999995094821165  1.0000
  Mg  Mg2       1.0  0.7500000574216624  0.7499999093245927  0.7500000622559525  1.0000
  Rh  Rh1       1.0  0.9999999786957021  1.8291596142164411e-09  5.155564192957413e-08  1.0000
  Se  Se1       1.0  0.2588435447275096  0.2588435099883064  0.7411564973080056  1.0000
  Se  Se2       1.0  0.7411564124890994  0.7411565684895428  0.2588434540820466  1.0000
  Se  Se3       1.0  0.7411565064957837  0.25884357271760133  0.25884350736690914  1.0000
  Se  Se4       1.0  0.258843535486754  0.7411564014981529  0.7411564940957961  1.0000
  Se  Se5       1.0  0.25884348107080646  0.7411564639680085  0.2588435909983094  1.0000
  Se  Se6       1.0  0.7411564489535288  0.2588436236556383  0.7411563843500067  1.0000
