data_image0
_chemical_formula_structural       Mg2SbTe6
_chemical_formula_sum              "Mg2 Sb1 Te6"
_cell_length_a       7.42249376502756
_cell_length_b       7.422493776698456
_cell_length_c       7.422493649138039
_cell_angle_alpha    60.00000073273034
_cell_angle_beta     59.9999995564947
_cell_angle_gamma    60.000000643990155

_space_group_name_H-M_alt    "P 1"
_space_group_IT_number       1

loop_
  _space_group_symop_operation_xyz
  'x, y, z'

loop_
  _atom_site_type_symbol
  _atom_site_label
  _atom_site_symmetry_multiplicity
  _atom_site_fract_x
  _atom_site_fract_y
  _atom_site_fract_z
  _atom_site_occupancy
  Mg  Mg1       1.0  0.25000001268011496  0.25000002128133025  0.2499999984145638  1.0000
  Mg  Mg2       1.0  0.7500000171101707  0.7500000192927759  0.7499999983447513  1.0000
  Sb  Sb1       1.0  0.999999983971389  2.47506743595456e-08  0.9999999471377481  1.0000
  Te  Te1       1.0  0.27342116287859225  0.2734211437046911  0.726578859999972  1.0000
  Te  Te2       1.0  0.7265788369143675  0.7265788655185602  0.27342113375203086  1.0000
  Te  Te3       1.0  0.7265788400861819  0.2734211160824691  0.2734211987810275  1.0000
  Te  Te4       1.0  0.2734211299925541  0.7265788469395229  0.7265788585265831  1.0000
  Te  Te5       1.0  0.27342114161679104  0.7265788345517143  0.27342116433888886  1.0000
  Te  Te6       1.0  0.726578876687943  0.2734211284702777  0.7265788419106  1.0000
