data_image0
_chemical_formula_structural       Mg2SbSe6
_chemical_formula_sum              "Mg2 Sb1 Se6"
_cell_length_a       6.891333141768501
_cell_length_b       6.891333193550715
_cell_length_c       6.891333381957412
_cell_angle_alpha    59.999998319260094
_cell_angle_beta     60.000000537206404
_cell_angle_gamma    60.00000134662634

_space_group_name_H-M_alt    "P 1"
_space_group_IT_number       1

loop_
  _space_group_symop_operation_xyz
  'x, y, z'

loop_
  _atom_site_type_symbol
  _atom_site_label
  _atom_site_symmetry_multiplicity
  _atom_site_fract_x
  _atom_site_fract_y
  _atom_site_fract_z
  _atom_site_occupancy
  Mg  Mg1       1.0  0.24999996460092525  0.2499999390481461  0.2500000120314222  1.0000
  Mg  Mg2       1.0  0.7500000278639207  0.7499999628768802  0.750000010834215  1.0000
  Sb  Sb1       1.0  2.5554775067842703e-09  1.2440573821881108e-08  2.1523934040238393e-08  1.0000
  Se  Se1       1.0  0.26814448645766437  0.2681445466606451  0.7318554646932666  1.0000
  Se  Se2       1.0  0.7318554816835665  0.7318554885562472  0.2681445051393419  1.0000
  Se  Se3       1.0  0.731855480939416  0.2681445303416445  0.26814457105914624  1.0000
  Se  Se4       1.0  0.2681445684255219  0.7318554924346748  0.731855403561542  1.0000
  Se  Se5       1.0  0.2681445128380293  0.7318555048090035  0.26814453166142616  1.0000
  Se  Se6       1.0  0.731855474141187  0.26814450908118986  0.7318554873017732  1.0000
