data_image0
_chemical_formula_structural       Mg2SbO6
_chemical_formula_sum              "Mg2 Sb1 O6"
_cell_length_a       5.306931716949641
_cell_length_b       5.306932206793655
_cell_length_c       5.306932122410212
_cell_angle_alpha    59.99999971247116
_cell_angle_beta     59.99999937093899
_cell_angle_gamma    59.999999930472775

_space_group_name_H-M_alt    "P 1"
_space_group_IT_number       1

loop_
  _space_group_symop_operation_xyz
  'x, y, z'

loop_
  _atom_site_type_symbol
  _atom_site_label
  _atom_site_symmetry_multiplicity
  _atom_site_fract_x
  _atom_site_fract_y
  _atom_site_fract_z
  _atom_site_occupancy
  Mg  Mg1       1.0  0.24999991428315302  0.2500001137996731  0.24999999720270305  1.0000
  Mg  Mg2       1.0  0.7500000493406329  0.7499999767633245  0.7499999886468025  1.0000
  Sb  Sb1       1.0  0.9999999987254248  0.9999999907687172  0.999999980756667  1.0000
  O   O1        1.0  0.26211721448771946  0.26211721480804856  0.7378828209647544  1.0000
  O   O2        1.0  0.7378828037318532  0.7378827511326219  0.26211730542038253  1.0000
  O   O3        1.0  0.7378827026171072  0.2621172068244949  0.2621171827016692  1.0000
  O   O4        1.0  0.2621172128102905  0.7378827868100302  0.7378827871468578  1.0000
  O   O5        1.0  0.26211726957094456  0.7378828176886151  0.2621170972323904  1.0000
  O   O6        1.0  0.737882820956466  0.2621171597911611  0.7378828214084249  1.0000
