data_image0
_chemical_formula_structural       Mg2TaS6
_chemical_formula_sum              "Mg2 Ta1 S6"
_cell_length_a       6.339643803210967
_cell_length_b       6.339643737793939
_cell_length_c       6.339643559774713
_cell_angle_alpha    60.00000115441345
_cell_angle_beta     60.000001031435076
_cell_angle_gamma    60.00000030578001

_space_group_name_H-M_alt    "P 1"
_space_group_IT_number       1

loop_
  _space_group_symop_operation_xyz
  'x, y, z'

loop_
  _atom_site_type_symbol
  _atom_site_label
  _atom_site_symmetry_multiplicity
  _atom_site_fract_x
  _atom_site_fract_y
  _atom_site_fract_z
  _atom_site_occupancy
  Mg  Mg1       1.0  0.25000001004960526  0.25000002581935654  0.2499999631297045  1.0000
  Mg  Mg2       1.0  0.74999998167194  0.7499999770001651  0.7499999685886307  1.0000
  Ta  Ta1       1.0  1.5196176641828514e-08  3.091012445313718e-08  0.999999961173092  1.0000
  S   S1        1.0  0.2639492077964449  0.26394921419875633  0.7360508047852203  1.0000
  S   S2        1.0  0.7360508271240987  0.7360507519149925  0.2639492530313132  1.0000
  S   S3        1.0  0.73605081052955  0.2639491964679573  0.263949177360701  1.0000
  S   S4        1.0  0.26394918494527436  0.7360508005559163  0.7360508515987394  1.0000
  S   S5        1.0  0.2639491742988098  0.7360508085823582  0.26394916899225657  1.0000
  S   S6        1.0  0.7360508001652329  0.26394920776034325  0.7360508355751488  1.0000
