data_image0
_chemical_formula_structural       Mg2TaO6
_chemical_formula_sum              "Mg2 Ta1 O6"
_cell_length_a       5.293892085017443
_cell_length_b       5.293892023612227
_cell_length_c       5.2938920952364015
_cell_angle_alpha    59.999997768488164
_cell_angle_beta     59.999998322767766
_cell_angle_gamma    59.99999830245493

_space_group_name_H-M_alt    "P 1"
_space_group_IT_number       1

loop_
  _space_group_symop_operation_xyz
  'x, y, z'

loop_
  _atom_site_type_symbol
  _atom_site_label
  _atom_site_symmetry_multiplicity
  _atom_site_fract_x
  _atom_site_fract_y
  _atom_site_fract_z
  _atom_site_occupancy
  Mg  Mg1       1.0  0.24999990374665143  0.2499999400610601  0.2500000740161945  1.0000
  Mg  Mg2       1.0  0.7499998675977647  0.7500001232524178  0.7500000093357778  1.0000
  Ta  Ta1       1.0  1.9233811506115277e-08  2.0821551399567042e-08  0.9999999289701451  1.0000
  O   O1        1.0  0.2592460226038427  0.2592460086289514  0.7407539861830793  1.0000
  O   O2        1.0  0.7407540328477399  0.7407539875928632  0.2592459659935064  1.0000
  O   O3        1.0  0.7407540145202779  0.25924595821679325  0.2592460185318196  1.0000
  O   O4        1.0  0.2592460559804414  0.7407539732268624  0.7407540321790831  1.0000
  O   O5        1.0  0.25924606742316897  0.7407540147316284  0.2592459518684033  1.0000
  O   O6        1.0  0.7407540201074662  0.2592459768631742  0.740754033806396  1.0000
