data_image0
_chemical_formula_structural       Mg2TaTe6
_chemical_formula_sum              "Mg2 Ta1 Te6"
_cell_length_a       7.303218161506215
_cell_length_b       7.30321817087221
_cell_length_c       7.303218113511391
_cell_angle_alpha    60.000000065171825
_cell_angle_beta     60.00000040880042
_cell_angle_gamma    60.00000044011159

_space_group_name_H-M_alt    "P 1"
_space_group_IT_number       1

loop_
  _space_group_symop_operation_xyz
  'x, y, z'

loop_
  _atom_site_type_symbol
  _atom_site_label
  _atom_site_symmetry_multiplicity
  _atom_site_fract_x
  _atom_site_fract_y
  _atom_site_fract_z
  _atom_site_occupancy
  Mg  Mg1       1.0  0.25000002928570497  0.24999999123018798  0.25000000661128613  1.0000
  Mg  Mg2       1.0  0.7500000046980856  0.7499999954914782  0.7499999724651305  1.0000
  Ta  Ta1       1.0  0.9999999403654211  3.1862874517394265e-08  0.999999989239183  1.0000
  Te  Te1       1.0  0.2635643904859936  0.2635643912036191  0.736435622360546  1.0000
  Te  Te2       1.0  0.7364356076123968  0.7364355703631458  0.2635644214675062  1.0000
  Te  Te3       1.0  0.7364355751013745  0.2635644388807864  0.26356439547854504  1.0000
  Te  Te4       1.0  0.2635644053639022  0.7364356182746026  0.7364355792480453  1.0000
  Te  Te5       1.0  0.26356441806089126  0.7364355727042061  0.2635644098152139  1.0000
  Te  Te6       1.0  0.7364356342574624  0.26356439221654576  0.736435603856604  1.0000
