data_image0
_chemical_formula_structural       Mg2TaSe6
_chemical_formula_sum              "Mg2 Ta1 Se6"
_cell_length_a       6.7617715326563665
_cell_length_b       6.761771479126105
_cell_length_c       6.761771655095159
_cell_angle_alpha    59.99999903005265
_cell_angle_beta     59.999997844956674
_cell_angle_gamma    60.00000190890495

_space_group_name_H-M_alt    "P 1"
_space_group_IT_number       1

loop_
  _space_group_symop_operation_xyz
  'x, y, z'

loop_
  _atom_site_type_symbol
  _atom_site_label
  _atom_site_symmetry_multiplicity
  _atom_site_fract_x
  _atom_site_fract_y
  _atom_site_fract_z
  _atom_site_occupancy
  Mg  Mg1       1.0  0.24999992127698542  0.2500000475038325  0.2500000113473278  1.0000
  Mg  Mg2       1.0  0.7499999675492076  0.749999966817527  0.7500000333399617  1.0000
  Ta  Ta1       1.0  0.9999999827337012  0.9999999800759402  8.242863123533185e-09  1.0000
  Se  Se1       1.0  0.26144793026518687  0.2614479183588038  0.7385520746021712  1.0000
  Se  Se2       1.0  0.7385521187730426  0.738552112264064  0.26144791880090285  1.0000
  Se  Se3       1.0  0.7385520643626032  0.26144797088622174  0.26144790644666865  1.0000
  Se  Se4       1.0  0.2614479528332875  0.7385520579253669  0.7385520845574844  1.0000
  Se  Se5       1.0  0.261447972041682  0.7385519868814119  0.26144794834800916  1.0000
  Se  Se6       1.0  0.7385520952306884  0.26144795317755043  0.7385520131904392  1.0000
