data_image0
_chemical_formula_structural       Mn2AsN6
_chemical_formula_sum              "Mn2 As1 N6"
_cell_length_a       4.8082386826767305
_cell_length_b       4.8082387604514185
_cell_length_c       4.808238707433984
_cell_angle_alpha    60.00000006168327
_cell_angle_beta     59.999999584786956
_cell_angle_gamma    60.00000116349234

_space_group_name_H-M_alt    "P 1"
_space_group_IT_number       1

loop_
  _space_group_symop_operation_xyz
  'x, y, z'

loop_
  _atom_site_type_symbol
  _atom_site_label
  _atom_site_symmetry_multiplicity
  _atom_site_fract_x
  _atom_site_fract_y
  _atom_site_fract_z
  _atom_site_occupancy
  Mn  Mn1       1.0  0.25000001204215294  0.25000009469663237  0.24999989906746997  1.0000
  Mn  Mn2       1.0  0.7499998312038118  0.7499999478621613  0.7500001341586932  1.0000
  As  As1       1.0  0.9999999978648536  2.8018977778383796e-08  0.9999999745795024  1.0000
  N   N1        1.0  0.2662720270381133  0.2662720054248555  0.7337279270458924  1.0000
  N   N2        1.0  0.733727990839267  0.7337279887375242  0.266271945313879  1.0000
  N   N3        1.0  0.7337280200256027  0.26627202879295425  0.266271990089881  1.0000
  N   N4        1.0  0.2662721244531086  0.7337279169730102  0.7337280677819047  1.0000
  N   N5        1.0  0.2662720562502523  0.7337279665428629  0.2662720049768334  1.0000
  N   N6        1.0  0.7337279582308879  0.26627203780823566  0.7337280428463709  1.0000
