data_image0
_chemical_formula_structural       Mn2AsSe6
_chemical_formula_sum              "Mn2 As1 Se6"
_cell_length_a       6.493361370227323
_cell_length_b       6.493361322290499
_cell_length_c       6.49336138664954
_cell_angle_alpha    60.000001310356055
_cell_angle_beta     60.000000433245496
_cell_angle_gamma    59.99999959448934

_space_group_name_H-M_alt    "P 1"
_space_group_IT_number       1

loop_
  _space_group_symop_operation_xyz
  'x, y, z'

loop_
  _atom_site_type_symbol
  _atom_site_label
  _atom_site_symmetry_multiplicity
  _atom_site_fract_x
  _atom_site_fract_y
  _atom_site_fract_z
  _atom_site_occupancy
  Mn  Mn1       1.0  0.2500002697314768  0.2500002388978758  0.24999924411386623  1.0000
  Mn  Mn2       1.0  0.7499989784981451  0.7500009166254915  0.7499998906338136  1.0000
  As  As1       1.0  1.0059463033900156e-08  0.9999999698216111  0.999999966938499  1.0000
  Se  Se1       1.0  0.2818463219788814  0.2818454551353366  0.7181542797930571  1.0000
  Se  Se2       1.0  0.718154167480764  0.7181540839581229  0.2818459403946135  1.0000
  Se  Se3       1.0  0.7181541215539106  0.28184560683325094  0.2818461980498672  1.0000
  Se  Se4       1.0  0.28184612785663565  0.7181539001956775  0.7181543645592287  1.0000
  Se  Se5       1.0  0.2818461322723654  0.7181541041937843  0.2818456982222395  1.0000
  Se  Se6       1.0  0.718153874281265  0.28184570461902014  0.7181544237341904  1.0000
