data_image0
_chemical_formula_structural       Mn2AsO6
_chemical_formula_sum              "Mn2 As1 O6"
_cell_length_a       5.25187239607279
_cell_length_b       5.251872479526825
_cell_length_c       5.251872738466384
_cell_angle_alpha    59.99999825009807
_cell_angle_beta     59.99999822978862
_cell_angle_gamma    59.99999907257449

_space_group_name_H-M_alt    "P 1"
_space_group_IT_number       1

loop_
  _space_group_symop_operation_xyz
  'x, y, z'

loop_
  _atom_site_type_symbol
  _atom_site_label
  _atom_site_symmetry_multiplicity
  _atom_site_fract_x
  _atom_site_fract_y
  _atom_site_fract_z
  _atom_site_occupancy
  Mn  Mn1       1.0  0.25000008529758516  0.24999996497558585  0.24999990887188955  1.0000
  Mn  Mn2       1.0  0.7500000219445823  0.7500000954801049  0.7499998137641404  1.0000
  As  As1       1.0  2.3163904010175113e-08  0.9999999766798433  0.9999999943658783  1.0000
  O   O1        1.0  0.2431447702515875  0.24314460940760005  0.7568553128580073  1.0000
  O   O2        1.0  0.7568552466480231  0.7568553461073849  0.24314481207288496  1.0000
  O   O3        1.0  0.7568552960824256  0.24314461234295298  0.24314474003589112  1.0000
  O   O4        1.0  0.24314467517910973  0.7568553151878442  0.7568553017489227  1.0000
  O   O5        1.0  0.24314459569962063  0.756855395919062  0.24314476312022087  1.0000
  O   O6        1.0  0.7568552779755272  0.24314465287654966  0.7568553563172657  1.0000
