data_image0
_chemical_formula_structural       Mn2AsSe6
_chemical_formula_sum              "Mn2 As1 Se6"
_cell_length_a       6.492762861387263
_cell_length_b       6.492762661629917
_cell_length_c       6.492762459888219
_cell_angle_alpha    60.000000810919865
_cell_angle_beta     59.99999956024115
_cell_angle_gamma    59.99999877463456

_space_group_name_H-M_alt    "P 1"
_space_group_IT_number       1

loop_
  _space_group_symop_operation_xyz
  'x, y, z'

loop_
  _atom_site_type_symbol
  _atom_site_label
  _atom_site_symmetry_multiplicity
  _atom_site_fract_x
  _atom_site_fract_y
  _atom_site_fract_z
  _atom_site_occupancy
  Mn  Mn1       1.0  0.24999991681193234  0.24999972677589596  0.2500003317472789  1.0000
  Mn  Mn2       1.0  0.7500004724771238  0.7499995538196618  0.7499994925657578  1.0000
  As  As1       1.0  6.671777182931906e-08  4.527175486313337e-08  0.9999998592955291  1.0000
  Se  Se1       1.0  0.28193166559527505  0.28193206504001517  0.7180681474239738  1.0000
  Se  Se2       1.0  0.7180679706415201  0.7180681888983154  0.2819322259393508  1.0000
  Se  Se3       1.0  0.7180681863372357  0.2819318810291598  0.28193188524852314  1.0000
  Se  Se4       1.0  0.2819317507799945  0.7180683559322564  0.7180680273465052  1.0000
  Se  Se5       1.0  0.2819316995526743  0.7180681208910613  0.28193201464660284  1.0000
  Se  Se6       1.0  0.7180682789187635  0.28193206136698296  0.7180680201362426  1.0000
