data_image0
_chemical_formula_structural       Mn2AsO6
_chemical_formula_sum              "Mn2 As1 O6"
_cell_length_a       5.252433662197894
_cell_length_b       5.252433674061299
_cell_length_c       5.252434331379488
_cell_angle_alpha    59.999998695408436
_cell_angle_beta     59.999997043312256
_cell_angle_gamma    60.00000080195967

_space_group_name_H-M_alt    "P 1"
_space_group_IT_number       1

loop_
  _space_group_symop_operation_xyz
  'x, y, z'

loop_
  _atom_site_type_symbol
  _atom_site_label
  _atom_site_symmetry_multiplicity
  _atom_site_fract_x
  _atom_site_fract_y
  _atom_site_fract_z
  _atom_site_occupancy
  Mn  Mn1       1.0  0.24999997475331687  0.2499999514190247  0.25000004356376415  1.0000
  Mn  Mn2       1.0  0.7500000375980509  0.7499999825042322  0.7499999870521178  1.0000
  As  As1       1.0  6.9305805918793624e-09  0.999999867089311  6.299005140766462e-08  1.0000
  O   O1        1.0  0.2431384014413534  0.24313829674173507  0.7568616600706413  1.0000
  O   O2        1.0  0.7568616852559059  0.7568616581674197  0.24313824862806185  1.0000
  O   O3        1.0  0.7568617502958606  0.24313831248717002  0.24313834767086132  1.0000
  O   O4        1.0  0.24313832185449927  0.7568617520150116  0.7568616182181315  1.0000
  O   O5        1.0  0.24313829511916243  0.7568616609971497  0.2431384623408327  1.0000
  O   O6        1.0  0.7568614808439128  0.24313848744861974  0.7568616496514686  1.0000
