data_image0
_chemical_formula_structural       Mn2AsS6
_chemical_formula_sum              "Mn2 As1 S6"
_cell_length_a       6.358623156304333
_cell_length_b       6.358622853165899
_cell_length_c       6.358622964539057
_cell_angle_alpha    60.00000129324046
_cell_angle_beta     60.00000139737025
_cell_angle_gamma    59.999999868241844

_space_group_name_H-M_alt    "P 1"
_space_group_IT_number       1

loop_
  _space_group_symop_operation_xyz
  'x, y, z'

loop_
  _atom_site_type_symbol
  _atom_site_label
  _atom_site_symmetry_multiplicity
  _atom_site_fract_x
  _atom_site_fract_y
  _atom_site_fract_z
  _atom_site_occupancy
  Mn  Mn1       1.0  0.2500001482037614  0.2500001473936243  0.24999988601845505  1.0000
  Mn  Mn2       1.0  0.7500000223457988  0.7499998893854248  0.7500000103364135  1.0000
  As  As1       1.0  5.192954485233243e-08  0.9999999749604843  0.9999999566743017  1.0000
  S   S1        1.0  0.2600430831070283  0.26004325822474206  0.7399568582488139  1.0000
  S   S2        1.0  0.7399569119364515  0.739956776628194  0.2600432777982358  1.0000
  S   S3        1.0  0.7399566813607809  0.2600432195373412  0.26004310990654783  1.0000
  S   S4        1.0  0.26004312874744934  0.7399568634685041  0.7399568539135369  1.0000
  S   S5        1.0  0.26004322610764247  0.7399566690982784  0.26004310551343535  1.0000
  S   S6        1.0  0.7399567791928057  0.26004317699523294  0.7399569200560608  1.0000
