data_image0
_chemical_formula_structural       Mn2AsS6
_chemical_formula_sum              "Mn2 As1 S6"
_cell_length_a       6.358686338797301
_cell_length_b       6.358686029906002
_cell_length_c       6.358686441260955
_cell_angle_alpha    59.9999986370577
_cell_angle_beta     59.99999943486598
_cell_angle_gamma    59.99999887272517

_space_group_name_H-M_alt    "P 1"
_space_group_IT_number       1

loop_
  _space_group_symop_operation_xyz
  'x, y, z'

loop_
  _atom_site_type_symbol
  _atom_site_label
  _atom_site_symmetry_multiplicity
  _atom_site_fract_x
  _atom_site_fract_y
  _atom_site_fract_z
  _atom_site_occupancy
  Mn  Mn1       1.0  0.2500002523730175  0.24999961939799228  0.2500001393374817  1.0000
  Mn  Mn2       1.0  0.7500000320257532  0.7499999657000068  0.7500002079342644  1.0000
  As  As1       1.0  8.146252317462435e-08  0.9999998863602513  6.641347129184101e-08  1.0000
  S   S1        1.0  0.2600438945182026  0.26004400639356584  0.7399561105706339  1.0000
  S   S2        1.0  0.7399559115070042  0.7399561912034174  0.26004388184311716  1.0000
  S   S3        1.0  0.7399559652918922  0.2600439893741531  0.26004390330390825  1.0000
  S   S4        1.0  0.2600439190013308  0.7399562621535571  0.7399557981212569  1.0000
  S   S5        1.0  0.2600439905098902  0.7399561461542746  0.2600438168121773  1.0000
  S   S6        1.0  0.7399559522082875  0.26004393009856913  0.7399560735680463  1.0000
