data_image0
_chemical_formula_structural       Mn2BiS6
_chemical_formula_sum              "Mn2 Bi1 S6"
_cell_length_a       6.5223053724660405
_cell_length_b       6.522305532342448
_cell_length_c       6.522305368675074
_cell_angle_alpha    59.999999808456955
_cell_angle_beta     60.00000127193832
_cell_angle_gamma    60.0000001874924

_space_group_name_H-M_alt    "P 1"
_space_group_IT_number       1

loop_
  _space_group_symop_operation_xyz
  'x, y, z'

loop_
  _atom_site_type_symbol
  _atom_site_label
  _atom_site_symmetry_multiplicity
  _atom_site_fract_x
  _atom_site_fract_y
  _atom_site_fract_z
  _atom_site_occupancy
  Mn  Mn1       1.0  0.25000002614511196  0.2499999722856496  0.24999985950176923  1.0000
  Mn  Mn2       1.0  0.7499997666108469  0.7500001459459857  0.750000188690309  1.0000
  Bi  Bi1       1.0  2.1637362201796077e-08  4.131113896742132e-08  0.9999999823245512  1.0000
  S   S1        1.0  0.269154599364861  0.269154478425015  0.7308455093074596  1.0000
  S   S2        1.0  0.7308454554820888  0.7308455121176445  0.2691544072892054  1.0000
  S   S3        1.0  0.7308455310168515  0.2691544766868131  0.269154514068856  1.0000
  S   S4        1.0  0.2691545730082222  0.7308454725447049  0.730845528916337  1.0000
  S   S5        1.0  0.2691545906697986  0.7308455401661781  0.2691543955046006  1.0000
  S   S6        1.0  0.7308454350655246  0.26915436775420254  0.7308455984238208  1.0000
