data_image0
_chemical_formula_structural       Mn2BS6
_chemical_formula_sum              "Mn2 B1 S6"
_cell_length_a       6.14909841171825
_cell_length_b       6.149099141282805
_cell_length_c       6.1490986600205675
_cell_angle_alpha    59.999999875449106
_cell_angle_beta     59.999999918275556
_cell_angle_gamma    59.999999481544876

_space_group_name_H-M_alt    "P 1"
_space_group_IT_number       1

loop_
  _space_group_symop_operation_xyz
  'x, y, z'

loop_
  _atom_site_type_symbol
  _atom_site_label
  _atom_site_symmetry_multiplicity
  _atom_site_fract_x
  _atom_site_fract_y
  _atom_site_fract_z
  _atom_site_occupancy
  Mn  Mn1       1.0  0.24999999098144735  0.25000014040528445  0.25000002587016973  1.0000
  Mn  Mn2       1.0  0.750000083915979  0.7499999192956445  0.7500004828716504  1.0000
  B   B1        1.0  0.9999999939303902  0.9999999900412694  0.999999915317658  1.0000
  S   S1        1.0  0.23071366836702767  0.23071371606136173  0.7692863280052007  1.0000
  S   S2        1.0  0.769286381796311  0.76928632770562  0.23071345136726487  1.0000
  S   S3        1.0  0.7692861997717224  0.23071376272338237  0.23071362316278257  1.0000
  S   S4        1.0  0.2307135079222505  0.7692863507547478  0.7692862795787504  1.0000
  S   S5        1.0  0.23071384483800828  0.7692862941878033  0.2307135561521346  1.0000
  S   S6        1.0  0.7692863284132861  0.23071349861907295  0.7692863652166332  1.0000
