data_image0
_chemical_formula_structural       Mn2BO6
_chemical_formula_sum              "Mn2 B1 O6"
_cell_length_a       4.982969775588781
_cell_length_b       4.982969987715623
_cell_length_c       4.982969992612543
_cell_angle_alpha    60.000000428695664
_cell_angle_beta     59.99999992998673
_cell_angle_gamma    60.00000122749468

_space_group_name_H-M_alt    "P 1"
_space_group_IT_number       1

loop_
  _space_group_symop_operation_xyz
  'x, y, z'

loop_
  _atom_site_type_symbol
  _atom_site_label
  _atom_site_symmetry_multiplicity
  _atom_site_fract_x
  _atom_site_fract_y
  _atom_site_fract_z
  _atom_site_occupancy
  Mn  Mn1       1.0  0.25000007101506305  0.24999991462872492  0.25000006355826915  1.0000
  Mn  Mn2       1.0  0.750000085589891  0.7499999872144327  0.7499999802188455  1.0000
  B   B1        1.0  2.0843935491154006e-09  0.9999999311798865  9.959342411489883e-08  1.0000
  O   O1        1.0  0.22522925836848026  0.22522940754870896  0.7747706897036958  1.0000
  O   O2        1.0  0.7747705682408703  0.7747707056705104  0.22522931304142282  1.0000
  O   O3        1.0  0.7747706718109963  0.22522933333954087  0.22522923606405995  1.0000
  O   O4        1.0  0.22522934334256173  0.7747707356381776  0.7747706363314839  1.0000
  O   O5        1.0  0.22522934809865647  0.7747706151761893  0.22522930138862512  1.0000
  O   O6        1.0  0.7747705950100077  0.22522934319777507  0.7747707345773118  1.0000
