data_image0
_chemical_formula_structural       Mn2BSe6
_chemical_formula_sum              "Mn2 B1 Se6"
_cell_length_a       6.375655814030698
_cell_length_b       6.375655335698771
_cell_length_c       6.375656105073502
_cell_angle_alpha    59.99999984196966
_cell_angle_beta     59.9999947406263
_cell_angle_gamma    60.000001742900565

_space_group_name_H-M_alt    "P 1"
_space_group_IT_number       1

loop_
  _space_group_symop_operation_xyz
  'x, y, z'

loop_
  _atom_site_type_symbol
  _atom_site_label
  _atom_site_symmetry_multiplicity
  _atom_site_fract_x
  _atom_site_fract_y
  _atom_site_fract_z
  _atom_site_occupancy
  Mn  Mn1       1.0  0.24999946640509682  0.25000045315076236  0.25000045405892707  1.0000
  Mn  Mn2       1.0  0.7500005346137548  0.7499997074173022  0.749999785730344  1.0000
  B   B1        1.0  0.999999999893359  0.9999998155867966  2.0205253872238562e-07  1.0000
  Se  Se1       1.0  0.23685706765488784  0.23685745949756037  0.7631426040281638  1.0000
  Se  Se2       1.0  0.7631430302160204  0.7631424974475692  0.23685734251554572  1.0000
  Se  Se3       1.0  0.7631427161173083  0.23685727958051797  0.23685729000714872  1.0000
  Se  Se4       1.0  0.23685699739358088  0.7631428252793488  0.763142643008071  1.0000
  Se  Se5       1.0  0.2368571147970567  0.7631427065854329  0.23685737752516026  1.0000
  Se  Se6       1.0  0.763143077141655  0.23685725612260156  0.7631423073602789  1.0000
