data_image0
_chemical_formula_structural       Mn2BiO6
_chemical_formula_sum              "Mn2 Bi1 O6"
_cell_length_a       5.537342073519832
_cell_length_b       5.537342057888391
_cell_length_c       5.537341900127018
_cell_angle_alpha    60.00000133228003
_cell_angle_beta     60.00000196393769
_cell_angle_gamma    60.00000240114471

_space_group_name_H-M_alt    "P 1"
_space_group_IT_number       1

loop_
  _space_group_symop_operation_xyz
  'x, y, z'

loop_
  _atom_site_type_symbol
  _atom_site_label
  _atom_site_symmetry_multiplicity
  _atom_site_fract_x
  _atom_site_fract_y
  _atom_site_fract_z
  _atom_site_occupancy
  Mn  Mn1       1.0  0.2500000424690707  0.2500000102154009  0.24999994543569554  1.0000
  Mn  Mn2       1.0  0.7499998222562102  0.750000176624465  0.7499998833868832  1.0000
  Bi  Bi1       1.0  0.9999999742608694  0.9999999646113286  3.475091177671148e-09  1.0000
  O   O1        1.0  0.25781658976192046  0.2578163751152309  0.7421835363596769  1.0000
  O   O2        1.0  0.7421834966627829  0.7421835219798958  0.25781647457105344  1.0000
  O   O3        1.0  0.7421835016363577  0.2578164470221241  0.25781653921053227  1.0000
  O   O4        1.0  0.25781659323432793  0.7421834810380897  0.7421835386988539  1.0000
  O   O5        1.0  0.25781648077402997  0.7421834982906433  0.257816527454783  1.0000
  O   O6        1.0  0.7421834942010451  0.2578165204530377  0.7421835307481821  1.0000
