data_image0
_chemical_formula_structural       Mn2CrSe6
_chemical_formula_sum              "Mn2 Cr1 Se6"
_cell_length_a       6.4855112803810995
_cell_length_b       6.485511469582737
_cell_length_c       6.485511575228998
_cell_angle_alpha    59.99999980596692
_cell_angle_beta     60.00000006579507
_cell_angle_gamma    59.99999981504163

_space_group_name_H-M_alt    "P 1"
_space_group_IT_number       1

loop_
  _space_group_symop_operation_xyz
  'x, y, z'

loop_
  _atom_site_type_symbol
  _atom_site_label
  _atom_site_symmetry_multiplicity
  _atom_site_fract_x
  _atom_site_fract_y
  _atom_site_fract_z
  _atom_site_occupancy
  Mn  Mn1       1.0  0.24999970145588066  0.25000014954524846  0.2499998364064222  1.0000
  Mn  Mn2       1.0  0.7499996179248567  0.7500003447719689  0.7500002171764132  1.0000
  Cr  Cr1       1.0  1.456428052186507e-09  1.6995889743661433e-08  3.548889511677259e-08  1.0000
  Se  Se1       1.0  0.2616471907877789  0.2616467915886117  0.7383530626739354  1.0000
  Se  Se2       1.0  0.7383531513661408  0.7383528510456746  0.26164686219062877  1.0000
  Se  Se3       1.0  0.7383532169365895  0.26164695511065283  0.2616469966977338  1.0000
  Se  Se4       1.0  0.26164713253335115  0.7383528952511756  0.7383530025890621  1.0000
  Se  Se5       1.0  0.2616470604651369  0.7383530888353823  0.2616469234795624  1.0000
  Se  Se6       1.0  0.7383529241397969  0.26164691071259294  0.7383530541271929  1.0000
