data_image0
_chemical_formula_structural       Mn2CoTe6
_chemical_formula_sum              "Mn2 Co1 Te6"
_cell_length_a       7.005784265317627
_cell_length_b       7.005784012849047
_cell_length_c       7.005784022881211
_cell_angle_alpha    59.99999950332554
_cell_angle_beta     60.00000001880113
_cell_angle_gamma    60.00000035634882

_space_group_name_H-M_alt    "P 1"
_space_group_IT_number       1

loop_
  _space_group_symop_operation_xyz
  'x, y, z'

loop_
  _atom_site_type_symbol
  _atom_site_label
  _atom_site_symmetry_multiplicity
  _atom_site_fract_x
  _atom_site_fract_y
  _atom_site_fract_z
  _atom_site_occupancy
  Mn  Mn1       1.0  0.25000009249771465  0.249999849964869  0.25000008268255136  1.0000
  Mn  Mn2       1.0  0.7500000018474956  0.7500002334372969  0.7499997043798396  1.0000
  Co  Co1       1.0  0.9999999357026473  2.9719246711816004e-08  0.9999999673303338  1.0000
  Te  Te1       1.0  0.24844554483298636  0.24844540001534027  0.7515545470451475  1.0000
  Te  Te2       1.0  0.7515544611259065  0.7515546222001381  0.24844559457257706  1.0000
  Te  Te3       1.0  0.7515544820728439  0.24844527594238952  0.24844556580791083  1.0000
  Te  Te4       1.0  0.24844543843054212  0.751554646626199  0.7515545013561502  1.0000
  Te  Te5       1.0  0.2484453852794161  0.7515545858615356  0.2484455032121105  1.0000
  Te  Te6       1.0  0.751554640892232  0.24844535593715592  0.7515545400423509  1.0000
