data_image0
_chemical_formula_structural       Mn2CO6
_chemical_formula_sum              "Mn2 C1 O6"
_cell_length_a       4.75956676041558
_cell_length_b       4.7595668266115565
_cell_length_c       4.759567248079103
_cell_angle_alpha    59.99999912426467
_cell_angle_beta     59.99999860386262
_cell_angle_gamma    59.999997188908765

_space_group_name_H-M_alt    "P 1"
_space_group_IT_number       1

loop_
  _space_group_symop_operation_xyz
  'x, y, z'

loop_
  _atom_site_type_symbol
  _atom_site_label
  _atom_site_symmetry_multiplicity
  _atom_site_fract_x
  _atom_site_fract_y
  _atom_site_fract_z
  _atom_site_occupancy
  Mn  Mn1       1.0  0.24999996803811744  0.24999999466935047  0.25000002334230015  1.0000
  Mn  Mn2       1.0  0.7499999584926315  0.749999973715139  0.7500000290749356  1.0000
  C   C1        1.0  0.9999999823069866  0.9999999948535452  1.3520765097455505e-08  1.0000
  O   O1        1.0  0.21855360795457326  0.2185535430935903  0.7814464063511862  1.0000
  O   O2        1.0  0.781446411990032  0.7814465307932297  0.21855352769867695  1.0000
  O   O3        1.0  0.7814464866471467  0.21855360845119107  0.2185534687501964  1.0000
  O   O4        1.0  0.21855352489244834  0.7814464397033527  0.7814464823683095  1.0000
  O   O5        1.0  0.2185535076698157  0.7814464720108283  0.21855353511981296  1.0000
  O   O6        1.0  0.781446545112839  0.21855357614371432  0.781446393276133  1.0000
