data_image0
_chemical_formula_structural       Mn2CrO6
_chemical_formula_sum              "Mn2 Cr1 O6"
_cell_length_a       5.263978754370762
_cell_length_b       5.263978863959506
_cell_length_c       5.263978819085675
_cell_angle_alpha    60.000001568425375
_cell_angle_beta     60.00000149940404
_cell_angle_gamma    59.99999976726143

_space_group_name_H-M_alt    "P 1"
_space_group_IT_number       1

loop_
  _space_group_symop_operation_xyz
  'x, y, z'

loop_
  _atom_site_type_symbol
  _atom_site_label
  _atom_site_symmetry_multiplicity
  _atom_site_fract_x
  _atom_site_fract_y
  _atom_site_fract_z
  _atom_site_occupancy
  Mn  Mn1       1.0  0.24999979020048166  0.2500001272169475  0.250000028412948  1.0000
  Mn  Mn2       1.0  0.7500000078602314  0.7499997860278415  0.7500001879016948  1.0000
  Cr  Cr1       1.0  3.124249872959309e-08  0.9999999720801719  7.837183362049119e-09  1.0000
  O   O1        1.0  0.24727096238708263  0.24727105621511172  0.7527289816409783  1.0000
  O   O2        1.0  0.7527290545648351  0.7527289966288109  0.24727094904509314  1.0000
  O   O3        1.0  0.7527290144715483  0.24727108467078063  0.24727087512766768  1.0000
  O   O4        1.0  0.247271019983419  0.7527290472793197  0.7527289825576432  1.0000
  O   O5        1.0  0.24727104794670512  0.7527289737491235  0.2472709399793999  1.0000
  O   O6        1.0  0.7527290708645765  0.2472709906820096  0.7527289877827924  1.0000
