data_image0
_chemical_formula_structural       Mn2CrTe6
_chemical_formula_sum              "Mn2 Cr1 Te6"
_cell_length_a       7.1177492069138255
_cell_length_b       7.117749179347924
_cell_length_c       7.117749141444122
_cell_angle_alpha    60.00000000098771
_cell_angle_beta     59.999999543965245
_cell_angle_gamma    60.00000092957314

_space_group_name_H-M_alt    "P 1"
_space_group_IT_number       1

loop_
  _space_group_symop_operation_xyz
  'x, y, z'

loop_
  _atom_site_type_symbol
  _atom_site_label
  _atom_site_symmetry_multiplicity
  _atom_site_fract_x
  _atom_site_fract_y
  _atom_site_fract_z
  _atom_site_occupancy
  Mn  Mn1       1.0  0.2499999770150711  0.2500002111220177  0.24999994199588665  1.0000
  Mn  Mn2       1.0  0.7499999463939541  0.7499999984309856  0.7500000697487131  1.0000
  Cr  Cr1       1.0  3.916538052201396e-09  0.9999999931172351  1.5532498688995105e-08  1.0000
  Te  Te1       1.0  0.25931371609510234  0.2593136715441528  0.7406862732355242  1.0000
  Te  Te2       1.0  0.7406863684655521  0.7406862540947978  0.2593136411322334  1.0000
  Te  Te3       1.0  0.7406862928265374  0.25931370125454445  0.2593136932656255  1.0000
  Te  Te4       1.0  0.2593137070801631  0.7406862398706262  0.7406863582465117  1.0000
  Te  Te5       1.0  0.2593137283957378  0.7406862015883288  0.25931369653418845  1.0000
  Te  Te6       1.0  0.7406862635963626  0.2593137292126945  0.7406863078997816  1.0000
