data_image0
_chemical_formula_structural       Mn2CoSe6
_chemical_formula_sum              "Mn2 Co1 Se6"
_cell_length_a       6.454904518620446
_cell_length_b       6.454904480049284
_cell_length_c       6.454904552469107
_cell_angle_alpha    60.00000097347346
_cell_angle_beta     60.0000004067056
_cell_angle_gamma    60.000002604029476

_space_group_name_H-M_alt    "P 1"
_space_group_IT_number       1

loop_
  _space_group_symop_operation_xyz
  'x, y, z'

loop_
  _atom_site_type_symbol
  _atom_site_label
  _atom_site_symmetry_multiplicity
  _atom_site_fract_x
  _atom_site_fract_y
  _atom_site_fract_z
  _atom_site_occupancy
  Mn  Mn1       1.0  0.2499998285951112  0.2499997995142132  0.2500003187497041  1.0000
  Mn  Mn2       1.0  0.7499999028837457  0.7500003529280447  0.7499998894016573  1.0000
  Co  Co1       1.0  2.5044223618656547e-08  0.999999999999999  0.999999863541122  1.0000
  Se  Se1       1.0  0.25245399172066063  0.2524538212622292  0.7475460425760255  1.0000
  Se  Se2       1.0  0.7475460414484822  0.7475461452361583  0.252453904755672  1.0000
  Se  Se3       1.0  0.7475461526721592  0.25245377885974474  0.25245397654043333  1.0000
  Se  Se4       1.0  0.2524538729973346  0.7475462369706924  0.7475460598689448  1.0000
  Se  Se5       1.0  0.2524539453493866  0.7475461185637086  0.25245387293064586  1.0000
  Se  Se6       1.0  0.747546242983621  0.25245374737319926  0.7475460548459064  1.0000
