data_image0
_chemical_formula_structural       Mn2CS6
_chemical_formula_sum              "Mn2 C1 S6"
_cell_length_a       3.6070085368248437
_cell_length_b       5.362174395526842
_cell_length_c       3.703306423188056
_cell_angle_alpha    83.6846521573624
_cell_angle_beta     42.0532861790737
_cell_angle_gamma    76.80143130844046

_space_group_name_H-M_alt    "P 1"
_space_group_IT_number       1

loop_
  _space_group_symop_operation_xyz
  'x, y, z'

loop_
  _atom_site_type_symbol
  _atom_site_label
  _atom_site_symmetry_multiplicity
  _atom_site_fract_x
  _atom_site_fract_y
  _atom_site_fract_z
  _atom_site_occupancy
  Mn  Mn1       1.0  0.4824997992500243  0.9662119059059296  0.04757292077320559  1.0000
  Mn  Mn2       1.0  0.08255605769855201  0.8396177293659625  0.6005519465034496  1.0000
  C   C1        1.0  0.28825659663365505  0.9585993174266944  0.6540785231392916  1.0000
  S   S1        1.0  0.9282444087171335  0.7588318253874438  0.1857796891579162  1.0000
  S   S2        1.0  0.16729775985674777  0.7952922733159333  0.7813489715855884  1.0000
  S   S3        1.0  0.04339885089353168  0.9170029851794805  0.08637276850487703  1.0000
  S   S4        1.0  0.6112654293624056  0.8488130377825566  0.4115287719338628  1.0000
  S   S5        1.0  0.5504328964400065  0.8556081836575192  0.6590848154085147  1.0000
  S   S6        1.0  0.32118377744333415  0.04002079314111456  0.6045095590445335  1.0000
