data_image0
_chemical_formula_structural       Mn2FeSe6
_chemical_formula_sum              "Mn2 Fe1 Se6"
_cell_length_a       6.547980836937837
_cell_length_b       6.547980844732352
_cell_length_c       6.547980500975086
_cell_angle_alpha    59.99999983549193
_cell_angle_beta     60.000000438332926
_cell_angle_gamma    59.999999068054564

_space_group_name_H-M_alt    "P 1"
_space_group_IT_number       1

loop_
  _space_group_symop_operation_xyz
  'x, y, z'

loop_
  _atom_site_type_symbol
  _atom_site_label
  _atom_site_symmetry_multiplicity
  _atom_site_fract_x
  _atom_site_fract_y
  _atom_site_fract_z
  _atom_site_occupancy
  Mn  Mn1       1.0  0.24999982995436848  0.25000010954847807  0.2500001326339769  1.0000
  Mn  Mn2       1.0  0.750000145605171  0.749999879745565  0.7500002135398464  1.0000
  Fe  Fe1       1.0  0.9999999997860584  1.1222497235098727e-08  0.9999999563160116  1.0000
  Se  Se1       1.0  0.24673986063786435  0.24673991916574425  0.7532601346003875  1.0000
  Se  Se2       1.0  0.7532602354961305  0.75326000466374  0.24673982971077396  1.0000
  Se  Se3       1.0  0.7532601357376846  0.24674001526928604  0.2467396924495514  1.0000
  Se  Se4       1.0  0.24673975690007502  0.7532602227901071  0.7532600897381316  1.0000
  Se  Se5       1.0  0.2467398076783136  0.7532600685707123  0.24673989456639106  1.0000
  Se  Se6       1.0  0.7532602228353867  0.24673978231254595  0.7532600733589302  1.0000
