data_image0
_chemical_formula_structural       Mn2GeO6
_chemical_formula_sum              "Mn2 Ge1 O6"
_cell_length_a       5.191585772940724
_cell_length_b       5.1915857578069335
_cell_length_c       5.191585432390552
_cell_angle_alpha    60.00000300606955
_cell_angle_beta     60.000001818123344
_cell_angle_gamma    59.99999859356517

_space_group_name_H-M_alt    "P 1"
_space_group_IT_number       1

loop_
  _space_group_symop_operation_xyz
  'x, y, z'

loop_
  _atom_site_type_symbol
  _atom_site_label
  _atom_site_symmetry_multiplicity
  _atom_site_fract_x
  _atom_site_fract_y
  _atom_site_fract_z
  _atom_site_occupancy
  Mn  Mn1       1.0  0.25000015403574993  0.2499999295506584  0.24999996196317992  1.0000
  Mn  Mn2       1.0  0.7500000458005762  0.750000003329714  0.7500000155969179  1.0000
  Ge  Ge1       1.0  7.04104461194662e-08  0.9999999622544637  0.9999999875199324  1.0000
  O   O1        1.0  0.25327813005792316  0.25327832607954326  0.7467217879920688  1.0000
  O   O2        1.0  0.7467217000676761  0.7467217884512235  0.25327827781961587  1.0000
  O   O3        1.0  0.7467216947124862  0.2532782393882289  0.2532782732655186  1.0000
  O   O4        1.0  0.2532782040272899  0.7467217760605086  0.7467217538466631  1.0000
  O   O5        1.0  0.2532782850405586  0.7467217984970267  0.2532781628867044  1.0000
  O   O6        1.0  0.7467217402306147  0.25327819100165083  0.7467217368870536  1.0000
