data_image0
_chemical_formula_structural       Mn2GeSe6
_chemical_formula_sum              "Mn2 Ge1 Se6"
_cell_length_a       6.6545110183141825
_cell_length_b       6.654511029226727
_cell_length_c       6.654510890523659
_cell_angle_alpha    60.00000112904702
_cell_angle_beta     60.00000150628492
_cell_angle_gamma    60.00000053167675

_space_group_name_H-M_alt    "P 1"
_space_group_IT_number       1

loop_
  _space_group_symop_operation_xyz
  'x, y, z'

loop_
  _atom_site_type_symbol
  _atom_site_label
  _atom_site_symmetry_multiplicity
  _atom_site_fract_x
  _atom_site_fract_y
  _atom_site_fract_z
  _atom_site_occupancy
  Mn  Mn1       1.0  0.24999977526947303  0.2500004491744542  0.24999996159502816  1.0000
  Mn  Mn2       1.0  0.7500001797120706  0.7500001548967851  0.7499994019573696  1.0000
  Ge  Ge1       1.0  0.9999999825425949  5.5214194117514e-09  2.249813326631347e-08  1.0000
  Se  Se1       1.0  0.2608326378531842  0.2608326612031011  0.739167310899924  1.0000
  Se  Se2       1.0  0.7391676218378549  0.739167190114637  0.2608327725786911  1.0000
  Se  Se3       1.0  0.7391673585152682  0.26083238856251967  0.26083285503255427  1.0000
  Se  Se4       1.0  0.2608326590036837  0.7391672106104036  0.7391675086647906  1.0000
  Se  Se5       1.0  0.2608324044672438  0.739167248451267  0.26083284495098763  1.0000
  Se  Se6       1.0  0.7391673864691939  0.26083267648539676  0.7391673188817388  1.0000
