data_image0
_chemical_formula_structural       Mn2GaS6
_chemical_formula_sum              "Mn2 Ga1 S6"
_cell_length_a       6.1754625756175425
_cell_length_b       6.1754626601221565
_cell_length_c       6.175462300917706
_cell_angle_alpha    60.00000410530763
_cell_angle_beta     60.00000319164774
_cell_angle_gamma    60.0000026868564

_space_group_name_H-M_alt    "P 1"
_space_group_IT_number       1

loop_
  _space_group_symop_operation_xyz
  'x, y, z'

loop_
  _atom_site_type_symbol
  _atom_site_label
  _atom_site_symmetry_multiplicity
  _atom_site_fract_x
  _atom_site_fract_y
  _atom_site_fract_z
  _atom_site_occupancy
  Mn  Mn1       1.0  0.2499997927814352  0.24999978424409156  0.25000027545997394  1.0000
  Mn  Mn2       1.0  0.7499999492288318  0.7500002372590148  0.7499998541582039  1.0000
  Ga  Ga1       1.0  0.9999999730674716  0.9999999742178302  1.6641476540838917e-08  1.0000
  S   S1        1.0  0.26371528003035277  0.2637151817540351  0.736284784831275  1.0000
  S   S2        1.0  0.7362847626807056  0.7362848575982667  0.2637152600002642  1.0000
  S   S3        1.0  0.73628487630291  0.2637151192687227  0.26371531713977736  1.0000
  S   S4        1.0  0.2637152119449146  0.7362849181003333  0.736284603898348  1.0000
  S   S5        1.0  0.2637152054353329  0.7362848737887783  0.2637152688634117  1.0000
  S   S6        1.0  0.7362849497501668  0.2637150525186223  0.7362846127028483  1.0000
