data_image0
_chemical_formula_structural       Mn2GaTe6
_chemical_formula_sum              "Mn2 Ga1 Te6"
_cell_length_a       7.260706882515704
_cell_length_b       7.260706909865673
_cell_length_c       7.2607068565904385
_cell_angle_alpha    59.99999928787801
_cell_angle_beta     59.999998986564016
_cell_angle_gamma    59.99999931932904

_space_group_name_H-M_alt    "P 1"
_space_group_IT_number       1

loop_
  _space_group_symop_operation_xyz
  'x, y, z'

loop_
  _atom_site_type_symbol
  _atom_site_label
  _atom_site_symmetry_multiplicity
  _atom_site_fract_x
  _atom_site_fract_y
  _atom_site_fract_z
  _atom_site_occupancy
  Mn  Mn1       1.0  0.25000007729548374  0.2499999520550977  0.24999993341285018  1.0000
  Mn  Mn2       1.0  0.7499999846750799  0.749999948939964  0.7499997714066216  1.0000
  Ga  Ga1       1.0  1.6931488298229932e-08  1.6868117344993356e-09  5.129101020921162e-08  1.0000
  Te  Te1       1.0  0.26600795555779744  0.2660080307316901  0.7339919879804129  1.0000
  Te  Te2       1.0  0.7339920167885124  0.7339920389445865  0.2660080698343437  1.0000
  Te  Te3       1.0  0.7339919980025416  0.2660079180910014  0.2660080505866653  1.0000
  Te  Te4       1.0  0.266008109798519  0.7339919980853673  0.7339920093642883  1.0000
  Te  Te5       1.0  0.2660079068862836  0.7339920264521389  0.26600806049379405  1.0000
  Te  Te6       1.0  0.7339919331556952  0.26600808708125423  0.7339920704673747  1.0000
