data_image0
_chemical_formula_structural       Mn2GaSe6
_chemical_formula_sum              "Mn2 Ga1 Se6"
_cell_length_a       6.525506536551975
_cell_length_b       6.5255065729805874
_cell_length_c       6.525506737375579
_cell_angle_alpha    60.00000053018677
_cell_angle_beta     59.999999001745415
_cell_angle_gamma    60.00000217880712

_space_group_name_H-M_alt    "P 1"
_space_group_IT_number       1

loop_
  _space_group_symop_operation_xyz
  'x, y, z'

loop_
  _atom_site_type_symbol
  _atom_site_label
  _atom_site_symmetry_multiplicity
  _atom_site_fract_x
  _atom_site_fract_y
  _atom_site_fract_z
  _atom_site_occupancy
  Mn  Mn1       1.0  0.2499994758369484  0.24999990033230077  0.25000008026554993  1.0000
  Mn  Mn2       1.0  0.7500000004471651  0.7499999881562135  0.750000489201379  1.0000
  Ga  Ga1       1.0  0.9999999621255655  0.9999999756008476  1.016294029650126e-07  1.0000
  Se  Se1       1.0  0.2732296246029701  0.27322964919901094  0.726770488953523  1.0000
  Se  Se2       1.0  0.726770424431656  0.7267703312555474  0.27322938036759953  1.0000
  Se  Se3       1.0  0.7267706674804532  0.273229689714031  0.2732294635058876  1.0000
  Se  Se4       1.0  0.27322952484835106  0.7267703545536995  0.7267703359754168  1.0000
  Se  Se5       1.0  0.273229754615325  0.7267705408933262  0.2732295081494568  1.0000
  Se  Se6       1.0  0.7267705585221954  0.2732295709412907  0.7267701573003982  1.0000
