data_image0
_chemical_formula_structural       Mn2GaO6
_chemical_formula_sum              "Mn2 Ga1 O6"
_cell_length_a       5.194133472955619
_cell_length_b       5.194133442983299
_cell_length_c       5.194133548908622
_cell_angle_alpha    59.99999952542051
_cell_angle_beta     59.9999998290521
_cell_angle_gamma    59.99999895833615

_space_group_name_H-M_alt    "P 1"
_space_group_IT_number       1

loop_
  _space_group_symop_operation_xyz
  'x, y, z'

loop_
  _atom_site_type_symbol
  _atom_site_label
  _atom_site_symmetry_multiplicity
  _atom_site_fract_x
  _atom_site_fract_y
  _atom_site_fract_z
  _atom_site_occupancy
  Mn  Mn1       1.0  0.24999995674925043  0.24999995138421172  0.25000011342827966  1.0000
  Mn  Mn2       1.0  0.750000023232154  0.7500001088100249  0.7499997937696358  1.0000
  Ga  Ga1       1.0  1.0329450448705128e-08  2.3579387447261957e-09  9.058296782991189e-09  1.0000
  O   O1        1.0  0.25589027292601746  0.2558902221415747  0.7441097401912709  1.0000
  O   O2        1.0  0.744109718328808  0.7441097908938858  0.2558904044276988  1.0000
  O   O3        1.0  0.7441098001890976  0.25589014265656684  0.2558902774850307  1.0000
  O   O4        1.0  0.255890261083354  0.7441097737034018  0.7441097418449498  1.0000
  O   O5        1.0  0.2558901726395352  0.7441097543098643  0.25589022533444  1.0000
  O   O6        1.0  0.7441097872455174  0.2558902327882694  0.7441097207587072  1.0000
