data_image0
_chemical_formula_structural       Mn2GaTe6
_chemical_formula_sum              "Mn2 Ga1 Te6"
_cell_length_a       7.260706995249526
_cell_length_b       7.26070711439789
_cell_length_c       7.260706985120799
_cell_angle_alpha    59.99999935109973
_cell_angle_beta     59.99999952832769
_cell_angle_gamma    59.999999423822516

_space_group_name_H-M_alt    "P 1"
_space_group_IT_number       1

loop_
  _space_group_symop_operation_xyz
  'x, y, z'

loop_
  _atom_site_type_symbol
  _atom_site_label
  _atom_site_symmetry_multiplicity
  _atom_site_fract_x
  _atom_site_fract_y
  _atom_site_fract_z
  _atom_site_occupancy
  Mn  Mn1       1.0  0.25000002806213967  0.25000000045552895  0.24999996003492178  1.0000
  Mn  Mn2       1.0  0.7499999787112481  0.7499999170259831  0.7499998000985575  1.0000
  Ga  Ga1       1.0  3.360666915038156e-08  0.9999999612033204  5.493150670947009e-08  1.0000
  Te  Te1       1.0  0.2660079437081366  0.2660080606827263  0.7339919563832409  1.0000
  Te  Te2       1.0  0.7339920308862462  0.7339920153591216  0.2660080697286188  1.0000
  Te  Te3       1.0  0.7339920032075274  0.26600793463922756  0.26600804689008173  1.0000
  Te  Te4       1.0  0.2660081085284152  0.7339919828422797  0.73399201609942  1.0000
  Te  Te5       1.0  0.26600794235689107  0.7339920306640847  0.26600802813352203  1.0000
  Te  Te6       1.0  0.7339919316435283  0.2660080942953147  0.7339920747757686  1.0000
