data_image0
_chemical_formula_structural       Mn2HfS6
_chemical_formula_sum              "Mn2 Hf1 S6"
_cell_length_a       6.2940654409719565
_cell_length_b       6.294065445577778
_cell_length_c       6.294065333931942
_cell_angle_alpha    59.999999400104954
_cell_angle_beta     60.0000000776548
_cell_angle_gamma    59.99999831969685

_space_group_name_H-M_alt    "P 1"
_space_group_IT_number       1

loop_
  _space_group_symop_operation_xyz
  'x, y, z'

loop_
  _atom_site_type_symbol
  _atom_site_label
  _atom_site_symmetry_multiplicity
  _atom_site_fract_x
  _atom_site_fract_y
  _atom_site_fract_z
  _atom_site_occupancy
  Mn  Mn1       1.0  0.25000012773702107  0.2500001218366769  0.2499998471161678  1.0000
  Mn  Mn2       1.0  0.7499998030623399  0.7499999704979209  0.7500001671543736  1.0000
  Hf  Hf1       1.0  2.6018065695240897e-08  0.9999999824871472  0.9999999925697971  1.0000
  S   S1        1.0  0.27171652297523907  0.27171640692694204  0.7282835198700156  1.0000
  S   S2        1.0  0.7282835537421926  0.7282834733075517  0.2717164496404295  1.0000
  S   S3        1.0  0.7282835037854102  0.27171644316891325  0.27171649913043866  1.0000
  S   S4        1.0  0.27171655884667345  0.728283534359205  0.7282834812062098  1.0000
  S   S5        1.0  0.27171648937232135  0.7282835513397666  0.2717164641293261  1.0000
  S   S6        1.0  0.7282834194310998  0.27171650791499885  0.7282835856230931  1.0000
