data_image0
_chemical_formula_structural       Mn2HfSe6
_chemical_formula_sum              "Mn2 Hf1 Se6"
_cell_length_a       6.749002230137102
_cell_length_b       6.7490018906249185
_cell_length_c       6.749002032067837
_cell_angle_alpha    60.000002067306205
_cell_angle_beta     60.000001003021154
_cell_angle_gamma    59.99999979406627

_space_group_name_H-M_alt    "P 1"
_space_group_IT_number       1

loop_
  _space_group_symop_operation_xyz
  'x, y, z'

loop_
  _atom_site_type_symbol
  _atom_site_label
  _atom_site_symmetry_multiplicity
  _atom_site_fract_x
  _atom_site_fract_y
  _atom_site_fract_z
  _atom_site_occupancy
  Mn  Mn1       1.0  0.25000009606889956  0.25000007910870725  0.24999989604994682  1.0000
  Mn  Mn2       1.0  0.7499997094028114  0.7499999052350849  0.7500002547248366  1.0000
  Hf  Hf1       1.0  0.9999999964565676  3.6294101946970755e-08  0.9999999436187512  1.0000
  Se  Se1       1.0  0.26935114288530515  0.2693510850714499  0.7306488854734632  1.0000
  Se  Se2       1.0  0.7306488379127541  0.7306488865694025  0.2693511128679894  1.0000
  Se  Se3       1.0  0.7306488917651768  0.269351174684851  0.26935099000101376  1.0000
  Se  Se4       1.0  0.2693511666795624  0.7306488822471461  0.7306490113284595  1.0000
  Se  Se5       1.0  0.2693512589953011  0.7306488460906783  0.2693509890850681  1.0000
  Se  Se6       1.0  0.7306488984426941  0.2693511037737107  0.7306489125625406  1.0000
