data_image0
_chemical_formula_structural       Mn2IrS6
_chemical_formula_sum              "Mn2 Ir1 S6"
_cell_length_a       6.14367683274926
_cell_length_b       6.1436768811393545
_cell_length_c       6.143676780037145
_cell_angle_alpha    60.000000220054964
_cell_angle_beta     59.99999982854525
_cell_angle_gamma    59.999999776239605

_space_group_name_H-M_alt    "P 1"
_space_group_IT_number       1

loop_
  _space_group_symop_operation_xyz
  'x, y, z'

loop_
  _atom_site_type_symbol
  _atom_site_label
  _atom_site_symmetry_multiplicity
  _atom_site_fract_x
  _atom_site_fract_y
  _atom_site_fract_z
  _atom_site_occupancy
  Mn  Mn1       1.0  0.24999992440129665  0.25000009058258627  0.25000006427813676  1.0000
  Mn  Mn2       1.0  0.749999865491365  0.7500001302089256  0.7499999993496569  1.0000
  Ir  Ir1       1.0  1.0459331362860582e-08  7.575317823562489e-08  0.9999999617768144  1.0000
  S   S1        1.0  0.26738704504165617  0.2673869091637451  0.7326130424758411  1.0000
  S   S2        1.0  0.7326130414366601  0.7326130026345381  0.26738696875890655  1.0000
  S   S3        1.0  0.7326130053236346  0.26738689934802945  0.2673870439668186  1.0000
  S   S4        1.0  0.2673869874275497  0.7326129665996463  0.7326130338014195  1.0000
  S   S5        1.0  0.26738703856182805  0.7326129774772184  0.2673869594451603  1.0000
  S   S6        1.0  0.7326130701283883  0.26738695226260706  0.732612945445307  1.0000
