data_image0
_chemical_formula_structural       Mn2IrSe6
_chemical_formula_sum              "Mn2 Ir1 Se6"
_cell_length_a       6.655250196388668
_cell_length_b       6.655250121790019
_cell_length_c       6.655250249930251
_cell_angle_alpha    59.99999879291157
_cell_angle_beta     60.00000006298194
_cell_angle_gamma    60.00000012557407

_space_group_name_H-M_alt    "P 1"
_space_group_IT_number       1

loop_
  _space_group_symop_operation_xyz
  'x, y, z'

loop_
  _atom_site_type_symbol
  _atom_site_label
  _atom_site_symmetry_multiplicity
  _atom_site_fract_x
  _atom_site_fract_y
  _atom_site_fract_z
  _atom_site_occupancy
  Mn  Mn1       1.0  0.249999911009613  0.24999999383997384  0.25000012300493113  1.0000
  Mn  Mn2       1.0  0.7499999779646176  0.7499999962420771  0.7499998319885166  1.0000
  Ir  Ir1       1.0  0.9999999876443528  1.1041612266178286e-08  1.8687894571929366e-08  1.0000
  Se  Se1       1.0  0.2612120870890677  0.2612120575264973  0.7387879106985104  1.0000
  Se  Se2       1.0  0.7387879376378652  0.7387879104723284  0.26121220683587204  1.0000
  Se  Se3       1.0  0.7387879248485624  0.2612120569000834  0.2612120694522407  1.0000
  Se  Se4       1.0  0.2612121058531798  0.7387879920705686  0.7387878798952565  1.0000
  Se  Se5       1.0  0.261212067590332  0.7387878834949556  0.2612120875484613  1.0000
  Se  Se6       1.0  0.7387879968316121  0.26121209554548397  0.7387878708886026  1.0000
