data_image0
_chemical_formula_structural       Mn2IrO6
_chemical_formula_sum              "Mn2 Ir1 O6"
_cell_length_a       5.37834795521013
_cell_length_b       5.378347742809862
_cell_length_c       5.378348169544582
_cell_angle_alpha    59.99999988422726
_cell_angle_beta     59.99999888631749
_cell_angle_gamma    59.999999993325204

_space_group_name_H-M_alt    "P 1"
_space_group_IT_number       1

loop_
  _space_group_symop_operation_xyz
  'x, y, z'

loop_
  _atom_site_type_symbol
  _atom_site_label
  _atom_site_symmetry_multiplicity
  _atom_site_fract_x
  _atom_site_fract_y
  _atom_site_fract_z
  _atom_site_occupancy
  Mn  Mn1       1.0  0.24999999450638033  0.2500001406599714  0.24999985298745184  1.0000
  Mn  Mn2       1.0  0.7499999744627897  0.7499999210010232  0.7500000389561052  1.0000
  Ir  Ir1       1.0  6.547249817073038e-08  0.9999999066357601  3.207315119112651e-07  1.0000
  O   O1        1.0  0.24604363582988184  0.2460435438142553  0.7539564841025812  1.0000
  O   O2        1.0  0.7539564101055599  0.7539564222053201  0.24604363471745844  1.0000
  O   O3        1.0  0.7539565209359708  0.24604345310239636  0.24604354993179217  1.0000
  O   O4        1.0  0.24604378677775082  0.7539563330202076  0.7539562862376897  1.0000
  O   O5        1.0  0.24604348539268925  0.7539565899512451  0.24604355460680302  1.0000
  O   O6        1.0  0.7539561418403836  0.2460436789328322  0.7539562911755423  1.0000
