data_image0
_chemical_formula_structural       Mn2IrSe6
_chemical_formula_sum              "Mn2 Ir1 Se6"
_cell_length_a       6.655250361648631
_cell_length_b       6.655250279934015
_cell_length_c       6.655250062843673
_cell_angle_alpha    59.99999996569336
_cell_angle_beta     59.99999972687827
_cell_angle_gamma    59.99999878031875

_space_group_name_H-M_alt    "P 1"
_space_group_IT_number       1

loop_
  _space_group_symop_operation_xyz
  'x, y, z'

loop_
  _atom_site_type_symbol
  _atom_site_label
  _atom_site_symmetry_multiplicity
  _atom_site_fract_x
  _atom_site_fract_y
  _atom_site_fract_z
  _atom_site_occupancy
  Mn  Mn1       1.0  0.2499999542435115  0.24999990640701947  0.250000053517421  1.0000
  Mn  Mn2       1.0  0.7499999849786331  0.7500002841835499  0.7499994473139684  1.0000
  Ir  Ir1       1.0  2.867145650878148e-08  1.2881880550429722e-08  0.9999999852336235  1.0000
  Se  Se1       1.0  0.26120266290823446  0.2612025868525182  0.7387974005775886  1.0000
  Se  Se2       1.0  0.7387973650858457  0.7387972853715615  0.2612028491369454  1.0000
  Se  Se3       1.0  0.7387973735280109  0.2612024009285033  0.2612028387697587  1.0000
  Se  Se4       1.0  0.2612027139830513  0.7387974436915459  0.7387973003261914  1.0000
  Se  Se5       1.0  0.2612025377045498  0.7387974097407235  0.2612027515982206  1.0000
  Se  Se6       1.0  0.7387973863775493  0.2612026649129146  0.73879737973916  1.0000
