data_image0
_chemical_formula_structural       Mn2MoS6
_chemical_formula_sum              "Mn2 Mo1 S6"
_cell_length_a       6.299229428877287
_cell_length_b       6.29922929131895
_cell_length_c       6.299229302132926
_cell_angle_alpha    60.00000047633301
_cell_angle_beta     60.00000058804374
_cell_angle_gamma    60.000002102737966

_space_group_name_H-M_alt    "P 1"
_space_group_IT_number       1

loop_
  _space_group_symop_operation_xyz
  'x, y, z'

loop_
  _atom_site_type_symbol
  _atom_site_label
  _atom_site_symmetry_multiplicity
  _atom_site_fract_x
  _atom_site_fract_y
  _atom_site_fract_z
  _atom_site_occupancy
  Mn  Mn1       1.0  0.2499998020363779  0.250000062174253  0.25000006064866714  1.0000
  Mn  Mn2       1.0  0.7500000118046188  0.7500001456929499  0.7499998550632809  1.0000
  Mo  Mo1       1.0  0.9999999676716905  0.999999965003008  9.557498645588632e-08  1.0000
  S   S1        1.0  0.2601358334305155  0.2601357348661577  0.7398642179962177  1.0000
  S   S2        1.0  0.7398644069501172  0.7398641502510224  0.2601357061457623  1.0000
  S   S3        1.0  0.7398641876136053  0.260135719642014  0.26013587159921675  1.0000
  S   S4        1.0  0.2601358241495744  0.7398642024164298  0.7398642039432108  1.0000
  S   S5        1.0  0.26013581424377197  0.7398641507696465  0.2601358719217283  1.0000
  S   S6        1.0  0.7398641604860243  0.26013585489272023  0.739864096198153  1.0000
