data_image0
_chemical_formula_structural       Mn2MoO6
_chemical_formula_sum              "Mn2 Mo1 O6"
_cell_length_a       5.325663272876414
_cell_length_b       5.325663288836767
_cell_length_c       5.325663085067479
_cell_angle_alpha    60.00000289847163
_cell_angle_beta     60.00000222826494
_cell_angle_gamma    60.00000233241415

_space_group_name_H-M_alt    "P 1"
_space_group_IT_number       1

loop_
  _space_group_symop_operation_xyz
  'x, y, z'

loop_
  _atom_site_type_symbol
  _atom_site_label
  _atom_site_symmetry_multiplicity
  _atom_site_fract_x
  _atom_site_fract_y
  _atom_site_fract_z
  _atom_site_occupancy
  Mn  Mn1       1.0  0.2500000834681297  0.2499999989917585  0.24999995587440246  1.0000
  Mn  Mn2       1.0  0.7500000643127737  0.7500000153729068  0.7500000566214239  1.0000
  Mo  Mo1       1.0  3.701317467537804e-09  0.9999999954005924  4.4904507022842693e-10  1.0000
  O   O1        1.0  0.2540824556328007  0.2540826428940314  0.745917449326006  1.0000
  O   O2        1.0  0.7459174519609026  0.7459174220641148  0.2540824908513381  1.0000
  O   O3        1.0  0.7459174908159081  0.25408256831548376  0.25408251272521665  1.0000
  O   O4        1.0  0.25408245979199134  0.7459174391500673  0.7459174853892386  1.0000
  O   O5        1.0  0.25408259450939913  0.7459174550166393  0.2540824670749744  1.0000
  O   O6        1.0  0.7459173997928724  0.2540824213657923  0.7459175221582407  1.0000
