data_image0
_chemical_formula_structural       Mn2NiO6
_chemical_formula_sum              "Mn2 Ni1 O6"
_cell_length_a       5.135017775630896
_cell_length_b       5.1350177739224145
_cell_length_c       5.135017703307831
_cell_angle_alpha    60.0000002162432
_cell_angle_beta     60.00000104277791
_cell_angle_gamma    60.00000011210747

_space_group_name_H-M_alt    "P 1"
_space_group_IT_number       1

loop_
  _space_group_symop_operation_xyz
  'x, y, z'

loop_
  _atom_site_type_symbol
  _atom_site_label
  _atom_site_symmetry_multiplicity
  _atom_site_fract_x
  _atom_site_fract_y
  _atom_site_fract_z
  _atom_site_occupancy
  Mn  Mn1       1.0  0.2499999112064923  0.250000177320306  0.24999996968542637  1.0000
  Mn  Mn2       1.0  0.750000056373425  0.7499998402865592  0.7500000195147949  1.0000
  Ni  Ni1       1.0  0.9999999966834837  1.6695587288192975e-08  1.335241971987444e-07  1.0000
  O   O1        1.0  0.24831749018416593  0.24831756967462784  0.7516824720085651  1.0000
  O   O2        1.0  0.7516824917062558  0.7516824050007254  0.24831755097628957  1.0000
  O   O3        1.0  0.7516825346786178  0.24831750079915657  0.24831752789546366  1.0000
  O   O4        1.0  0.24831758426820472  0.7516824404850206  0.7516824023611074  1.0000
  O   O5        1.0  0.24831746795212514  0.7516824500993688  0.2483175387156876  1.0000
  O   O6        1.0  0.7516824600596046  0.24831759851358856  0.7516824275017998  1.0000
