data_image0
_chemical_formula_structural       Mn2NiTe6
_chemical_formula_sum              "Mn2 Ni1 Te6"
_cell_length_a       7.040904611476472
_cell_length_b       7.040904623924449
_cell_length_c       7.040904309215198
_cell_angle_alpha    60.00000103052836
_cell_angle_beta     60.00000148914774
_cell_angle_gamma    60.000001642620816

_space_group_name_H-M_alt    "P 1"
_space_group_IT_number       1

loop_
  _space_group_symop_operation_xyz
  'x, y, z'

loop_
  _atom_site_type_symbol
  _atom_site_label
  _atom_site_symmetry_multiplicity
  _atom_site_fract_x
  _atom_site_fract_y
  _atom_site_fract_z
  _atom_site_occupancy
  Mn  Mn1       1.0  0.2500001606869401  0.24999992545530614  0.24999996265978217  1.0000
  Mn  Mn2       1.0  0.7499999724363512  0.7499998981288762  0.7499998759706462  1.0000
  Ni  Ni1       1.0  3.559941347316513e-08  0.9999999965210584  6.6641177770326186e-09  1.0000
  Te  Te1       1.0  0.2556332934514738  0.25563335061359066  0.7443666745062006  1.0000
  Te  Te2       1.0  0.7443665785610112  0.7443667495464572  0.2556334546488395  1.0000
  Te  Te3       1.0  0.7443665728503347  0.25563332879591816  0.2556333219764146  1.0000
  Te  Te4       1.0  0.2556334328312403  0.7443666704748205  0.7443666700656065  1.0000
  Te  Te5       1.0  0.2556333533991303  0.7443666469926429  0.25563331188157334  1.0000
  Te  Te6       1.0  0.744366600530384  0.2556334288148137  0.7443667245790031  1.0000
