data_image0
_chemical_formula_structural       Mn2NbO6
_chemical_formula_sum              "Mn2 Nb1 O6"
_cell_length_a       5.33351294388154
_cell_length_b       5.333513213542262
_cell_length_c       5.333513024300243
_cell_angle_alpha    59.9999981226093
_cell_angle_beta     59.999998560564364
_cell_angle_gamma    59.999998725802364

_space_group_name_H-M_alt    "P 1"
_space_group_IT_number       1

loop_
  _space_group_symop_operation_xyz
  'x, y, z'

loop_
  _atom_site_type_symbol
  _atom_site_label
  _atom_site_symmetry_multiplicity
  _atom_site_fract_x
  _atom_site_fract_y
  _atom_site_fract_z
  _atom_site_occupancy
  Mn  Mn1       1.0  0.2499999673061446  0.24999984001052497  0.2500001296451882  1.0000
  Mn  Mn2       1.0  0.7499999556826847  0.7500001446304072  0.7499999128836198  1.0000
  Nb  Nb1       1.0  2.6677731061014355e-09  1.1481595446497045e-08  1.3549620564734383e-08  1.0000
  O   O1        1.0  0.2616343770424477  0.2616342129739696  0.7383656887928388  1.0000
  O   O2        1.0  0.7383657074689751  0.7383657027773829  0.2616343524179464  1.0000
  O   O3        1.0  0.7383656740877713  0.26163424978010164  0.26163436825691855  1.0000
  O   O4        1.0  0.26163427652062154  0.7383657624166616  0.7383656260598861  1.0000
  O   O5        1.0  0.2616343109878188  0.7383658024708987  0.2616342471083696  1.0000
  O   O6        1.0  0.7383657567476616  0.2616342740228014  0.738365662121231  1.0000
