data_image0
_chemical_formula_structural       Mn2NO6
_chemical_formula_sum              "Mn2 N1 O6"
_cell_length_a       4.997710771997408
_cell_length_b       4.997710423297195
_cell_length_c       4.997710926969121
_cell_angle_alpha    59.99999846408359
_cell_angle_beta     59.999996883577424
_cell_angle_gamma    59.99999799013485

_space_group_name_H-M_alt    "P 1"
_space_group_IT_number       1

loop_
  _space_group_symop_operation_xyz
  'x, y, z'

loop_
  _atom_site_type_symbol
  _atom_site_label
  _atom_site_symmetry_multiplicity
  _atom_site_fract_x
  _atom_site_fract_y
  _atom_site_fract_z
  _atom_site_occupancy
  Mn  Mn1       1.0  0.2499999729303269  0.24999995966594926  0.24999997442487293  1.0000
  Mn  Mn2       1.0  0.7500000190255958  0.749999994176614  0.7499999336219749  1.0000
  N   N1        1.0  1.5858489121634411e-07  0.9999998015004223  0.9999996938080221  1.0000
  O   O1        1.0  0.22678262141263886  0.2267825867549285  0.7732173780126076  1.0000
  O   O2        1.0  0.7732174812570646  0.7732174577602807  0.2267825193822484  1.0000
  O   O3        1.0  0.7732172874274106  0.22678271893529947  0.22678273343956493  1.0000
  O   O4        1.0  0.22678239788599228  0.7732175240794898  0.7732177315934358  1.0000
  O   O5        1.0  0.22678262802429797  0.7732173395333805  0.2267826808602156  1.0000
  O   O6        1.0  0.7732174557213509  0.22678252608716118  0.7732175275411005  1.0000
