data_image0
_chemical_formula_structural       Mn2NbTe6
_chemical_formula_sum              "Mn2 Nb1 Te6"
_cell_length_a       7.336917749776327
_cell_length_b       7.336917961487787
_cell_length_c       7.3369175729670735
_cell_angle_alpha    60.00000029366628
_cell_angle_beta     60.000002407578165
_cell_angle_gamma    59.999996949702485

_space_group_name_H-M_alt    "P 1"
_space_group_IT_number       1

loop_
  _space_group_symop_operation_xyz
  'x, y, z'

loop_
  _atom_site_type_symbol
  _atom_site_label
  _atom_site_symmetry_multiplicity
  _atom_site_fract_x
  _atom_site_fract_y
  _atom_site_fract_z
  _atom_site_occupancy
  Mn  Mn1       1.0  0.25000003044045516  0.24999995872892902  0.25000012612383193  1.0000
  Mn  Mn2       1.0  0.749999948433429  0.750000106548923  0.7499997212978026  1.0000
  Nb  Nb1       1.0  9.352379811070484e-08  0.9999999649448926  0.9999999039801164  1.0000
  Te  Te1       1.0  0.26277900106858854  0.26277892294591376  0.7372210174463701  1.0000
  Te  Te2       1.0  0.7372209783317866  0.7372210321587477  0.2627790960589961  1.0000
  Te  Te3       1.0  0.737221026223937  0.262778847964764  0.26277898865034854  1.0000
  Te  Te4       1.0  0.26277892832801164  0.7372211722422353  0.7372211197207335  1.0000
  Te  Te5       1.0  0.26277877478949535  0.737221132892589  0.26277892819015136  1.0000
  Te  Te6       1.0  0.737221222828467  0.26277885726717753  0.7372211000711503  1.0000
