data_image0
_chemical_formula_structural       Mn2NiS6
_chemical_formula_sum              "Mn2 Ni1 S6"
_cell_length_a       6.100096194311805
_cell_length_b       6.100096200435333
_cell_length_c       6.100096371235724
_cell_angle_alpha    59.999998967510145
_cell_angle_beta     60.00000001592115
_cell_angle_gamma    59.99999879908504

_space_group_name_H-M_alt    "P 1"
_space_group_IT_number       1

loop_
  _space_group_symop_operation_xyz
  'x, y, z'

loop_
  _atom_site_type_symbol
  _atom_site_label
  _atom_site_symmetry_multiplicity
  _atom_site_fract_x
  _atom_site_fract_y
  _atom_site_fract_z
  _atom_site_occupancy
  Mn  Mn1       1.0  0.25000030063295736  0.2499998399612397  0.2499998599332816  1.0000
  Mn  Mn2       1.0  0.749999951625635  0.7499999515492974  0.7499999423807236  1.0000
  Ni  Ni1       1.0  2.102870493755608e-09  2.208521533662685e-08  0.9999999715127734  1.0000
  S   S1        1.0  0.2507208486790175  0.2507208314481516  0.7492791695771811  1.0000
  S   S2        1.0  0.749278980017617  0.7492793335033006  0.2507208954985048  1.0000
  S   S3        1.0  0.7492791482169423  0.2507207985725572  0.2507207765358447  1.0000
  S   S4        1.0  0.2507208175378206  0.7492791937126655  0.7492792588036604  1.0000
  S   S5        1.0  0.2507208017864271  0.7492792262669669  0.2507207728114795  1.0000
  S   S6        1.0  0.7492791322085629  0.25072081018868636  0.7492793235347495  1.0000
