data_image0
_chemical_formula_structural       Mn2NO6
_chemical_formula_sum              "Mn2 N1 O6"
_cell_length_a       4.9977106850573865
_cell_length_b       4.997710710525581
_cell_length_c       4.997711016231397
_cell_angle_alpha    59.99999693363504
_cell_angle_beta     59.99999646636158
_cell_angle_gamma    59.99999881662346

_space_group_name_H-M_alt    "P 1"
_space_group_IT_number       1

loop_
  _space_group_symop_operation_xyz
  'x, y, z'

loop_
  _atom_site_type_symbol
  _atom_site_label
  _atom_site_symmetry_multiplicity
  _atom_site_fract_x
  _atom_site_fract_y
  _atom_site_fract_z
  _atom_site_occupancy
  Mn  Mn1       1.0  0.25000000731112465  0.24999999661278996  0.25000016398770497  1.0000
  Mn  Mn2       1.0  0.7500000016758122  0.7500000020914318  0.7500000897794145  1.0000
  N   N1        1.0  0.9999999676975356  1.592897649060237e-07  5.808013049317162e-07  1.0000
  O   O1        1.0  0.2267854278164702  0.22678550389463345  0.7732146388610944  1.0000
  O   O2        1.0  0.7732144469316304  0.7732144261924561  0.2267856362973703  1.0000
  O   O3        1.0  0.7732146786868158  0.22678531008240307  0.22678531794921092  1.0000
  O   O4        1.0  0.22678592699146025  0.7732141323329424  0.7732141132493541  1.0000
  O   O5        1.0  0.22678533550020605  0.7732147021143285  0.2267853547875569  1.0000
  O   O6        1.0  0.7732142376186084  0.22678577936042613  0.7732142012196616  1.0000
