data_image0
_chemical_formula_structural       Mn2NbSe6
_chemical_formula_sum              "Mn2 Nb1 Se6"
_cell_length_a       6.77591672240218
_cell_length_b       6.775916783967067
_cell_length_c       6.775916724401689
_cell_angle_alpha    60.000000748824995
_cell_angle_beta     59.99999980800962
_cell_angle_gamma    59.99999990456792

_space_group_name_H-M_alt    "P 1"
_space_group_IT_number       1

loop_
  _space_group_symop_operation_xyz
  'x, y, z'

loop_
  _atom_site_type_symbol
  _atom_site_label
  _atom_site_symmetry_multiplicity
  _atom_site_fract_x
  _atom_site_fract_y
  _atom_site_fract_z
  _atom_site_occupancy
  Mn  Mn1       1.0  0.24999990739221323  0.25000005689711224  0.25000001805162286  1.0000
  Mn  Mn2       1.0  0.7499999676090761  0.7499999302942476  0.7500001697023994  1.0000
  Nb  Nb1       1.0  3.738736550799586e-08  5.422490702168903e-09  1.8442078692678447e-08  1.0000
  Se  Se1       1.0  0.2600880972018122  0.26008814283776915  0.7399118902034234  1.0000
  Se  Se2       1.0  0.7399119073129368  0.7399118443535888  0.2600880852123629  1.0000
  Se  Se3       1.0  0.7399119570396819  0.26008811292285927  0.2600880119465051  1.0000
  Se  Se4       1.0  0.260088109925173  0.7399118760759952  0.7399119062516236  1.0000
  Se  Se5       1.0  0.26008812646374185  0.7399119057891271  0.2600880537844995  1.0000
  Se  Se6       1.0  0.7399118841438979  0.2600881193596654  0.7399118435251516  1.0000
