data_image0
_chemical_formula_structural       Mn2OsS6
_chemical_formula_sum              "Mn2 Os1 S6"
_cell_length_a       6.065706874811558
_cell_length_b       6.065706380019236
_cell_length_c       6.065706480349765
_cell_angle_alpha    59.99999974663688
_cell_angle_beta     60.00000055577014
_cell_angle_gamma    60.00000022068448

_space_group_name_H-M_alt    "P 1"
_space_group_IT_number       1

loop_
  _space_group_symop_operation_xyz
  'x, y, z'

loop_
  _atom_site_type_symbol
  _atom_site_label
  _atom_site_symmetry_multiplicity
  _atom_site_fract_x
  _atom_site_fract_y
  _atom_site_fract_z
  _atom_site_occupancy
  Mn  Mn1       1.0  0.24999998290107395  0.24999995460669677  0.2500000864594068  1.0000
  Mn  Mn2       1.0  0.7499999646417208  0.7499999930443998  0.7500000516105846  1.0000
  Os  Os1       1.0  0.9999999887133668  0.999999959617403  3.5726290653719116e-08  1.0000
  S   S1        1.0  0.27336733282633474  0.27336737166635583  0.7266325955484272  1.0000
  S   S2        1.0  0.7266326362504435  0.7266327112664399  0.2733673553052925  1.0000
  S   S3        1.0  0.7266326134541017  0.27336739595890014  0.27336735748520474  1.0000
  S   S4        1.0  0.27336742552010923  0.7266326486104296  0.7266325561695672  1.0000
  S   S5        1.0  0.27336737343964773  0.7266326039855586  0.2733673436813461  1.0000
  S   S6        1.0  0.7266326957060333  0.27336735578031807  0.7266325972894169  1.0000
