data_image0
_chemical_formula_structural       Mn2PdO6
_chemical_formula_sum              "Mn2 Pd1 O6"
_cell_length_a       5.053936289380575
_cell_length_b       5.053936486841786
_cell_length_c       5.053936408274184
_cell_angle_alpha    59.999997334344144
_cell_angle_beta     59.99999957501832
_cell_angle_gamma    59.9999978179564

_space_group_name_H-M_alt    "P 1"
_space_group_IT_number       1

loop_
  _space_group_symop_operation_xyz
  'x, y, z'

loop_
  _atom_site_type_symbol
  _atom_site_label
  _atom_site_symmetry_multiplicity
  _atom_site_fract_x
  _atom_site_fract_y
  _atom_site_fract_z
  _atom_site_occupancy
  Mn  Mn1       1.0  0.24999992337978832  0.24999989383624457  0.2500001287631484  1.0000
  Mn  Mn2       1.0  0.7499999836270437  0.7500002679590313  0.7500005383653793  1.0000
  Pd  Pd1       1.0  0.9999999999999994  1.405391322071981e-15  0.9999999624055416  1.0000
  O   O1        1.0  0.264846592752393  0.26484665723210254  0.7351534824747666  1.0000
  O   O2        1.0  0.7351534466356954  0.735153271921754  0.26484635823938046  1.0000
  O   O3        1.0  0.7351534175588261  0.2648465760336583  0.2648464645526121  1.0000
  O   O4        1.0  0.26484656851559274  0.7351535130611987  0.7351532496376054  1.0000
  O   O5        1.0  0.2648466508271349  0.735153411898575  0.26484643721461976  1.0000
  O   O6        1.0  0.7351534463965721  0.26484643970813204  0.7351533797181483  1.0000
