data_image0
_chemical_formula_structural       Mn2PbTe6
_chemical_formula_sum              "Mn2 Pb1 Te6"
_cell_length_a       7.550683945573039
_cell_length_b       7.550683903447546
_cell_length_c       7.550683836360205
_cell_angle_alpha    60.000000785785964
_cell_angle_beta     60.00000049068554
_cell_angle_gamma    60.000000135356544

_space_group_name_H-M_alt    "P 1"
_space_group_IT_number       1

loop_
  _space_group_symop_operation_xyz
  'x, y, z'

loop_
  _atom_site_type_symbol
  _atom_site_label
  _atom_site_symmetry_multiplicity
  _atom_site_fract_x
  _atom_site_fract_y
  _atom_site_fract_z
  _atom_site_occupancy
  Mn  Mn1       1.0  0.24999991716005826  0.24999987749745958  0.250000038969906  1.0000
  Mn  Mn2       1.0  0.7500000324886205  0.7499999731190352  0.749999919989137  1.0000
  Pb  Pb1       1.0  1.5817422478074618e-08  2.5952507327473415e-08  1.619776916578044e-08  1.0000
  Te  Te1       1.0  0.28210862977402085  0.2821086383352882  0.7178913913410444  1.0000
  Te  Te2       1.0  0.7178912849771015  0.7178913582640605  0.28210871603038723  1.0000
  Te  Te3       1.0  0.7178914651070791  0.2821086294218413  0.28210864333934693  1.0000
  Te  Te4       1.0  0.2821086290929435  0.7178913931300138  0.717891296436597  1.0000
  Te  Te5       1.0  0.28210861173781454  0.7178914312710021  0.28210869716676923  1.0000
  Te  Te6       1.0  0.7178914115275395  0.28210867562650166  0.7178912782839524  1.0000
