data_image0
_chemical_formula_structural       Mn2PbS6
_chemical_formula_sum              "Mn2 Pb1 S6"
_cell_length_a       6.44671321619741
_cell_length_b       6.4467132126315825
_cell_length_c       6.446713242864027
_cell_angle_alpha    59.99999959871166
_cell_angle_beta     60.00000016037224
_cell_angle_gamma    59.999997990763646

_space_group_name_H-M_alt    "P 1"
_space_group_IT_number       1

loop_
  _space_group_symop_operation_xyz
  'x, y, z'

loop_
  _atom_site_type_symbol
  _atom_site_label
  _atom_site_symmetry_multiplicity
  _atom_site_fract_x
  _atom_site_fract_y
  _atom_site_fract_z
  _atom_site_occupancy
  Mn  Mn1       1.0  0.2500000516762236  0.24999991713041575  0.25000004339220244  1.0000
  Mn  Mn2       1.0  0.7499999836154927  0.7500000990541716  0.7499998419497663  1.0000
  Pb  Pb1       1.0  6.301606864240153e-08  0.9999999829018223  0.9999999568757402  1.0000
  S   S1        1.0  0.27491220097472197  0.2749121457543164  0.7250878278484563  1.0000
  S   S2        1.0  0.7250877836775736  0.7250878020375658  0.27491227988326966  1.0000
  S   S3        1.0  0.7250877839732184  0.27491214681469434  0.27491221993274406  1.0000
  S   S4        1.0  0.2749121613079438  0.7250879244640186  0.7250877790404772  1.0000
  S   S5        1.0  0.2749121511959463  0.7250878540335134  0.2749121979262977  1.0000
  S   S6        1.0  0.7250878159422084  0.27491213555391164  0.7250878588852762  1.0000
