data_image0
_chemical_formula_structural       Mn2PSe6
_chemical_formula_sum              "Mn2 P1 Se6"
_cell_length_a       6.5574941542977045
_cell_length_b       6.557493794863767
_cell_length_c       6.55749430617328
_cell_angle_alpha    59.99999961180185
_cell_angle_beta     59.99999983690586
_cell_angle_gamma    59.999999100991865

_space_group_name_H-M_alt    "P 1"
_space_group_IT_number       1

loop_
  _space_group_symop_operation_xyz
  'x, y, z'

loop_
  _atom_site_type_symbol
  _atom_site_label
  _atom_site_symmetry_multiplicity
  _atom_site_fract_x
  _atom_site_fract_y
  _atom_site_fract_z
  _atom_site_occupancy
  Mn  Mn1       1.0  0.24999989606756523  0.24999992935565107  0.2500001530958687  1.0000
  Mn  Mn2       1.0  0.7500000033982992  0.749999972969509  0.7499996831229387  1.0000
  P   P1        1.0  1.936975564643205e-08  0.9999999999999998  0.9999999796403133  1.0000
  Se  Se1       1.0  0.2505393968744377  0.25053941348707204  0.7494605884936918  1.0000
  Se  Se2       1.0  0.7494606276662283  0.7494605784878275  0.25053957193012993  1.0000
  Se  Se3       1.0  0.7494606185651812  0.2505393288423533  0.25053944422162594  1.0000
  Se  Se4       1.0  0.2505394405523276  0.7494606967511921  0.7494605570566887  1.0000
  Se  Se5       1.0  0.25053930209225006  0.7494606275964981  0.25053945906904845  1.0000
  Se  Se6       1.0  0.7494606894523352  0.25053946336664185  0.7494605555107131  1.0000
