data_image0
_chemical_formula_structural       Mn2PtS6
_chemical_formula_sum              "Mn2 Pt1 S6"
_cell_length_a       6.216761729101018
_cell_length_b       6.21676195242264
_cell_length_c       6.2167615931391085
_cell_angle_alpha    60.00000060428129
_cell_angle_beta     59.999999806311095
_cell_angle_gamma    60.00000098256775

_space_group_name_H-M_alt    "P 1"
_space_group_IT_number       1

loop_
  _space_group_symop_operation_xyz
  'x, y, z'

loop_
  _atom_site_type_symbol
  _atom_site_label
  _atom_site_symmetry_multiplicity
  _atom_site_fract_x
  _atom_site_fract_y
  _atom_site_fract_z
  _atom_site_occupancy
  Mn  Mn1       1.0  0.2500000264987659  0.2499999936889871  0.24999998947186727  1.0000
  Mn  Mn2       1.0  0.7500000443570537  0.7499999081744184  0.7499998744444799  1.0000
  Pt  Pt1       1.0  0.9999999775985451  5.910206240248862e-09  1.146273348757233e-08  1.0000
  S   S1        1.0  0.26138853341747154  0.2613885339848018  0.7386114790933777  1.0000
  S   S2        1.0  0.7386114854858603  0.7386114624419018  0.2613886048007428  1.0000
  S   S3        1.0  0.7386114349296885  0.261388535365851  0.2613885547215307  1.0000
  S   S4        1.0  0.26138853217248864  0.7386114827316099  0.7386114638100623  1.0000
  S   S5        1.0  0.261388507929444  0.7386114349592419  0.2613885638000562  1.0000
  S   S6        1.0  0.738611471836514  0.26138860086883786  0.738611458836991  1.0000
