data_image0
_chemical_formula_structural       Mn2PS6
_chemical_formula_sum              "Mn2 P1 S6"
_cell_length_a       6.320318820870084
_cell_length_b       6.320319027035188
_cell_length_c       6.320318715926494
_cell_angle_alpha    60.00000150569097
_cell_angle_beta     60.000001270505756
_cell_angle_gamma    60.00000171362509

_space_group_name_H-M_alt    "P 1"
_space_group_IT_number       1

loop_
  _space_group_symop_operation_xyz
  'x, y, z'

loop_
  _atom_site_type_symbol
  _atom_site_label
  _atom_site_symmetry_multiplicity
  _atom_site_fract_x
  _atom_site_fract_y
  _atom_site_fract_z
  _atom_site_occupancy
  Mn  Mn1       1.0  0.25000016403416553  0.24999993163875425  0.24999995836343306  1.0000
  Mn  Mn2       1.0  0.7500000176960786  0.7500000507044876  0.7500002027428125  1.0000
  P   P1        1.0  0.9999999618553698  0.9999999883732623  1.697469031075861e-08  1.0000
  S   S1        1.0  0.2424526939290888  0.2424527506565017  0.7575473364077631  1.0000
  S   S2        1.0  0.7575472024240161  0.7575473150116933  0.24245268206597556  1.0000
  S   S3        1.0  0.7575472217888903  0.24245278394440187  0.2424526558661308  1.0000
  S   S4        1.0  0.2424526851745216  0.7575473321063231  0.7575472134462874  1.0000
  S   S5        1.0  0.24245279576940107  0.7575472412122216  0.24245264170357722  1.0000
  S   S6        1.0  0.7575472579466678  0.2424525880456433  0.7575473039577384  1.0000
