data_image0
_chemical_formula_structural       Mn2PtSe6
_chemical_formula_sum              "Mn2 Pt1 Se6"
_cell_length_a       6.652541215177668
_cell_length_b       6.652541220787107
_cell_length_c       6.652541030531316
_cell_angle_alpha    60.00000091695497
_cell_angle_beta     60.00000117096199
_cell_angle_gamma    60.00000122715065

_space_group_name_H-M_alt    "P 1"
_space_group_IT_number       1

loop_
  _space_group_symop_operation_xyz
  'x, y, z'

loop_
  _atom_site_type_symbol
  _atom_site_label
  _atom_site_symmetry_multiplicity
  _atom_site_fract_x
  _atom_site_fract_y
  _atom_site_fract_z
  _atom_site_occupancy
  Mn  Mn1       1.0  0.2499999115328358  0.24999986554737186  0.2500001667089034  1.0000
  Mn  Mn2       1.0  0.7500002227500714  0.7500001213322679  0.7499997637185453  1.0000
  Pt  Pt1       1.0  0.9999999380040931  3.497934293548082e-08  0.9999999669095463  1.0000
  Se  Se1       1.0  0.2592250428145185  0.259225101557965  0.7407749236626214  1.0000
  Se  Se2       1.0  0.7407749532057185  0.740774914777963  0.2592250957412732  1.0000
  Se  Se3       1.0  0.7407749717192065  0.25922498341484296  0.2592251449622845  1.0000
  Se  Se4       1.0  0.25922498876220945  0.7407750458082111  0.7407748617164973  1.0000
  Se  Se5       1.0  0.25922495838439596  0.7407749562171568  0.25922518825356833  1.0000
  Se  Se6       1.0  0.7407750083751656  0.2592249864780482  0.7407748856073957  1.0000
