data_image0
_chemical_formula_structural       Mn2PO6
_chemical_formula_sum              "Mn2 P1 O6"
_cell_length_a       5.10426871518149
_cell_length_b       5.1042683222839065
_cell_length_c       5.1042686878096255
_cell_angle_alpha    60.00000049797499
_cell_angle_beta     60.00000070206795
_cell_angle_gamma    59.99999919208631

_space_group_name_H-M_alt    "P 1"
_space_group_IT_number       1

loop_
  _space_group_symop_operation_xyz
  'x, y, z'

loop_
  _atom_site_type_symbol
  _atom_site_label
  _atom_site_symmetry_multiplicity
  _atom_site_fract_x
  _atom_site_fract_y
  _atom_site_fract_z
  _atom_site_occupancy
  Mn  Mn1       1.0  0.2499999728697592  0.2500000026674451  0.24999999240541793  1.0000
  Mn  Mn2       1.0  0.7499999701150941  0.7499999960050737  0.7499999692168432  1.0000
  P   P1        1.0  3.354524195763139e-08  0.9999999808043813  4.5800551426897406e-09  1.0000
  O   O1        1.0  0.23433510314838005  0.23433513066637104  0.7656648934464315  1.0000
  O   O2        1.0  0.7656648017432348  0.7656649279924598  0.23433514734994157  1.0000
  O   O3        1.0  0.7656648996477352  0.23433518554255353  0.23433507388569425  1.0000
  O   O4        1.0  0.2343351380761217  0.7656648275266815  0.7656648997796212  1.0000
  O   O5        1.0  0.234335198917246  0.7656648808962321  0.2343351369170021  1.0000
  O   O6        1.0  0.7656649057834133  0.23433506018943207  0.7656648510065632  1.0000
