data_image0
_chemical_formula_structural       Mn2PSe6
_chemical_formula_sum              "Mn2 P1 Se6"
_cell_length_a       6.557343701681072
_cell_length_b       6.557343765521753
_cell_length_c       6.557344062650524
_cell_angle_alpha    59.99999956564804
_cell_angle_beta     60.00000116979027
_cell_angle_gamma    60.00000112450846

_space_group_name_H-M_alt    "P 1"
_space_group_IT_number       1

loop_
  _space_group_symop_operation_xyz
  'x, y, z'

loop_
  _atom_site_type_symbol
  _atom_site_label
  _atom_site_symmetry_multiplicity
  _atom_site_fract_x
  _atom_site_fract_y
  _atom_site_fract_z
  _atom_site_occupancy
  Mn  Mn1       1.0  0.25000015837044676  0.2499996895487603  0.2500001734757956  1.0000
  Mn  Mn2       1.0  0.7500001547136802  0.7499999875770198  0.7500000656100648  1.0000
  P   P1        1.0  0.9999999833337638  0.9999999813225458  2.6821890716300732e-08  1.0000
  Se  Se1       1.0  0.25046556832481864  0.2504656326497839  0.7495344113598331  1.0000
  Se  Se2       1.0  0.7495343094468776  0.7495344946026352  0.2504655961427894  1.0000
  Se  Se3       1.0  0.7495343141699007  0.25046567538994785  0.25046551035265285  1.0000
  Se  Se4       1.0  0.25046547414846326  0.7495345564562133  0.7495342257534364  1.0000
  Se  Se5       1.0  0.2504656062837859  0.7495344477442666  0.2504656218292494  1.0000
  Se  Se6       1.0  0.7495344186612154  0.2504655338240122  0.749534384928793  1.0000
