data_image0
_chemical_formula_structural       Mn2PS6
_chemical_formula_sum              "Mn2 P1 S6"
_cell_length_a       6.320050511238953
_cell_length_b       6.320050025776678
_cell_length_c       6.320050272039003
_cell_angle_alpha    59.999999435750716
_cell_angle_beta     59.99999960177366
_cell_angle_gamma    60.00000086813906

_space_group_name_H-M_alt    "P 1"
_space_group_IT_number       1

loop_
  _space_group_symop_operation_xyz
  'x, y, z'

loop_
  _atom_site_type_symbol
  _atom_site_label
  _atom_site_symmetry_multiplicity
  _atom_site_fract_x
  _atom_site_fract_y
  _atom_site_fract_z
  _atom_site_occupancy
  Mn  Mn1       1.0  0.25000000517248655  0.24999992097203888  0.25000002631532586  1.0000
  Mn  Mn2       1.0  0.7499999095076586  0.750000020653108  0.7500001011828705  1.0000
  P   P1        1.0  5.1676576530594875e-09  0.9999999844970238  4.7888838316530165e-08  1.0000
  S   S1        1.0  0.24244001097461781  0.2424400582088299  0.757559971301224  1.0000
  S   S2        1.0  0.757559903315997  0.7575599996886434  0.24244000806641905  1.0000
  S   S3        1.0  0.7575599768119499  0.2424401077677631  0.24244001699890216  1.0000
  S   S4        1.0  0.2424401095532115  0.7575599326888666  0.7575599309375982  1.0000
  S   S5        1.0  0.24244014831949554  0.7575599407477057  0.24243998286189428  1.0000
  S   S6        1.0  0.7575599572027298  0.24244005319999218  0.7575598933081812  1.0000
