data_image0
_chemical_formula_structural       Mn2ReSe6
_chemical_formula_sum              "Mn2 Re1 Se6"
_cell_length_a       6.765776826578124
_cell_length_b       6.765776883632758
_cell_length_c       6.765776887139941
_cell_angle_alpha    59.999999711334254
_cell_angle_beta     60.000000261427154
_cell_angle_gamma    60.00000051679727

_space_group_name_H-M_alt    "P 1"
_space_group_IT_number       1

loop_
  _space_group_symop_operation_xyz
  'x, y, z'

loop_
  _atom_site_type_symbol
  _atom_site_label
  _atom_site_symmetry_multiplicity
  _atom_site_fract_x
  _atom_site_fract_y
  _atom_site_fract_z
  _atom_site_occupancy
  Mn  Mn1       1.0  0.2499997486589546  0.2500001612867736  0.25000002434749113  1.0000
  Mn  Mn2       1.0  0.7499998853159631  0.7500000711333947  0.750000225781226  1.0000
  Re  Re1       1.0  0.999999973003727  0.9999999837081477  0.9999999787812835  1.0000
  Se  Se1       1.0  0.25786195464756323  0.2578618428089032  0.7421380933837083  1.0000
  Se  Se2       1.0  0.742138170924834  0.7421380873068967  0.2578617738832178  1.0000
  Se  Se3       1.0  0.7421381479785711  0.25786197340334466  0.2578618571802794  1.0000
  Se  Se4       1.0  0.25786194142523566  0.7421380037778057  0.7421381302705498  1.0000
  Se  Se5       1.0  0.257861975378999  0.7421380678356602  0.25786185923504  1.0000
  Se  Se6       1.0  0.7421382041357032  0.25786180797396524  0.742138052554627  1.0000
