data_image0
_chemical_formula_structural       Mn2ReO6
_chemical_formula_sum              "Mn2 Re1 O6"
_cell_length_a       5.354540906541226
_cell_length_b       5.3545414569119405
_cell_length_c       5.354541104344634
_cell_angle_alpha    60.000000589525726
_cell_angle_beta     60.00000218224511
_cell_angle_gamma    60.000001511852425

_space_group_name_H-M_alt    "P 1"
_space_group_IT_number       1

loop_
  _space_group_symop_operation_xyz
  'x, y, z'

loop_
  _atom_site_type_symbol
  _atom_site_label
  _atom_site_symmetry_multiplicity
  _atom_site_fract_x
  _atom_site_fract_y
  _atom_site_fract_z
  _atom_site_occupancy
  Mn  Mn1       1.0  0.25000001164806523  0.24999990603199324  0.25000022533938  1.0000
  Mn  Mn2       1.0  0.7499999897400066  0.7500000154451325  0.7500002287229814  1.0000
  Re  Re1       1.0  0.9999999741445837  0.9999999611158809  5.6648225249973684e-08  1.0000
  O   O1        1.0  0.24881531137574936  0.24881527220874297  0.7511847593674794  1.0000
  O   O2        1.0  0.751184563975402  0.7511847750699578  0.24881525406516286  1.0000
  O   O3        1.0  0.751184681508912  0.2488154695622088  0.24881509636299076  1.0000
  O   O4        1.0  0.24881521729813244  0.7511848178831123  0.751184611574041  1.0000
  O   O5        1.0  0.2488153921636488  0.7511845909385969  0.24881517633190953  1.0000
  O   O6        1.0  0.751184742231568  0.24881521617349286  0.7511846110234691  1.0000
