data_image0
_chemical_formula_structural       Mn2ReTe6
_chemical_formula_sum              "Mn2 Re1 Te6"
_cell_length_a       7.257610118546048
_cell_length_b       7.257609889586003
_cell_length_c       7.257610061646753
_cell_angle_alpha    60.000001444888255
_cell_angle_beta     59.99999918803608
_cell_angle_gamma    60.000001533324976

_space_group_name_H-M_alt    "P 1"
_space_group_IT_number       1

loop_
  _space_group_symop_operation_xyz
  'x, y, z'

loop_
  _atom_site_type_symbol
  _atom_site_label
  _atom_site_symmetry_multiplicity
  _atom_site_fract_x
  _atom_site_fract_y
  _atom_site_fract_z
  _atom_site_occupancy
  Mn  Mn1       1.0  0.2500000615491292  0.25000001995094606  0.24999995581261797  1.0000
  Mn  Mn2       1.0  0.7499999681721089  0.7500000649154289  0.7499999194075019  1.0000
  Re  Re1       1.0  3.5228586094972224e-08  0.9999999324987251  8.640740956406304e-08  1.0000
  Te  Te1       1.0  0.2580580876142728  0.25805800649749755  0.741941961864606  1.0000
  Te  Te2       1.0  0.741942004495967  0.7419419771169647  0.2580580195924023  1.0000
  Te  Te3       1.0  0.7419419127440552  0.25805797370617256  0.2580580911998715  1.0000
  Te  Te4       1.0  0.2580580115866312  0.7419419643449241  0.7419419762606363  1.0000
  Te  Te5       1.0  0.2580580264086943  0.7419419450957366  0.25805806900949413  1.0000
  Te  Te6       1.0  0.7419418908326555  0.25805811445765847  0.7419419081757975  1.0000
