data_image0
_chemical_formula_structural       Mn2RhS6
_chemical_formula_sum              "Mn2 Rh1 S6"
_cell_length_a       6.154887211482844
_cell_length_b       6.154886774277244
_cell_length_c       6.154887638818504
_cell_angle_alpha    59.999995871840866
_cell_angle_beta     59.99999622788466
_cell_angle_gamma    59.99999719160857

_space_group_name_H-M_alt    "P 1"
_space_group_IT_number       1

loop_
  _space_group_symop_operation_xyz
  'x, y, z'

loop_
  _atom_site_type_symbol
  _atom_site_label
  _atom_site_symmetry_multiplicity
  _atom_site_fract_x
  _atom_site_fract_y
  _atom_site_fract_z
  _atom_site_occupancy
  Mn  Mn1       1.0  0.24999998957846734  0.25000006387778245  0.2499999991800123  1.0000
  Mn  Mn2       1.0  0.7499999927505728  0.7499998832028737  0.7500000682597856  1.0000
  Rh  Rh1       1.0  0.9999999924957161  0.9999999999999997  0.9999999842554418  1.0000
  S   S1        1.0  0.2643359555865785  0.2643359878113797  0.7356640655745262  1.0000
  S   S2        1.0  0.7356640693035553  0.7356640229452459  0.2643359666187155  1.0000
  S   S3        1.0  0.7356640142709654  0.26433604250918896  0.26433591110230703  1.0000
  S   S4        1.0  0.26433598685448517  0.7356640339132781  0.7356640319019047  1.0000
  S   S5        1.0  0.2643359676530508  0.7356639887184593  0.26433594403757105  1.0000
  S   S6        1.0  0.7356640117952199  0.26433597826093613  0.7356640320322657  1.0000
