data_image0
_chemical_formula_structural       Mn2RhO6
_chemical_formula_sum              "Mn2 Rh1 O6"
_cell_length_a       5.341000465024236
_cell_length_b       5.340999951474479
_cell_length_c       5.341000135791751
_cell_angle_alpha    60.0000009970808
_cell_angle_beta     60.0000004133675
_cell_angle_gamma    60.00000033407972

_space_group_name_H-M_alt    "P 1"
_space_group_IT_number       1

loop_
  _space_group_symop_operation_xyz
  'x, y, z'

loop_
  _atom_site_type_symbol
  _atom_site_label
  _atom_site_symmetry_multiplicity
  _atom_site_fract_x
  _atom_site_fract_y
  _atom_site_fract_z
  _atom_site_occupancy
  Mn  Mn1       1.0  0.2500001003898697  0.24999999289352562  0.25000008016600633  1.0000
  Mn  Mn2       1.0  0.750000002467476  0.7500001483699723  0.7499995429748311  1.0000
  Rh  Rh1       1.0  8.145747539042134e-09  0.9999999885344952  0.9999998930659848  1.0000
  O   O1        1.0  0.25281414232176525  0.25281417421529295  0.747185757373181  1.0000
  O   O2        1.0  0.7471859092632216  0.7471857836001932  0.2528144399711157  1.0000
  O   O3        1.0  0.747185792217206  0.25281403442979467  0.25281426577519706  1.0000
  O   O4        1.0  0.2528142010399906  0.7471858454202742  0.7471858143571605  1.0000
  O   O5        1.0  0.2528140902367589  0.747185903776688  0.2528142429643169  1.0000
  O   O6        1.0  0.7471858061445094  0.25281414346970493  0.747185891778655  1.0000
