data_image0
_chemical_formula_structural       Mn2RhS6
_chemical_formula_sum              "Mn2 Rh1 S6"
_cell_length_a       6.153939379282367
_cell_length_b       6.153939510521613
_cell_length_c       6.153938916080118
_cell_angle_alpha    60.000002289566545
_cell_angle_beta     60.000001988788995
_cell_angle_gamma    60.000002817133186

_space_group_name_H-M_alt    "P 1"
_space_group_IT_number       1

loop_
  _space_group_symop_operation_xyz
  'x, y, z'

loop_
  _atom_site_type_symbol
  _atom_site_label
  _atom_site_symmetry_multiplicity
  _atom_site_fract_x
  _atom_site_fract_y
  _atom_site_fract_z
  _atom_site_occupancy
  Mn  Mn1       1.0  0.24999975581448755  0.2500001896922517  0.25000009803089673  1.0000
  Mn  Mn2       1.0  0.750000102300313  0.7500000177968617  0.749999793184626  1.0000
  Rh  Rh1       1.0  0.9999999631361952  0.9999999980098193  3.2426796921210995e-08  1.0000
  S   S1        1.0  0.26442290136779945  0.2644229476831065  0.7355769871763486  1.0000
  S   S2        1.0  0.7355770980464417  0.7355770329254703  0.26442288995558044  1.0000
  S   S3        1.0  0.735577229653871  0.26442280567031434  0.2644230430585853  1.0000
  S   S4        1.0  0.2644229272641278  0.7355769838809658  0.7355771482206312  1.0000
  S   S5        1.0  0.26442289498919536  0.7355769977776021  0.264423028397581  1.0000
  S   S6        1.0  0.7355771227333636  0.26442300671313534  0.7355769901366589  1.0000
