data_image0
_chemical_formula_structural       Mn2RuO6
_chemical_formula_sum              "Mn2 Ru1 O6"
_cell_length_a       5.324384318042557
_cell_length_b       5.324384291186618
_cell_length_c       5.324384322906942
_cell_angle_alpha    60.000000813457646
_cell_angle_beta     60.000000105663595
_cell_angle_gamma    60.00000026589645

_space_group_name_H-M_alt    "P 1"
_space_group_IT_number       1

loop_
  _space_group_symop_operation_xyz
  'x, y, z'

loop_
  _atom_site_type_symbol
  _atom_site_label
  _atom_site_symmetry_multiplicity
  _atom_site_fract_x
  _atom_site_fract_y
  _atom_site_fract_z
  _atom_site_occupancy
  Mn  Mn1       1.0  0.24999988009077895  0.24999992447137728  0.2500001146371608  1.0000
  Mn  Mn2       1.0  0.7500000268237177  0.749999973536432  0.7500001181880952  1.0000
  Ru  Ru1       1.0  0.999999995662595  4.1470930179116303e-16  3.973173077969738e-08  1.0000
  O   O1        1.0  0.2469263995608797  0.24692648616850313  0.7530734986278783  1.0000
  O   O2        1.0  0.7530735701557048  0.7530735682567326  0.24692630905818255  1.0000
  O   O3        1.0  0.7530736430250558  0.2469264254624919  0.24692639761589785  1.0000
  O   O4        1.0  0.24692638489697527  0.7530735714563381  0.7530736369769646  1.0000
  O   O5        1.0  0.24692644953246512  0.7530736487272208  0.24692634663435295  1.0000
  O   O6        1.0  0.7530736773605561  0.246926389596222  0.7530735313757428  1.0000
