data_image0
_chemical_formula_structural       Mn2RuS6
_chemical_formula_sum              "Mn2 Ru1 S6"
_cell_length_a       6.091359016118762
_cell_length_b       6.091359333745832
_cell_length_c       6.091359474823945
_cell_angle_alpha    59.99999712812645
_cell_angle_beta     59.99999858937808
_cell_angle_gamma    59.9999964560724

_space_group_name_H-M_alt    "P 1"
_space_group_IT_number       1

loop_
  _space_group_symop_operation_xyz
  'x, y, z'

loop_
  _atom_site_type_symbol
  _atom_site_label
  _atom_site_symmetry_multiplicity
  _atom_site_fract_x
  _atom_site_fract_y
  _atom_site_fract_z
  _atom_site_occupancy
  Mn  Mn1       1.0  0.25000019214903757  0.25000003973927615  0.2499998415017708  1.0000
  Mn  Mn2       1.0  0.7499997639087717  0.7500000830265705  0.7500000999037139  1.0000
  Ru  Ru1       1.0  0.9999998516606221  5.830817812096403e-08  0.9999999744238026  1.0000
  S   S1        1.0  0.2665860302416896  0.26658598168628844  0.7334140026700446  1.0000
  S   S2        1.0  0.7334140274939688  0.7334139782187997  0.2665859857435946  1.0000
  S   S3        1.0  0.7334139391985142  0.26658601997987497  0.26658600994819776  1.0000
  S   S4        1.0  0.2665861321318441  0.733413956010224  0.7334140243673631  1.0000
  S   S5        1.0  0.26658612047871394  0.7334139529748163  0.2665859694780882  1.0000
  S   S6        1.0  0.7334139504508743  0.2665859446008453  0.7334140976783992  1.0000
