data_image0
_chemical_formula_structural       Mn2RuS6
_chemical_formula_sum              "Mn2 Ru1 S6"
_cell_length_a       6.090488278230932
_cell_length_b       6.0904877255046195
_cell_length_c       6.090488431660469
_cell_angle_alpha    60.000000468031786
_cell_angle_beta     59.999998849496244
_cell_angle_gamma    59.9999990611557

_space_group_name_H-M_alt    "P 1"
_space_group_IT_number       1

loop_
  _space_group_symop_operation_xyz
  'x, y, z'

loop_
  _atom_site_type_symbol
  _atom_site_label
  _atom_site_symmetry_multiplicity
  _atom_site_fract_x
  _atom_site_fract_y
  _atom_site_fract_z
  _atom_site_occupancy
  Mn  Mn1       1.0  0.25000002636752244  0.25000008322289735  0.24999991401525937  1.0000
  Mn  Mn2       1.0  0.7499999092200788  0.7500001109156142  0.7500000654797145  1.0000
  Ru  Ru1       1.0  0.9999999748176297  0.9999999617926293  4.811391368077644e-08  1.0000
  S   S1        1.0  0.266613560808654  0.26661358029377996  0.7333864601948533  1.0000
  S   S2        1.0  0.7333864623391251  0.7333863966659872  0.2666135299265502  1.0000
  S   S3        1.0  0.7333864074263701  0.26661364377242924  0.2666136039140081  1.0000
  S   S4        1.0  0.26661362635101093  0.733386272859911  0.7333864389686814  1.0000
  S   S5        1.0  0.26661360763777975  0.7333864244786311  0.2666135706464307  1.0000
  S   S6        1.0  0.7333864472048707  0.26661351427376295  0.7333863849674205  1.0000
