data_image0
_chemical_formula_structural       Mn2SiSe6
_chemical_formula_sum              "Mn2 Si1 Se6"
_cell_length_a       6.524513638686041
_cell_length_b       6.524513969078022
_cell_length_c       6.524513758795743
_cell_angle_alpha    60.00000026677412
_cell_angle_beta     59.99999975881533
_cell_angle_gamma    59.999999905818896

_space_group_name_H-M_alt    "P 1"
_space_group_IT_number       1

loop_
  _space_group_symop_operation_xyz
  'x, y, z'

loop_
  _atom_site_type_symbol
  _atom_site_label
  _atom_site_symmetry_multiplicity
  _atom_site_fract_x
  _atom_site_fract_y
  _atom_site_fract_z
  _atom_site_occupancy
  Mn  Mn1       1.0  0.2499996684009892  0.2500000060050909  0.2500003184072974  1.0000
  Mn  Mn2       1.0  0.7500001077471602  0.7499998960009435  0.7499997292699572  1.0000
  Si  Si1       1.0  1.1244442078386432e-08  0.9999999981228563  0.9999999983817134  1.0000
  Se  Se1       1.0  0.2554148862467964  0.2554149532441371  0.7445850734752822  1.0000
  Se  Se2       1.0  0.7445851635375121  0.7445850463733502  0.25541508132028823  1.0000
  Se  Se3       1.0  0.7445851732253138  0.2554148862939938  0.2554149000948562  1.0000
  Se  Se4       1.0  0.25541488546003144  0.7445852034263808  0.7445850304730874  1.0000
  Se  Se5       1.0  0.255414834965438  0.7445850733846721  0.2554149100573573  1.0000
  Se  Se6       1.0  0.7445852717557299  0.25541494124996494  0.7445849543361188  1.0000
