data_image0
_chemical_formula_structural       Mn2SnS6
_chemical_formula_sum              "Mn2 Sn1 S6"
_cell_length_a       6.366325474708421
_cell_length_b       6.366325439222684
_cell_length_c       6.366325471257516
_cell_angle_alpha    59.99999896251701
_cell_angle_beta     60.00000060876138
_cell_angle_gamma    59.999999362197144

_space_group_name_H-M_alt    "P 1"
_space_group_IT_number       1

loop_
  _space_group_symop_operation_xyz
  'x, y, z'

loop_
  _atom_site_type_symbol
  _atom_site_label
  _atom_site_symmetry_multiplicity
  _atom_site_fract_x
  _atom_site_fract_y
  _atom_site_fract_z
  _atom_site_occupancy
  Mn  Mn1       1.0  0.24999998112512012  0.2500002743145459  0.24999978918684998  1.0000
  Mn  Mn2       1.0  0.7500000951630201  0.7499997744801725  0.7499996651050387  1.0000
  Sn  Sn1       1.0  0.9999999956023121  4.039950893644199e-08  4.797121106786388e-08  1.0000
  S   S1        1.0  0.2709248273407031  0.2709249884495955  0.7290751306027335  1.0000
  S   S2        1.0  0.7290750606650439  0.7290750103266739  0.27092516224985747  1.0000
  S   S3        1.0  0.7290752100129789  0.27092481164434157  0.2709249162002309  1.0000
  S   S4        1.0  0.2709250399061671  0.729074977439236  0.7290751293286455  1.0000
  S   S5        1.0  0.2709247977077898  0.7290750156903306  0.2709249995605412  1.0000
  S   S6        1.0  0.7290749988930368  0.27092511582718665  0.7290751359673465  1.0000
