data_image0
_chemical_formula_structural       Mn2SnTe6
_chemical_formula_sum              "Mn2 Sn1 Te6"
_cell_length_a       7.424364114372603
_cell_length_b       7.424364124282076
_cell_length_c       7.424364058657449
_cell_angle_alpha    60.00000042782097
_cell_angle_beta     60.00000026857255
_cell_angle_gamma    59.99999970182679

_space_group_name_H-M_alt    "P 1"
_space_group_IT_number       1

loop_
  _space_group_symop_operation_xyz
  'x, y, z'

loop_
  _atom_site_type_symbol
  _atom_site_label
  _atom_site_symmetry_multiplicity
  _atom_site_fract_x
  _atom_site_fract_y
  _atom_site_fract_z
  _atom_site_occupancy
  Mn  Mn1       1.0  0.2500000042146478  0.2500002045441334  0.24999990678064135  1.0000
  Mn  Mn2       1.0  0.7500000136308691  0.7499998548029166  0.7500000844471184  1.0000
  Sn  Sn1       1.0  0.9999999976279934  0.9999999884525949  3.255112332049421e-08  1.0000
  Te  Te1       1.0  0.2707966617182635  0.27079673875209037  0.7292032854483331  1.0000
  Te  Te2       1.0  0.7292033557202817  0.7292032331646061  0.27079668100533705  1.0000
  Te  Te3       1.0  0.7292032579440219  0.27079676345308573  0.27079664712648926  1.0000
  Te  Te4       1.0  0.27079671805169314  0.7292032068139818  0.729203366464828  1.0000
  Te  Te5       1.0  0.2707967199084189  0.729203224291363  0.2707966807362245  1.0000
  Te  Te6       1.0  0.7292032724406845  0.27079678556680775  0.7292033156581806  1.0000
