data_image0
_chemical_formula_structural       Mn2SnSe6
_chemical_formula_sum              "Mn2 Sn1 Se6"
_cell_length_a       6.798481193798478
_cell_length_b       6.798481194441509
_cell_length_c       6.798481158438486
_cell_angle_alpha    59.999999748314764
_cell_angle_beta     60.00000020206074
_cell_angle_gamma    60.00000056440463

_space_group_name_H-M_alt    "P 1"
_space_group_IT_number       1

loop_
  _space_group_symop_operation_xyz
  'x, y, z'

loop_
  _atom_site_type_symbol
  _atom_site_label
  _atom_site_symmetry_multiplicity
  _atom_site_fract_x
  _atom_site_fract_y
  _atom_site_fract_z
  _atom_site_occupancy
  Mn  Mn1       1.0  0.25000014007714993  0.2499998513277336  0.24999995218049886  1.0000
  Mn  Mn2       1.0  0.7499999993643149  0.7499999809381692  0.749999954990836  1.0000
  Sn  Sn1       1.0  0.9999999941157137  0.9999999819850223  3.124131362665666e-09  1.0000
  Se  Se1       1.0  0.27201396702561614  0.2720139734346777  0.7279860218291136  1.0000
  Se  Se2       1.0  0.7279860515978266  0.7279860786139517  0.2720139417658762  1.0000
  Se  Se3       1.0  0.7279860139568136  0.27201397254501036  0.272013980582332  1.0000
  Se  Se4       1.0  0.27201396309683  0.7279860921141033  0.7279860033759824  1.0000
  Se  Se5       1.0  0.2720139268298022  0.7279861087842691  0.27201397210281514  1.0000
  Se  Se6       1.0  0.7279859432203339  0.27201395587484295  0.7279861756760122  1.0000
