data_image0
_chemical_formula_structural       Mn2SbTe6
_chemical_formula_sum              "Mn2 Sb1 Te6"
_cell_length_a       7.467818231922716
_cell_length_b       7.467818083862312
_cell_length_c       7.467818166972023
_cell_angle_alpha    60.000000217968854
_cell_angle_beta     59.99999977682995
_cell_angle_gamma    59.99999974916865

_space_group_name_H-M_alt    "P 1"
_space_group_IT_number       1

loop_
  _space_group_symop_operation_xyz
  'x, y, z'

loop_
  _atom_site_type_symbol
  _atom_site_label
  _atom_site_symmetry_multiplicity
  _atom_site_fract_x
  _atom_site_fract_y
  _atom_site_fract_z
  _atom_site_occupancy
  Mn  Mn1       1.0  0.2499999786913053  0.25000004307870544  0.2499999914684989  1.0000
  Mn  Mn2       1.0  0.7499999870702626  0.7500000226341399  0.7499999941738356  1.0000
  Sb  Sb1       1.0  0.9999999933782694  0.9999999688394221  0.9999999880923325  1.0000
  Te  Te1       1.0  0.2727714305466461  0.2727714300011887  0.7272285716257298  1.0000
  Te  Te2       1.0  0.7272285974717055  0.7272285602702582  0.2727714313215449  1.0000
  Te  Te3       1.0  0.727228580861052  0.27277143956029387  0.272771413654196  1.0000
  Te  Te4       1.0  0.27277140475237766  0.7272285851517918  0.7272285986315379  1.0000
  Te  Te5       1.0  0.27277143769163414  0.727228558294476  0.2727714376739749  1.0000
  Te  Te6       1.0  0.7272285910770773  0.27277139261624106  0.7272285752049304  1.0000
