data_image0
_chemical_formula_structural       Mn2SbO6
_chemical_formula_sum              "Mn2 Sb1 O6"
_cell_length_a       5.36373629528084
_cell_length_b       5.3637362129592665
_cell_length_c       5.363736351408273
_cell_angle_alpha    59.99999800961716
_cell_angle_beta     59.99999748649122
_cell_angle_gamma    59.999998243370115

_space_group_name_H-M_alt    "P 1"
_space_group_IT_number       1

loop_
  _space_group_symop_operation_xyz
  'x, y, z'

loop_
  _atom_site_type_symbol
  _atom_site_label
  _atom_site_symmetry_multiplicity
  _atom_site_fract_x
  _atom_site_fract_y
  _atom_site_fract_z
  _atom_site_occupancy
  Mn  Mn1       1.0  0.2500001138732052  0.2500000074451569  0.24999979220718244  1.0000
  Mn  Mn2       1.0  0.7499999425286875  0.7499999150166002  0.7500001164275524  1.0000
  Sb  Sb1       1.0  0.999999989344224  3.196732215321987e-08  8.069845605796254e-08  1.0000
  O   O1        1.0  0.25842698218171306  0.2584270205949301  0.7415731112162497  1.0000
  O   O2        1.0  0.7415729924774732  0.7415730114690752  0.25842692518098836  1.0000
  O   O3        1.0  0.7415729568922644  0.2584270052595803  0.2584270456129962  1.0000
  O   O4        1.0  0.2584270551255041  0.7415730245210451  0.7415729322304558  1.0000
  O   O5        1.0  0.2584270128215656  0.7415728989196733  0.2584270950903285  1.0000
  O   O6        1.0  0.7415729385486821  0.2584271125939107  0.7415728942448252  1.0000
