data_image0
_chemical_formula_structural       Mn2SO6
_chemical_formula_sum              "Mn2 S1 O6"
_cell_length_a       5.086175023999584
_cell_length_b       5.086174942257401
_cell_length_c       5.086174945169278
_cell_angle_alpha    60.00000011841234
_cell_angle_beta     59.99999771023232
_cell_angle_gamma    59.99999890718492

_space_group_name_H-M_alt    "P 1"
_space_group_IT_number       1

loop_
  _space_group_symop_operation_xyz
  'x, y, z'

loop_
  _atom_site_type_symbol
  _atom_site_label
  _atom_site_symmetry_multiplicity
  _atom_site_fract_x
  _atom_site_fract_y
  _atom_site_fract_z
  _atom_site_occupancy
  Mn  Mn1       1.0  0.24999997744935798  0.25000000394243665  0.25000004504892476  1.0000
  Mn  Mn2       1.0  0.7500000378587275  0.7499999949713911  0.7499999669542197  1.0000
  S   S1        1.0  1.9515707514064488e-08  0.9999999686961545  0.9999999940973843  1.0000
  O   O1        1.0  0.22797350716659925  0.2279735434477416  0.7720264769491922  1.0000
  O   O2        1.0  0.7720264878703731  0.7720264073063244  0.22797356926939003  1.0000
  O   O3        1.0  0.7720264957791714  0.2279735635193747  0.2279734922908129  1.0000
  O   O4        1.0  0.22797353088027844  0.7720264353944533  0.7720265297655615  1.0000
  O   O5        1.0  0.22797351558501136  0.7720264456418326  0.22797355341425687  1.0000
  O   O6        1.0  0.7720264981413781  0.22797351715217343  0.7720264499140499  1.0000
