data_image0
_chemical_formula_structural       Mn2SiO6
_chemical_formula_sum              "Mn2 Si1 O6"
_cell_length_a       5.145111770830028
_cell_length_b       5.145111731016142
_cell_length_c       5.145111874896452
_cell_angle_alpha    59.999999075424846
_cell_angle_beta     60.00000006389887
_cell_angle_gamma    60.00000236246403

_space_group_name_H-M_alt    "P 1"
_space_group_IT_number       1

loop_
  _space_group_symop_operation_xyz
  'x, y, z'

loop_
  _atom_site_type_symbol
  _atom_site_label
  _atom_site_symmetry_multiplicity
  _atom_site_fract_x
  _atom_site_fract_y
  _atom_site_fract_z
  _atom_site_occupancy
  Mn  Mn1       1.0  0.2500000196137893  0.24999991798014803  0.25000002725399795  1.0000
  Mn  Mn2       1.0  0.7500000258774028  0.7499999134275657  0.7499999776849763  1.0000
  Si  Si1       1.0  1.0042811427559546e-08  0.9999999833371667  0.9999999819304953  1.0000
  O   O1        1.0  0.24051215255207145  0.24051221542469997  0.7594877483674022  1.0000
  O   O2        1.0  0.759487797995213  0.7594878873491591  0.24051222666822264  1.0000
  O   O3        1.0  0.759487900498217  0.2405122358314173  0.24051218973969277  1.0000
  O   O4        1.0  0.240512171581837  0.7594877312593715  0.7594878020890448  1.0000
  O   O5        1.0  0.2405122139449827  0.7594878350513746  0.24051224413851266  1.0000
  O   O6        1.0  0.7594877058398931  0.24051227248329268  0.75948780026209  1.0000
