data_image0
_chemical_formula_structural       Mn2SeO6
_chemical_formula_sum              "Mn2 Se1 O6"
_cell_length_a       5.206233070166592
_cell_length_b       5.206233285820513
_cell_length_c       5.206233310383911
_cell_angle_alpha    60.000002068849454
_cell_angle_beta     60.00000102232428
_cell_angle_gamma    60.00000165579811

_space_group_name_H-M_alt    "P 1"
_space_group_IT_number       1

loop_
  _space_group_symop_operation_xyz
  'x, y, z'

loop_
  _atom_site_type_symbol
  _atom_site_label
  _atom_site_symmetry_multiplicity
  _atom_site_fract_x
  _atom_site_fract_y
  _atom_site_fract_z
  _atom_site_occupancy
  Mn  Mn1       1.0  0.2500000179934052  0.25000002419608097  0.24999998500626114  1.0000
  Mn  Mn2       1.0  0.7499999320177325  0.7500000325964473  0.7500000801737323  1.0000
  Se  Se1       1.0  0.9999999971093851  3.528687993116477e-08  2.0296582854078844e-08  1.0000
  O   O1        1.0  0.2451924353997997  0.24519237818437367  0.7548076096628669  1.0000
  O   O2        1.0  0.7548075772090276  0.754807497468839  0.24519242643231226  1.0000
  O   O3        1.0  0.7548075619296075  0.2451924434326576  0.24519240723600016  1.0000
  O   O4        1.0  0.24519249770135246  0.7548075639582371  0.7548074953014619  1.0000
  O   O5        1.0  0.24519248636652183  0.7548075254305525  0.24519242774191477  1.0000
  O   O6        1.0  0.754807567148838  0.2451924537308395  0.7548075399874599  1.0000
