data_image0
_chemical_formula_structural       Mn2SbTe6
_chemical_formula_sum              "Mn2 Sb1 Te6"
_cell_length_a       7.4677681115389465
_cell_length_b       7.467767910980975
_cell_length_c       7.467767773738792
_cell_angle_alpha    60.000000920906196
_cell_angle_beta     60.00000055446987
_cell_angle_gamma    59.999998823849154

_space_group_name_H-M_alt    "P 1"
_space_group_IT_number       1

loop_
  _space_group_symop_operation_xyz
  'x, y, z'

loop_
  _atom_site_type_symbol
  _atom_site_label
  _atom_site_symmetry_multiplicity
  _atom_site_fract_x
  _atom_site_fract_y
  _atom_site_fract_z
  _atom_site_occupancy
  Mn  Mn1       1.0  0.2500000965331077  0.250000017304823  0.24999990883480935  1.0000
  Mn  Mn2       1.0  0.750000035095907  0.7499999108709106  0.7499999229388283  1.0000
  Sb  Sb1       1.0  0.9999999805070936  4.920124280426216e-08  0.9999999704158614  1.0000
  Te  Te1       1.0  0.27276943668887976  0.2727694732712661  0.7272305472400787  1.0000
  Te  Te2       1.0  0.7272305374561638  0.7272305237862108  0.27276949220343927  1.0000
  Te  Te3       1.0  0.7272305361447455  0.2727694174759334  0.27276944920936225  1.0000
  Te  Te4       1.0  0.2727694901519585  0.7272305205400516  0.7272306177826595  1.0000
  Te  Te5       1.0  0.27276941146569433  0.7272305747116508  0.272769460005394  1.0000
  Te  Te6       1.0  0.7272304804924477  0.2727695158281884  0.7272306246757475  1.0000
