data_image0
_chemical_formula_structural       Mn2SbS6
_chemical_formula_sum              "Mn2 Sb1 S6"
_cell_length_a       6.447491820341996
_cell_length_b       6.447492111366782
_cell_length_c       6.447491584979417
_cell_angle_alpha    59.99999861768268
_cell_angle_beta     59.999999236341665
_cell_angle_gamma    59.99999889654749

_space_group_name_H-M_alt    "P 1"
_space_group_IT_number       1

loop_
  _space_group_symop_operation_xyz
  'x, y, z'

loop_
  _atom_site_type_symbol
  _atom_site_label
  _atom_site_symmetry_multiplicity
  _atom_site_fract_x
  _atom_site_fract_y
  _atom_site_fract_z
  _atom_site_occupancy
  Mn  Mn1       1.0  0.24999999465875533  0.25000031975847004  0.24999978288579083  1.0000
  Mn  Mn2       1.0  0.7499999719089345  0.7499999639018363  0.7500000772715192  1.0000
  Sb  Sb1       1.0  0.9999999798465798  5.508746751301958e-08  8.899818149473946e-09  1.0000
  S   S1        1.0  0.26830896378361296  0.26830877977932777  0.7316911213737504  1.0000
  S   S2        1.0  0.7316911837489435  0.7316909985959242  0.26830885131196164  1.0000
  S   S3        1.0  0.731691151130239  0.2683089296253773  0.26830885325141157  1.0000
  S   S4        1.0  0.26830886567988027  0.731691004514438  0.7316912030746627  1.0000
  S   S5        1.0  0.26830888343004494  0.7316910111135806  0.2683089187989836  1.0000
  S   S6        1.0  0.7316910033653838  0.268308947720619  0.7316911808813003  1.0000
