data_image0
_chemical_formula_structural       Mn2SbS6
_chemical_formula_sum              "Mn2 Sb1 S6"
_cell_length_a       6.4478782665661285
_cell_length_b       6.447878145085399
_cell_length_c       6.44787825062395
_cell_angle_alpha    59.999998854100696
_cell_angle_beta     59.999997832932216
_cell_angle_gamma    59.99999941036054

_space_group_name_H-M_alt    "P 1"
_space_group_IT_number       1

loop_
  _space_group_symop_operation_xyz
  'x, y, z'

loop_
  _atom_site_type_symbol
  _atom_site_label
  _atom_site_symmetry_multiplicity
  _atom_site_fract_x
  _atom_site_fract_y
  _atom_site_fract_z
  _atom_site_occupancy
  Mn  Mn1       1.0  0.24999994713531484  0.25000010495191366  0.25000000806492717  1.0000
  Mn  Mn2       1.0  0.7500000266242899  0.7500000869212451  0.7499997059062429  1.0000
  Sb  Sb1       1.0  0.9999999813499928  7.597816358200917e-09  0.9999999667536514  1.0000
  S   S1        1.0  0.2682996238443809  0.2682996332438493  0.7317003578190491  1.0000
  S   S2        1.0  0.7317004542206469  0.7317003477899011  0.26829969168250717  1.0000
  S   S3        1.0  0.7317003799840957  0.2682994824534401  0.2682997340910572  1.0000
  S   S4        1.0  0.2682996477051969  0.7317003542217952  0.7317004360410924  1.0000
  S   S5        1.0  0.26829950012633896  0.7317003610570166  0.26829973892620357  1.0000
  S   S6        1.0  0.7317004413116579  0.2682996161778245  0.731700360626654  1.0000
