data_image0
_chemical_formula_structural       Mn2SbSe6
_chemical_formula_sum              "Mn2 Sb1 Se6"
_cell_length_a       6.692275505253954
_cell_length_b       6.692275328461792
_cell_length_c       6.692275778453142
_cell_angle_alpha    59.999997280070275
_cell_angle_beta     59.99999871522978
_cell_angle_gamma    59.99999942363365

_space_group_name_H-M_alt    "P 1"
_space_group_IT_number       1

loop_
  _space_group_symop_operation_xyz
  'x, y, z'

loop_
  _atom_site_type_symbol
  _atom_site_label
  _atom_site_symmetry_multiplicity
  _atom_site_fract_x
  _atom_site_fract_y
  _atom_site_fract_z
  _atom_site_occupancy
  Mn  Mn1       1.0  0.2500001888208025  0.24999946234317172  0.2500004352166742  1.0000
  Mn  Mn2       1.0  0.7499997949669425  0.7500007222210856  0.7499996093148412  1.0000
  Sb  Sb1       1.0  9.341808092724697e-09  0.9999999926796505  0.9999999930122307  1.0000
  Se  Se1       1.0  0.2843324985350639  0.2843321291655873  0.7156676451118171  1.0000
  Se  Se2       1.0  0.7156675528612485  0.7156678577492276  0.2843324031754767  1.0000
  Se  Se3       1.0  0.71566759540718  0.2843320825433366  0.2843325285204867  1.0000
  Se  Se4       1.0  0.28433226197319983  0.7156680050262854  0.7156674304697095  1.0000
  Se  Se5       1.0  0.2843322979366057  0.7156677513445556  0.2843323186115913  1.0000
  Se  Se6       1.0  0.7156678004858208  0.28433200131906844  0.7156676350114816  1.0000
