data_image0
_chemical_formula_structural       Mn2SbSe6
_chemical_formula_sum              "Mn2 Sb1 Se6"
_cell_length_a       6.693087914634566
_cell_length_b       6.693088093268066
_cell_length_c       6.693087775148437
_cell_angle_alpha    60.00000324239401
_cell_angle_beta     60.00000256009161
_cell_angle_gamma    60.0000035214132

_space_group_name_H-M_alt    "P 1"
_space_group_IT_number       1

loop_
  _space_group_symop_operation_xyz
  'x, y, z'

loop_
  _atom_site_type_symbol
  _atom_site_label
  _atom_site_symmetry_multiplicity
  _atom_site_fract_x
  _atom_site_fract_y
  _atom_site_fract_z
  _atom_site_occupancy
  Mn  Mn1       1.0  0.25000000553401147  0.2500009436073107  0.25000008230269805  1.0000
  Mn  Mn2       1.0  0.750000331498306  0.7499996761345022  0.7499994286737189  1.0000
  Sb  Sb1       1.0  0.999999966993687  4.208689634494948e-08  0.9999999760366851  1.0000
  Se  Se1       1.0  0.2842657268445385  0.2842660666363873  0.7157339681597383  1.0000
  Se  Se2       1.0  0.7157343577269281  0.7157337992010095  0.2842662163242732  1.0000
  Se  Se3       1.0  0.7157337935664055  0.28426580928428313  0.28426599906687966  1.0000
  Se  Se4       1.0  0.2842659893379237  0.7157339833585047  0.7157341950526324  1.0000
  Se  Se5       1.0  0.2842656987621364  0.7157336195859668  0.2842660868773103  1.0000
  Se  Se6       1.0  0.7157341353604572  0.28426605045585956  0.7157340353598819  1.0000
