data_image0
_chemical_formula_structural       Mn2TlSe6
_chemical_formula_sum              "Mn2 Tl1 Se6"
_cell_length_a       6.783506422650881
_cell_length_b       6.783506138026344
_cell_length_c       6.783506555972974
_cell_angle_alpha    59.999999944653474
_cell_angle_beta     60.0000033563564
_cell_angle_gamma    60.000002073985826

_space_group_name_H-M_alt    "P 1"
_space_group_IT_number       1

loop_
  _space_group_symop_operation_xyz
  'x, y, z'

loop_
  _atom_site_type_symbol
  _atom_site_label
  _atom_site_symmetry_multiplicity
  _atom_site_fract_x
  _atom_site_fract_y
  _atom_site_fract_z
  _atom_site_occupancy
  Mn  Mn1       1.0  0.24999815251270394  0.2500012865102385  0.2499983285150653  1.0000
  Mn  Mn2       1.0  0.7500024899753532  0.7499999181796811  0.749998388511789  1.0000
  Tl  Tl1       1.0  0.999999936672737  7.763540985021607e-08  0.9999998837578025  1.0000
  Se  Se1       1.0  0.28482447607435674  0.2848259244780966  0.7151760117048976  1.0000
  Se  Se2       1.0  0.7151758560889039  0.715173581260147  0.28482552362198454  1.0000
  Se  Se3       1.0  0.7151763264195391  0.2848248776062483  0.2848253876016778  1.0000
  Se  Se4       1.0  0.28482441272153564  0.7151740251034484  0.7151753818905701  1.0000
  Se  Se5       1.0  0.28482378712345896  0.7151752063371151  0.2848263329892493  1.0000
  Se  Se6       1.0  0.715174546966151  0.2848251154756364  0.7151747643708032  1.0000
