data_image0
_chemical_formula_structural       Mn2TaS6
_chemical_formula_sum              "Mn2 Ta1 S6"
_cell_length_a       6.30759269726441
_cell_length_b       6.307592753330083
_cell_length_c       6.307592663623636
_cell_angle_alpha    59.99999911589929
_cell_angle_beta     59.999999445042235
_cell_angle_gamma    59.99999995072913

_space_group_name_H-M_alt    "P 1"
_space_group_IT_number       1

loop_
  _space_group_symop_operation_xyz
  'x, y, z'

loop_
  _atom_site_type_symbol
  _atom_site_label
  _atom_site_symmetry_multiplicity
  _atom_site_fract_x
  _atom_site_fract_y
  _atom_site_fract_z
  _atom_site_occupancy
  Mn  Mn1       1.0  0.2500000512510057  0.24999987033242674  0.2500000746146827  1.0000
  Mn  Mn2       1.0  0.7499999571433045  0.7500001294310101  0.749999898051382  1.0000
  Ta  Ta1       1.0  0.9999999729653619  9.708496246491949e-09  4.354167072120716e-08  1.0000
  S   S1        1.0  0.26628273465781743  0.2662826850177929  0.7337172901460601  1.0000
  S   S2        1.0  0.7337173087600232  0.7337172700865584  0.2662827174602095  1.0000
  S   S3        1.0  0.7337172468490797  0.2662827130535343  0.2662826963380835  1.0000
  S   S4        1.0  0.26628275022817727  0.733717304185197  0.7337172558095607  1.0000
  S   S5        1.0  0.26628268904387076  0.7337173003625896  0.2662827586542515  1.0000
  S   S6        1.0  0.7337172839208236  0.26628270134254567  0.7337172862444535  1.0000
