data_image0
_chemical_formula_structural       Mn2TeSe6
_chemical_formula_sum              "Mn2 Te1 Se6"
_cell_length_a       6.681453598290595
_cell_length_b       6.681452883703797
_cell_length_c       6.681453456593392
_cell_angle_alpha    60.00000429077586
_cell_angle_beta     60.000007470143025
_cell_angle_gamma    60.00000752064182

_space_group_name_H-M_alt    "P 1"
_space_group_IT_number       1

loop_
  _space_group_symop_operation_xyz
  'x, y, z'

loop_
  _atom_site_type_symbol
  _atom_site_label
  _atom_site_symmetry_multiplicity
  _atom_site_fract_x
  _atom_site_fract_y
  _atom_site_fract_z
  _atom_site_occupancy
  Mn  Mn1       1.0  0.2500013689493081  0.2500001608239289  0.24999940680064686  1.0000
  Mn  Mn2       1.0  0.749997399605797  0.7500012395215063  0.7499983577919261  1.0000
  Te  Te1       1.0  0.9999999822116462  0.9999999963338991  7.508448068350279e-08  1.0000
  Se  Se1       1.0  0.29464755661257797  0.29464537560523646  0.7053533363517642  1.0000
  Se  Se2       1.0  0.7053533223098801  0.7053537169284975  0.2946475068535142  1.0000
  Se  Se3       1.0  0.7053529694822329  0.2946458463285602  0.2946470850482684  1.0000
  Se  Se4       1.0  0.29464775765052453  0.7053534423416851  0.7053536776130745  1.0000
  Se  Se5       1.0  0.2946466238963326  0.7053532858503031  0.29464638802855714  1.0000
  Se  Se6       1.0  0.7053530066056539  0.2946469285109283  0.7053541757334082  1.0000
