data_image0
_chemical_formula_structural       Mn2TiS6
_chemical_formula_sum              "Mn2 Ti1 S6"
_cell_length_a       6.247670457906847
_cell_length_b       6.247670640292981
_cell_length_c       6.247670394234108
_cell_angle_alpha    59.999999221471214
_cell_angle_beta     60.00000012060761
_cell_angle_gamma    59.99999949644548

_space_group_name_H-M_alt    "P 1"
_space_group_IT_number       1

loop_
  _space_group_symop_operation_xyz
  'x, y, z'

loop_
  _atom_site_type_symbol
  _atom_site_label
  _atom_site_symmetry_multiplicity
  _atom_site_fract_x
  _atom_site_fract_y
  _atom_site_fract_z
  _atom_site_occupancy
  Mn  Mn1       1.0  0.24999993870218543  0.2500000026684539  0.24999996781311706  1.0000
  Mn  Mn2       1.0  0.7500000473954708  0.7499999295924612  0.7499999214365445  1.0000
  Ti  Ti1       1.0  5.413281887458695e-10  3.920644464866295e-09  1.3774979625151928e-08  1.0000
  S   S1        1.0  0.26212405765330565  0.2621240854598882  0.7378759008052637  1.0000
  S   S2        1.0  0.7378759323265254  0.7378759016900512  0.2621241111154746  1.0000
  S   S3        1.0  0.7378759850848468  0.2621240620647734  0.262124046076913  1.0000
  S   S4        1.0  0.26212406609089606  0.7378759466487106  0.7378759900885574  1.0000
  S   S5        1.0  0.2621240064274109  0.7378759790481981  0.2621241134250731  1.0000
  S   S6        1.0  0.7378759620817509  0.2621241002368931  0.7378759431932527  1.0000
