data_image0
_chemical_formula_structural       Mn2TaSe6
_chemical_formula_sum              "Mn2 Ta1 Se6"
_cell_length_a       6.721407671278875
_cell_length_b       6.721407518008753
_cell_length_c       6.721407389955364
_cell_angle_alpha    60.00000124830625
_cell_angle_beta     60.00000282228076
_cell_angle_gamma    59.99999944686828

_space_group_name_H-M_alt    "P 1"
_space_group_IT_number       1

loop_
  _space_group_symop_operation_xyz
  'x, y, z'

loop_
  _atom_site_type_symbol
  _atom_site_label
  _atom_site_symmetry_multiplicity
  _atom_site_fract_x
  _atom_site_fract_y
  _atom_site_fract_z
  _atom_site_occupancy
  Mn  Mn1       1.0  0.25000007603861496  0.24999999565395872  0.24999987059141646  1.0000
  Mn  Mn2       1.0  0.7500000283786126  0.7500002511744054  0.749999856264358  1.0000
  Ta  Ta1       1.0  3.215565008733979e-08  0.9999999653790477  0.9999999134534161  1.0000
  Se  Se1       1.0  0.2635337364358114  0.26353362326767416  0.7364663614439712  1.0000
  Se  Se2       1.0  0.7364662114104356  0.7364663356601472  0.263533822717378  1.0000
  Se  Se3       1.0  0.736466392126512  0.2635336671043244  0.26353370882894195  1.0000
  Se  Se4       1.0  0.26353358402265237  0.7364662790684089  0.7364663708525561  1.0000
  Se  Se5       1.0  0.2635336513591971  0.7364663348108599  0.26353369333289456  1.0000
  Se  Se6       1.0  0.7364662905710496  0.2635335439421259  0.7364664014611279  1.0000
