data_image0
_chemical_formula_structural       Mn2TlS6
_chemical_formula_sum              "Mn2 Tl1 S6"
_cell_length_a       6.429204730124576
_cell_length_b       6.429204752990221
_cell_length_c       6.42920440510936
_cell_angle_alpha    60.00000041222494
_cell_angle_beta     59.9999999995117
_cell_angle_gamma    59.99999956367316

_space_group_name_H-M_alt    "P 1"
_space_group_IT_number       1

loop_
  _space_group_symop_operation_xyz
  'x, y, z'

loop_
  _atom_site_type_symbol
  _atom_site_label
  _atom_site_symmetry_multiplicity
  _atom_site_fract_x
  _atom_site_fract_y
  _atom_site_fract_z
  _atom_site_occupancy
  Mn  Mn1       1.0  0.2500000732572981  0.2499998946934774  0.25000007363527843  1.0000
  Mn  Mn2       1.0  0.7500000083420142  0.7500000974591481  0.7499996253134508  1.0000
  Tl  Tl1       1.0  0.9999999785005831  9.143860901434306e-08  0.9999999354777576  1.0000
  S   S1        1.0  0.27540556293401447  0.2754054443039361  0.7245944207994344  1.0000
  S   S2        1.0  0.7245943889531674  0.7245945059393245  0.2754057636984627  1.0000
  S   S3        1.0  0.7245944472298869  0.27540539329224156  0.27540565849282933  1.0000
  S   S4        1.0  0.2754056015523324  0.7245945302814247  0.7245944208992371  1.0000
  S   S5        1.0  0.27540541009758673  0.7245944754034348  0.27540562922803763  1.0000
  S   S6        1.0  0.7245945235553849  0.27540558342317395  0.724594468099425  1.0000
