data_image0
_chemical_formula_structural       Mn2TiSe6
_chemical_formula_sum              "Mn2 Ti1 Se6"
_cell_length_a       6.669511558082951
_cell_length_b       6.669511477795808
_cell_length_c       6.669511599931263
_cell_angle_alpha    59.99999852823992
_cell_angle_beta     59.99999868955937
_cell_angle_gamma    59.99999949365443

_space_group_name_H-M_alt    "P 1"
_space_group_IT_number       1

loop_
  _space_group_symop_operation_xyz
  'x, y, z'

loop_
  _atom_site_type_symbol
  _atom_site_label
  _atom_site_symmetry_multiplicity
  _atom_site_fract_x
  _atom_site_fract_y
  _atom_site_fract_z
  _atom_site_occupancy
  Mn  Mn1       1.0  0.2500002878687687  0.249999835514178  0.2500000950252899  1.0000
  Mn  Mn2       1.0  0.7500001119466128  0.7499999748076323  0.7499999844619224  1.0000
  Ti  Ti1       1.0  0.9999999739252986  5.5090013193782125e-09  0.9999999533071641  1.0000
  Se  Se1       1.0  0.2602217105233749  0.2602217275437653  0.7397782351226295  1.0000
  Se  Se2       1.0  0.7397781726917689  0.7397783600644354  0.2602217616078871  1.0000
  Se  Se3       1.0  0.7397781500166422  0.2602217801606663  0.26022172904094354  1.0000
  Se  Se4       1.0  0.2602217168815425  0.7397783460105432  0.7397781591081375  1.0000
  Se  Se5       1.0  0.26022167881433556  0.7397782165037896  0.2602217848130962  1.0000
  Se  Se6       1.0  0.7397782054870621  0.26022175357905225  0.7397783001241769  1.0000
