data_image0
_chemical_formula_structural       Mn2TlO6
_chemical_formula_sum              "Mn2 Tl1 O6"
_cell_length_a       5.44885879216668
_cell_length_b       5.4488588032783705
_cell_length_c       5.448858868265739
_cell_angle_alpha    59.99999783918991
_cell_angle_beta     59.99999830385793
_cell_angle_gamma    59.999998700054185

_space_group_name_H-M_alt    "P 1"
_space_group_IT_number       1

loop_
  _space_group_symop_operation_xyz
  'x, y, z'

loop_
  _atom_site_type_symbol
  _atom_site_label
  _atom_site_symmetry_multiplicity
  _atom_site_fract_x
  _atom_site_fract_y
  _atom_site_fract_z
  _atom_site_occupancy
  Mn  Mn1       1.0  0.24999990690827834  0.2500000775363016  0.24999992794043654  1.0000
  Mn  Mn2       1.0  0.7499999500459646  0.7500000977463605  0.7500000228904946  1.0000
  Tl  Tl1       1.0  0.9999998392853489  5.619272838136848e-08  0.9999998320313638  1.0000
  O   O1        1.0  0.27620403962596446  0.27620384567780226  0.7237961027901866  1.0000
  O   O2        1.0  0.7237961432347305  0.7237960194210175  0.2762038456851804  1.0000
  O   O3        1.0  0.7237961439423504  0.2762039391728134  0.27620396837887057  1.0000
  O   O4        1.0  0.27620389423507746  0.7237960675316703  0.7237961890181696  1.0000
  O   O5        1.0  0.2762039382880383  0.7237960474339079  0.2762039693943033  1.0000
  O   O6        1.0  0.7237961480755571  0.2762038401419997  0.7237961463935825  1.0000
