data_image0
_chemical_formula_structural       Mn2TiTe6
_chemical_formula_sum              "Mn2 Ti1 Te6"
_cell_length_a       7.237471267878021
_cell_length_b       7.237471387159488
_cell_length_c       7.237471442639068
_cell_angle_alpha    59.99999859480624
_cell_angle_beta     59.99999934824885
_cell_angle_gamma    59.999998554407284

_space_group_name_H-M_alt    "P 1"
_space_group_IT_number       1

loop_
  _space_group_symop_operation_xyz
  'x, y, z'

loop_
  _atom_site_type_symbol
  _atom_site_label
  _atom_site_symmetry_multiplicity
  _atom_site_fract_x
  _atom_site_fract_y
  _atom_site_fract_z
  _atom_site_occupancy
  Mn  Mn1       1.0  0.2499999193918677  0.24999995065320332  0.25000017066952107  1.0000
  Mn  Mn2       1.0  0.7500001698480235  0.7499999331865349  0.7499999933643797  1.0000
  Ti  Ti1       1.0  0.9999999822731219  0.9999999813854971  0.9999999725746558  1.0000
  Te  Te1       1.0  0.26189429374498974  0.26189442376660027  0.7381056609983581  1.0000
  Te  Te2       1.0  0.7381056439881077  0.7381056800627301  0.2618943762203736  1.0000
  Te  Te3       1.0  0.7381056340778616  0.2618943798054531  0.2618943373941407  1.0000
  Te  Te4       1.0  0.2618942613357884  0.7381057121782866  0.7381055873556096  1.0000
  Te  Te5       1.0  0.2618943481550339  0.7381056171261287  0.26189436531167076  1.0000
  Te  Te6       1.0  0.7381057421797977  0.2618943208648963  0.7381055445006398  1.0000
