data_image0
_chemical_formula_structural       Mn2TiO6
_chemical_formula_sum              "Mn2 Ti1 O6"
_cell_length_a       5.235354863112953
_cell_length_b       5.23535514171263
_cell_length_c       5.235354944651103
_cell_angle_alpha    59.99999905976764
_cell_angle_beta     59.99999850815068
_cell_angle_gamma    59.99999891534871

_space_group_name_H-M_alt    "P 1"
_space_group_IT_number       1

loop_
  _space_group_symop_operation_xyz
  'x, y, z'

loop_
  _atom_site_type_symbol
  _atom_site_label
  _atom_site_symmetry_multiplicity
  _atom_site_fract_x
  _atom_site_fract_y
  _atom_site_fract_z
  _atom_site_occupancy
  Mn  Mn1       1.0  0.24999984808031975  0.25000012255047804  0.2500000044459799  1.0000
  Mn  Mn2       1.0  0.7499999693910373  0.7499999325280353  0.7500001520309159  1.0000
  Ti  Ti1       1.0  1.7778448625254237e-08  0.9999999929818799  2.7091368572813845e-08  1.0000
  O   O1        1.0  0.2543303498636325  0.2543302259861486  0.7456697203897096  1.0000
  O   O2        1.0  0.7456696928906026  0.7456697355174414  0.2543302537177087  1.0000
  O   O3        1.0  0.7456698083645548  0.25433030844262605  0.25433019827353326  1.0000
  O   O4        1.0  0.2543302389346358  0.745669646042845  0.7456697636998356  1.0000
  O   O5        1.0  0.25433031813546947  0.7456697008500366  0.25433021213458373  1.0000
  O   O6        1.0  0.7456697343087675  0.2543303308347462  0.7456696819253424  1.0000
