data_image0
_chemical_formula_structural       Mn2TaTe6
_chemical_formula_sum              "Mn2 Ta1 Te6"
_cell_length_a       7.328714085890265
_cell_length_b       7.328713848316341
_cell_length_c       7.328714003746898
_cell_angle_alpha    60.0000001322621
_cell_angle_beta     59.999998895700166
_cell_angle_gamma    59.9999998237878

_space_group_name_H-M_alt    "P 1"
_space_group_IT_number       1

loop_
  _space_group_symop_operation_xyz
  'x, y, z'

loop_
  _atom_site_type_symbol
  _atom_site_label
  _atom_site_symmetry_multiplicity
  _atom_site_fract_x
  _atom_site_fract_y
  _atom_site_fract_z
  _atom_site_occupancy
  Mn  Mn1       1.0  0.24999991320432102  0.24999988170898146  0.2500001597494971  1.0000
  Mn  Mn2       1.0  0.7500001930888404  0.7499999910569289  0.7499997930014245  1.0000
  Ta  Ta1       1.0  0.9999999740424514  1.1698114727646658e-08  0.9999999661948411  1.0000
  Te  Te1       1.0  0.26333954857099434  0.2633396631565216  0.7366603814328244  1.0000
  Te  Te2       1.0  0.7366604201656572  0.7366604001215561  0.26333964308397395  1.0000
  Te  Te3       1.0  0.7366603788373732  0.26333955688145444  0.26333966432121114  1.0000
  Te  Te4       1.0  0.2633395577513669  0.7366604846715507  0.7366603421037157  1.0000
  Te  Te5       1.0  0.2633395862884444  0.7366604107128473  0.2633396869675663  1.0000
  Te  Te6       1.0  0.7366604313241109  0.2633395957458128  0.7366603619884261  1.0000
