data_image0
_chemical_formula_structural       Mn2TaO6
_chemical_formula_sum              "Mn2 Ta1 O6"
_cell_length_a       5.345050154251424
_cell_length_b       5.34505006001697
_cell_length_c       5.345050242166888
_cell_angle_alpha    60.000000063352054
_cell_angle_beta     59.99999869629879
_cell_angle_gamma    59.999999680233785

_space_group_name_H-M_alt    "P 1"
_space_group_IT_number       1

loop_
  _space_group_symop_operation_xyz
  'x, y, z'

loop_
  _atom_site_type_symbol
  _atom_site_label
  _atom_site_symmetry_multiplicity
  _atom_site_fract_x
  _atom_site_fract_y
  _atom_site_fract_z
  _atom_site_occupancy
  Mn  Mn1       1.0  0.24999992572768032  0.25000001652555287  0.2500000369686494  1.0000
  Mn  Mn2       1.0  0.7500000906275782  0.7499999258430705  0.7500000665644955  1.0000
  Ta  Ta1       1.0  2.1756704755712415e-08  0.9999999541727441  0.9999999764883688  1.0000
  O   O1        1.0  0.2575790542554567  0.25757916764462735  0.7424208969672138  1.0000
  O   O2        1.0  0.7424209939803856  0.7424208022203472  0.2575790533987365  1.0000
  O   O3        1.0  0.7424208648251701  0.25757915995933733  0.2575790179530889  1.0000
  O   O4        1.0  0.25757900794188116  0.7424209863405706  0.7424209618640296  1.0000
  O   O5        1.0  0.257579145489871  0.7424208959156792  0.2575790242722373  1.0000
  O   O6        1.0  0.7424209513213182  0.2575790189565894  0.7424209554948491  1.0000
