data_image0
_chemical_formula_structural       Mn2TeO6
_chemical_formula_sum              "Mn2 Te1 O6"
_cell_length_a       5.351282933029646
_cell_length_b       5.351282946947067
_cell_length_c       5.351282979432194
_cell_angle_alpha    59.99999920956202
_cell_angle_beta     59.99999968839482
_cell_angle_gamma    60.00000012783032

_space_group_name_H-M_alt    "P 1"
_space_group_IT_number       1

loop_
  _space_group_symop_operation_xyz
  'x, y, z'

loop_
  _atom_site_type_symbol
  _atom_site_label
  _atom_site_symmetry_multiplicity
  _atom_site_fract_x
  _atom_site_fract_y
  _atom_site_fract_z
  _atom_site_occupancy
  Mn  Mn1       1.0  0.24999994971394834  0.2500000987703406  0.24999998399365383  1.0000
  Mn  Mn2       1.0  0.7500001139457114  0.7500000262451403  0.7499998611764329  1.0000
  Te  Te1       1.0  2.3735814587105246e-08  5.692783478504666e-17  1.213067884355095e-09  1.0000
  O   O1        1.0  0.25289800338104973  0.2528980626317053  0.7471019771377287  1.0000
  O   O2        1.0  0.7471020200881978  0.7471019822794871  0.25289803843364256  1.0000
  O   O3        1.0  0.7471019625135584  0.25289799171365396  0.2528981145602499  1.0000
  O   O4        1.0  0.2528980219208526  0.7471019502063115  0.7471019589431783  1.0000
  O   O5        1.0  0.2528979902705896  0.7471019031121371  0.2528980662556109  1.0000
  O   O6        1.0  0.74710191053314  0.25289801134350093  0.7471020086027104  1.0000
