data_image0
_chemical_formula_structural       Mn2VTe6
_chemical_formula_sum              "Mn2 V1 Te6"
_cell_length_a       7.148127601851696
_cell_length_b       7.14812777543164
_cell_length_c       7.148127687337305
_cell_angle_alpha    59.99999933726434
_cell_angle_beta     59.99999984919467
_cell_angle_gamma    59.99999902535247

_space_group_name_H-M_alt    "P 1"
_space_group_IT_number       1

loop_
  _space_group_symop_operation_xyz
  'x, y, z'

loop_
  _atom_site_type_symbol
  _atom_site_label
  _atom_site_symmetry_multiplicity
  _atom_site_fract_x
  _atom_site_fract_y
  _atom_site_fract_z
  _atom_site_occupancy
  Mn  Mn1       1.0  0.24999982837640491  0.2499997866383846  0.250000270160642  1.0000
  Mn  Mn2       1.0  0.7499999325971874  0.7500000092856254  0.7499998185899276  1.0000
  V   V1        1.0  6.853514634407188e-09  0.999999979439457  3.483286909227844e-08  1.0000
  Te  Te1       1.0  0.26079849158899326  0.2607984476804113  0.7392015207167233  1.0000
  Te  Te2       1.0  0.7392014967595806  0.739201538428612  0.26079859847733033  1.0000
  Te  Te3       1.0  0.7392015644977975  0.2607984572673111  0.26079852442180357  1.0000
  Te  Te4       1.0  0.26079857877967544  0.7392016213641536  0.739201375916773  1.0000
  Te  Te5       1.0  0.2607984487663711  0.7392016104780819  0.2607985023259019  1.0000
  Te  Te6       1.0  0.7392016529336912  0.2607985589624466  0.7392013440185251  1.0000
