data_image0
_chemical_formula_structural       Mn2VS6
_chemical_formula_sum              "Mn2 V1 S6"
_cell_length_a       6.148880992228805
_cell_length_b       6.148881498496448
_cell_length_c       6.148881562930264
_cell_angle_alpha    59.999998890790465
_cell_angle_beta     59.99999919505256
_cell_angle_gamma    60.000000402586096

_space_group_name_H-M_alt    "P 1"
_space_group_IT_number       1

loop_
  _space_group_symop_operation_xyz
  'x, y, z'

loop_
  _atom_site_type_symbol
  _atom_site_label
  _atom_site_symmetry_multiplicity
  _atom_site_fract_x
  _atom_site_fract_y
  _atom_site_fract_z
  _atom_site_occupancy
  Mn  Mn1       1.0  0.2500001130081247  0.24999970238766642  0.25000007538733066  1.0000
  Mn  Mn2       1.0  0.7499999901927789  0.7500000353498723  0.7500002145836974  1.0000
  V   V1        1.0  2.9174233485234075e-08  0.9999999800818268  0.9999999823614742  1.0000
  S   S1        1.0  0.2591162077094158  0.25911617994022124  0.7408838427939575  1.0000
  S   S2        1.0  0.7408837008858391  0.7408838824635485  0.25911607314749024  1.0000
  S   S3        1.0  0.7408838126292112  0.2591162881737767  0.25911613211702683  1.0000
  S   S4        1.0  0.2591161734710276  0.7408838459354167  0.7408837108455298  1.0000
  S   S5        1.0  0.2591162078529499  0.7408838900767974  0.2591161501765717  1.0000
  S   S6        1.0  0.7408837782668347  0.25911621017150005  0.7408837812643891  1.0000
