data_image0
_chemical_formula_structural       Mn2WS6
_chemical_formula_sum              "Mn2 W1 S6"
_cell_length_a       6.39081102011458
_cell_length_b       6.390810924727437
_cell_length_c       6.390811167858273
_cell_angle_alpha    59.99999824784227
_cell_angle_beta     59.99999764331124
_cell_angle_gamma    59.99999980662185

_space_group_name_H-M_alt    "P 1"
_space_group_IT_number       1

loop_
  _space_group_symop_operation_xyz
  'x, y, z'

loop_
  _atom_site_type_symbol
  _atom_site_label
  _atom_site_symmetry_multiplicity
  _atom_site_fract_x
  _atom_site_fract_y
  _atom_site_fract_z
  _atom_site_occupancy
  Mn  Mn1       1.0  0.25000008641039867  0.24999985267642336  0.24999993827544195  1.0000
  Mn  Mn2       1.0  0.7499998313386772  0.7499999202317863  0.7499999916280176  1.0000
  W   W1        1.0  0.9999999787566414  0.9999999770030141  0.9999999751777748  1.0000
  S   S1        1.0  0.25509176951313217  0.2550917305213599  0.7449082384733632  1.0000
  S   S2        1.0  0.744908232567348  0.7449083260163398  0.2550917844097941  1.0000
  S   S3        1.0  0.7449082630219542  0.2550918182507554  0.2550917794619347  1.0000
  S   S4        1.0  0.2550918481061587  0.7449082363705305  0.7449082321037698  1.0000
  S   S5        1.0  0.25509178614863776  0.7449083319860149  0.25509180108568735  1.0000
  S   S6        1.0  0.7449081964388826  0.2550917992918875  0.7449082739759244  1.0000
