data_image0
_chemical_formula_structural       Mn2WO6
_chemical_formula_sum              "Mn2 W1 O6"
_cell_length_a       5.358723354054539
_cell_length_b       5.358723257378942
_cell_length_c       5.3587232628769055
_cell_angle_alpha    59.99999938089873
_cell_angle_beta     59.999998679487774
_cell_angle_gamma    59.999998611459766

_space_group_name_H-M_alt    "P 1"
_space_group_IT_number       1

loop_
  _space_group_symop_operation_xyz
  'x, y, z'

loop_
  _atom_site_type_symbol
  _atom_site_label
  _atom_site_symmetry_multiplicity
  _atom_site_fract_x
  _atom_site_fract_y
  _atom_site_fract_z
  _atom_site_occupancy
  Mn  Mn1       1.0  0.2500000510949836  0.25000008234732785  0.2499999507398472  1.0000
  Mn  Mn2       1.0  0.7500000364513253  0.7499999704945234  0.7499999742654416  1.0000
  W   W1        1.0  0.9999999853084957  0.9999999794303542  1.5764459206855953e-08  1.0000
  O   O1        1.0  0.25400673801716567  0.25400677987995746  0.7459932059180092  1.0000
  O   O2        1.0  0.7459932797501044  0.7459931655426326  0.25400678156080475  1.0000
  O   O3        1.0  0.7459932162988026  0.2540067926335754  0.2540067428260713  1.0000
  O   O4        1.0  0.25400675049255145  0.7459931893572743  0.7459932817144299  1.0000
  O   O5        1.0  0.25400679244733815  0.7459932531140026  0.25400680771540063  1.0000
  O   O6        1.0  0.7459932029876116  0.2540067334478794  0.745993261799619  1.0000
