data_image0
_chemical_formula_structural       Mn2WTe6
_chemical_formula_sum              "Mn2 W1 Te6"
_cell_length_a       7.26370253731944
_cell_length_b       7.263702567203403
_cell_length_c       7.263702654756845
_cell_angle_alpha    59.99999877473053
_cell_angle_beta     59.99999763964969
_cell_angle_gamma    60.00000052475064

_space_group_name_H-M_alt    "P 1"
_space_group_IT_number       1

loop_
  _space_group_symop_operation_xyz
  'x, y, z'

loop_
  _atom_site_type_symbol
  _atom_site_label
  _atom_site_symmetry_multiplicity
  _atom_site_fract_x
  _atom_site_fract_y
  _atom_site_fract_z
  _atom_site_occupancy
  Mn  Mn1       1.0  0.24999992580483407  0.2500000449747447  0.25000004300137524  1.0000
  Mn  Mn2       1.0  0.7499998568217497  0.749999944393071  0.7500000014638751  1.0000
  W   W1        1.0  0.9999999996473643  0.9999999629054366  1.3987393339605913e-07  1.0000
  Te  Te1       1.0  0.2605666569928179  0.26056659544478045  0.7394333472531589  1.0000
  Te  Te2       1.0  0.7394334079559319  0.7394333720035254  0.26056664272971797  1.0000
  Te  Te3       1.0  0.7394333919096  0.2605666613050381  0.26056663982394385  1.0000
  Te  Te4       1.0  0.26056679160712404  0.7394333128877356  0.7394332806191687  1.0000
  Te  Te5       1.0  0.26056667433983177  0.7394333191296786  0.2605666278804952  1.0000
  Te  Te6       1.0  0.7394333001069622  0.26056678152182955  0.7394332787998837  1.0000
