data_image0
_chemical_formula_structural       Mn2YO6
_chemical_formula_sum              "Mn2 Y1 O6"
_cell_length_a       5.467602688181859
_cell_length_b       5.467602706222704
_cell_length_c       5.467602621575429
_cell_angle_alpha    60.000000136989414
_cell_angle_beta     59.999999046567474
_cell_angle_gamma    59.99999831435909

_space_group_name_H-M_alt    "P 1"
_space_group_IT_number       1

loop_
  _space_group_symop_operation_xyz
  'x, y, z'

loop_
  _atom_site_type_symbol
  _atom_site_label
  _atom_site_symmetry_multiplicity
  _atom_site_fract_x
  _atom_site_fract_y
  _atom_site_fract_z
  _atom_site_occupancy
  Mn  Mn1       1.0  0.24999992241866975  0.2500000370997077  0.2500000204831105  1.0000
  Mn  Mn2       1.0  0.7500000176785924  0.7499999365788518  0.750000062006232  1.0000
  Y   Y1        1.0  6.90300306847591e-08  7.168010813079269e-08  0.9999999735398534  1.0000
  O   O1        1.0  0.27736393002174753  0.2773640218216819  0.7226360238184252  1.0000
  O   O2        1.0  0.722635936799712  0.7226359182568277  0.27736409016138247  1.0000
  O   O3        1.0  0.722636073746418  0.2773639864195637  0.27736397739365026  1.0000
  O   O4        1.0  0.2773640334468063  0.7226359738189719  0.7226359605963806  1.0000
  O   O5        1.0  0.2773639971242935  0.7226360630304435  0.27736391851691977  1.0000
  O   O6        1.0  0.722636025783386  0.27736399800824774  0.7226359691498374  1.0000
