data_image0
_chemical_formula_structural       Mn2YS6
_chemical_formula_sum              "Mn2 Y1 S6"
_cell_length_a       6.591597681763126
_cell_length_b       6.591597764064484
_cell_length_c       6.5915977861814925
_cell_angle_alpha    59.99999854369127
_cell_angle_beta     59.99999901584528
_cell_angle_gamma    59.99999909624503

_space_group_name_H-M_alt    "P 1"
_space_group_IT_number       1

loop_
  _space_group_symop_operation_xyz
  'x, y, z'

loop_
  _atom_site_type_symbol
  _atom_site_label
  _atom_site_symmetry_multiplicity
  _atom_site_fract_x
  _atom_site_fract_y
  _atom_site_fract_z
  _atom_site_occupancy
  Mn  Mn1       1.0  0.25000001013549555  0.24999999824674657  0.25000004957796496  1.0000
  Mn  Mn2       1.0  0.7499999965580832  0.7499999018382701  0.7499998950387656  1.0000
  Y   Y1        1.0  0.9999999557987687  0.9999999907098034  0.9999999751648971  1.0000
  S   S1        1.0  0.2769812950369688  0.27698138169207126  0.7230186053375564  1.0000
  S   S2        1.0  0.7230187888045727  0.7230185759921666  0.2769814569896896  1.0000
  S   S3        1.0  0.7230186700186688  0.2769814189055307  0.2769812719041464  1.0000
  S   S4        1.0  0.2769813205323095  0.7230187766077624  0.7230186165093  1.0000
  S   S5        1.0  0.2769812689611865  0.7230186116950275  0.2769813654688471  1.0000
  S   S6        1.0  0.7230186986437636  0.27698134784725015  0.7230187601160066  1.0000
