data_image0
_chemical_formula_structural       Mn2YSe6
_chemical_formula_sum              "Mn2 Y1 Se6"
_cell_length_a       6.947714011016256
_cell_length_b       6.94771370491105
_cell_length_c       6.947714044675128
_cell_angle_alpha    59.99999821458416
_cell_angle_beta     59.999998377008474
_cell_angle_gamma    59.99999992207871

_space_group_name_H-M_alt    "P 1"
_space_group_IT_number       1

loop_
  _space_group_symop_operation_xyz
  'x, y, z'

loop_
  _atom_site_type_symbol
  _atom_site_label
  _atom_site_symmetry_multiplicity
  _atom_site_fract_x
  _atom_site_fract_y
  _atom_site_fract_z
  _atom_site_occupancy
  Mn  Mn1       1.0  0.25000032203282097  0.2500004392924945  0.24999949645660216  1.0000
  Mn  Mn2       1.0  0.7499994040912987  0.7499998512255538  0.7500005031442226  1.0000
  Y   Y1        1.0  0.9999999748023505  0.9999999559299305  6.198098419033979e-08  1.0000
  Se  Se1       1.0  0.278824542842316  0.2788243769592935  0.7211755460658392  1.0000
  Se  Se2       1.0  0.7211756503231872  0.7211755345561697  0.2788242785372493  1.0000
  Se  Se3       1.0  0.721175398971522  0.2788245456688669  0.2788243585836348  1.0000
  Se  Se4       1.0  0.2788247357076776  0.7211752371619945  0.7211758028503817  1.0000
  Se  Se5       1.0  0.2788247114495112  0.7211754541455646  0.27882417903017526  1.0000
  Se  Se6       1.0  0.7211752741836657  0.2788245913429048  0.7211757888624283  1.0000
