data_image0
_chemical_formula_structural       Mn2ZrSe6
_chemical_formula_sum              "Mn2 Zr1 Se6"
_cell_length_a       6.7633812208596025
_cell_length_b       6.7633809555223285
_cell_length_c       6.763381343355406
_cell_angle_alpha    60.000000255608974
_cell_angle_beta     60.000000535445245
_cell_angle_gamma    60.000002171233355

_space_group_name_H-M_alt    "P 1"
_space_group_IT_number       1

loop_
  _space_group_symop_operation_xyz
  'x, y, z'

loop_
  _atom_site_type_symbol
  _atom_site_label
  _atom_site_symmetry_multiplicity
  _atom_site_fract_x
  _atom_site_fract_y
  _atom_site_fract_z
  _atom_site_occupancy
  Mn  Mn1       1.0  0.2500002312015558  0.2499998170997723  0.2499998516993615  1.0000
  Mn  Mn2       1.0  0.7499999190038618  0.7500001412320415  0.7500001681525732  1.0000
  Zr  Zr1       1.0  0.9999999833947311  0.99999988591663  0.9999998790469706  1.0000
  Se  Se1       1.0  0.27028088402329126  0.2702808224545534  0.7297192195140649  1.0000
  Se  Se2       1.0  0.7297190809995495  0.7297192970426417  0.27028068223403595  1.0000
  Se  Se3       1.0  0.7297191377412353  0.27028087666274075  0.27028090519605824  1.0000
  Se  Se4       1.0  0.27028082228108974  0.7297192066175155  0.7297191531874034  1.0000
  Se  Se5       1.0  0.2702808742063147  0.7297192553234678  0.27028084673196645  1.0000
  Se  Se6       1.0  0.7297190645031495  0.2702806921432573  0.7297192961288901  1.0000
