data_image0
_chemical_formula_structural       Mn2ZrTe6
_chemical_formula_sum              "Mn2 Zr1 Te6"
_cell_length_a       7.403587169732788
_cell_length_b       7.403587162585149
_cell_length_c       7.403587161175459
_cell_angle_alpha    59.999998643374354
_cell_angle_beta     59.99999930940889
_cell_angle_gamma    59.99999987199383

_space_group_name_H-M_alt    "P 1"
_space_group_IT_number       1

loop_
  _space_group_symop_operation_xyz
  'x, y, z'

loop_
  _atom_site_type_symbol
  _atom_site_label
  _atom_site_symmetry_multiplicity
  _atom_site_fract_x
  _atom_site_fract_y
  _atom_site_fract_z
  _atom_site_occupancy
  Mn  Mn1       1.0  0.24999994303982648  0.24999984785846224  0.2500001842625638  1.0000
  Mn  Mn2       1.0  0.7499999904794923  0.7500000514328293  0.7499998818555044  1.0000
  Zr  Zr1       1.0  0.999999931564613  0.9999999900744466  6.349300945347079e-08  1.0000
  Te  Te1       1.0  0.2678443403374278  0.2678442894518719  0.732155680712393  1.0000
  Te  Te2       1.0  0.732155710358313  0.7321557355630847  0.26784433013976294  1.0000
  Te  Te3       1.0  0.7321557182226737  0.2678442810975251  0.2678443109368703  1.0000
  Te  Te4       1.0  0.26784433026738924  0.7321557505344676  0.7321556126157207  1.0000
  Te  Te5       1.0  0.26784427439994013  0.7321557084560442  0.2678443101904228  1.0000
  Te  Te6       1.0  0.7321557638969766  0.26784433971853583  0.7321556290972  1.0000
