data_image0
_chemical_formula_structural       Mn2ZrS6
_chemical_formula_sum              "Mn2 Zr1 S6"
_cell_length_a       6.344192722913819
_cell_length_b       6.344192528743378
_cell_length_c       6.344192559910632
_cell_angle_alpha    60.00000146553419
_cell_angle_beta     59.999999258951426
_cell_angle_gamma    60.0000001749799

_space_group_name_H-M_alt    "P 1"
_space_group_IT_number       1

loop_
  _space_group_symop_operation_xyz
  'x, y, z'

loop_
  _atom_site_type_symbol
  _atom_site_label
  _atom_site_symmetry_multiplicity
  _atom_site_fract_x
  _atom_site_fract_y
  _atom_site_fract_z
  _atom_site_occupancy
  Mn  Mn1       1.0  0.24999983882184998  0.25000001528764676  0.25000010297098646  1.0000
  Mn  Mn2       1.0  0.7499999357834668  0.7500001365963244  0.7499998899578544  1.0000
  Zr  Zr1       1.0  3.375529416594765e-08  0.9999999478765641  0.9999999934216227  1.0000
  S   S1        1.0  0.27230805954465864  0.27230786569689835  0.7276921241630546  1.0000
  S   S2        1.0  0.7276920688049773  0.7276920931373164  0.27230798387284283  1.0000
  S   S3        1.0  0.7276920568857185  0.2723079087595909  0.27230802634908036  1.0000
  S   S4        1.0  0.27230793159133887  0.7276921311555191  0.7276919298145192  1.0000
  S   S5        1.0  0.2723079362467948  0.727692008044404  0.2723080102747328  1.0000
  S   S6        1.0  0.7276921390268839  0.2723079025273652  0.7276919419423084  1.0000
