data_image0
_chemical_formula_structural       Mo2AsN6
_chemical_formula_sum              "Mo2 As1 N6"
_cell_length_a       4.72348819924989
_cell_length_b       4.723487876044072
_cell_length_c       4.723488202435707
_cell_angle_alpha    59.9999991325685
_cell_angle_beta     59.99999968210418
_cell_angle_gamma    59.99999722638093

_space_group_name_H-M_alt    "P 1"
_space_group_IT_number       1

loop_
  _space_group_symop_operation_xyz
  'x, y, z'

loop_
  _atom_site_type_symbol
  _atom_site_label
  _atom_site_symmetry_multiplicity
  _atom_site_fract_x
  _atom_site_fract_y
  _atom_site_fract_z
  _atom_site_occupancy
  Mo  Mo1       1.0  0.2500000711506002  0.25000001733946114  0.24999994068186285  1.0000
  Mo  Mo2       1.0  0.7499996807166089  0.7500007261678404  0.7499999545780954  1.0000
  As  As1       1.0  3.2817735409572956e-08  0.9999999455494669  0.9999999875285237  1.0000
  N   N1        1.0  0.2766824569164369  0.2766817587021293  0.7233179215448552  1.0000
  N   N2        1.0  0.723317930316726  0.7233178854229866  0.276682030005608  1.0000
  N   N3        1.0  0.7233178202066048  0.2766821820244941  0.27668199514414643  1.0000
  N   N4        1.0  0.276682117907659  0.7233177680607604  0.7233179941124293  1.0000
  N   N5        1.0  0.2766820141850984  0.7233178485384534  0.276682140546903  1.0000
  N   N6        1.0  0.7233178486679891  0.27668194597385304  0.7233179683608923  1.0000
