data_image0
_chemical_formula_structural       Mo2AsSe6
_chemical_formula_sum              "Mo2 As1 Se6"
_cell_length_a       6.384566966269898
_cell_length_b       6.384566864199662
_cell_length_c       6.384566893580524
_cell_angle_alpha    59.99999852946966
_cell_angle_beta     59.99999886151327
_cell_angle_gamma    59.99999972953986

_space_group_name_H-M_alt    "P 1"
_space_group_IT_number       1

loop_
  _space_group_symop_operation_xyz
  'x, y, z'

loop_
  _atom_site_type_symbol
  _atom_site_label
  _atom_site_symmetry_multiplicity
  _atom_site_fract_x
  _atom_site_fract_y
  _atom_site_fract_z
  _atom_site_occupancy
  Mo  Mo1       1.0  0.25000005993954105  0.2500000390661789  0.2499997670909336  1.0000
  Mo  Mo2       1.0  0.7499999993493569  0.749999812190467  0.7500000843770238  1.0000
  As  As1       1.0  0.9999999911765141  0.9999999884902622  0.9999999616120265  1.0000
  Se  Se1       1.0  0.2830991966440908  0.28309927576617816  0.7169008417508764  1.0000
  Se  Se2       1.0  0.7169007259197472  0.7169007903389107  0.28309921812714783  1.0000
  Se  Se3       1.0  0.7169007522658911  0.28309931681431927  0.2830991800063883  1.0000
  Se  Se4       1.0  0.2830992096667127  0.7169007396993212  0.716900901007347  1.0000
  Se  Se5       1.0  0.28309928960041136  0.7169008127571416  0.2830991514827106  1.0000
  Se  Se6       1.0  0.7169007892693399  0.2830992130638648  0.7169008973727058  1.0000
