data_image0
_chemical_formula_structural       Mo2AsS6
_chemical_formula_sum              "Mo2 As1 S6"
_cell_length_a       6.239345068098368
_cell_length_b       6.239345514622375
_cell_length_c       6.239345308872712
_cell_angle_alpha    59.999997648971835
_cell_angle_beta     59.99999879164857
_cell_angle_gamma    60.00000027024964

_space_group_name_H-M_alt    "P 1"
_space_group_IT_number       1

loop_
  _space_group_symop_operation_xyz
  'x, y, z'

loop_
  _atom_site_type_symbol
  _atom_site_label
  _atom_site_symmetry_multiplicity
  _atom_site_fract_x
  _atom_site_fract_y
  _atom_site_fract_z
  _atom_site_occupancy
  Mo  Mo1       1.0  0.250000062552109  0.24999964177387335  0.25000015197095843  1.0000
  Mo  Mo2       1.0  0.7499999329905767  0.7500001168250199  0.7500002952186131  1.0000
  As  As1       1.0  0.9999999863909579  1.962932970360151e-09  1.340416352390568e-07  1.0000
  S   S1        1.0  0.26284333220983847  0.2628431181943219  0.7371568371944688  1.0000
  S   S2        1.0  0.7371566629701958  0.7371570801027186  0.2628429351513821  1.0000
  S   S3        1.0  0.7371568017298336  0.2628433891086399  0.2628431363767005  1.0000
  S   S4        1.0  0.2628430662026122  0.7371567856331442  0.7371566793159279  1.0000
  S   S5        1.0  0.26284334018398336  0.7371568454837603  0.2628431712563427  1.0000
  S   S6        1.0  0.7371567402619631  0.26284311922365083  0.7371566383885305  1.0000
