data_image0
_chemical_formula_structural       Mo2AsO6
_chemical_formula_sum              "Mo2 As1 O6"
_cell_length_a       5.083467993286709
_cell_length_b       5.08346814858264
_cell_length_c       5.083468122852708
_cell_angle_alpha    59.999999780832816
_cell_angle_beta     60.000000566202594
_cell_angle_gamma    60.00000001166323

_space_group_name_H-M_alt    "P 1"
_space_group_IT_number       1

loop_
  _space_group_symop_operation_xyz
  'x, y, z'

loop_
  _atom_site_type_symbol
  _atom_site_label
  _atom_site_symmetry_multiplicity
  _atom_site_fract_x
  _atom_site_fract_y
  _atom_site_fract_z
  _atom_site_occupancy
  Mo  Mo1       1.0  0.2499998928094478  0.25000000838750636  0.24999990941766426  1.0000
  Mo  Mo2       1.0  0.7500000933969397  0.7500001022591665  0.7499994153369027  1.0000
  As  As1       1.0  6.149145101323583e-09  0.9999999951814588  6.62181705714165e-08  1.0000
  O   O1        1.0  0.2509669153719305  0.2509670797999659  0.7490332024759256  1.0000
  O   O2        1.0  0.7490330488795189  0.7490328718348596  0.2509671451963263  1.0000
  O   O3        1.0  0.7490329639103226  0.25096684340797043  0.250967196865502  1.0000
  O   O4        1.0  0.2509671538846529  0.749033076906342  0.7490329421581737  1.0000
  O   O5        1.0  0.2509669186263011  0.7490330118727743  0.2509671521209234  1.0000
  O   O6        1.0  0.7490330085688525  0.2509670168587021  0.7490329984866645  1.0000
