data_image0
_chemical_formula_structural       Mo2BeO6
_chemical_formula_sum              "Mo2 Be1 O6"
_cell_length_a       4.699124105776334
_cell_length_b       4.699123793860986
_cell_length_c       4.699123715188917
_cell_angle_alpha    59.999999297684475
_cell_angle_beta     59.99999966056335
_cell_angle_gamma    59.99999800950767

_space_group_name_H-M_alt    "P 1"
_space_group_IT_number       1

loop_
  _space_group_symop_operation_xyz
  'x, y, z'

loop_
  _atom_site_type_symbol
  _atom_site_label
  _atom_site_symmetry_multiplicity
  _atom_site_fract_x
  _atom_site_fract_y
  _atom_site_fract_z
  _atom_site_occupancy
  Mo  Mo1       1.0  0.24999950128049617  0.25000033334503513  0.24999970896389004  1.0000
  Mo  Mo2       1.0  0.7499998395903696  0.7500002363815502  0.7500005305207146  1.0000
  Be  Be1       1.0  1.0548788117005443e-08  5.21265218715153e-09  0.9999999644545472  1.0000
  O   O1        1.0  0.2506635709056681  0.2506632537043162  0.7493368464945125  1.0000
  O   O2        1.0  0.7493367759207695  0.7493364507220033  0.2506631332654099  1.0000
  O   O3        1.0  0.7493366966279388  0.2506633558563566  0.2506633634474796  1.0000
  O   O4        1.0  0.25066334075302105  0.7493365544697257  0.7493365872191649  1.0000
  O   O5        1.0  0.25066350333558124  0.7493364671348675  0.2506633219835978  1.0000
  O   O6        1.0  0.7493367869225542  0.2506633259065395  0.7493364991731578  1.0000
