data_image0
_chemical_formula_structural       Mo2BSe6
_chemical_formula_sum              "Mo2 B1 Se6"
_cell_length_a       6.231937544418061
_cell_length_b       6.231937649412227
_cell_length_c       6.231937651648645
_cell_angle_alpha    59.999999153129274
_cell_angle_beta     59.99999925025185
_cell_angle_gamma    59.99999928600215

_space_group_name_H-M_alt    "P 1"
_space_group_IT_number       1

loop_
  _space_group_symop_operation_xyz
  'x, y, z'

loop_
  _atom_site_type_symbol
  _atom_site_label
  _atom_site_symmetry_multiplicity
  _atom_site_fract_x
  _atom_site_fract_y
  _atom_site_fract_z
  _atom_site_occupancy
  Mo  Mo1       1.0  0.24999989467075662  0.2500000620808426  0.24999999630591666  1.0000
  Mo  Mo2       1.0  0.7500000739062407  0.7499999504099576  0.7499999471890726  1.0000
  B   B1        1.0  0.999999995751554  0.9999999960694572  7.298769194218885e-09  1.0000
  Se  Se1       1.0  0.24106224138706644  0.24106217046540185  0.7589377919590486  1.0000
  Se  Se2       1.0  0.7589378107010162  0.7589378027199691  0.24106220966498074  1.0000
  Se  Se3       1.0  0.7589378139615988  0.24106221729812055  0.24106219362445697  1.0000
  Se  Se4       1.0  0.2410621628874994  0.7589378148453927  0.7589378225585427  1.0000
  Se  Se5       1.0  0.2410621602550986  0.7589377977761576  0.2410622324912185  1.0000
  Se  Se6       1.0  0.7589378377624022  0.2410621930966561  0.7589378049753914  1.0000
