data_image0
_chemical_formula_structural       Mo2BO6
_chemical_formula_sum              "Mo2 B1 O6"
_cell_length_a       4.733315302840443
_cell_length_b       4.733314880906715
_cell_length_c       4.733314905148853
_cell_angle_alpha    59.99999911963485
_cell_angle_beta     60.000001067481335
_cell_angle_gamma    59.9999999571478

_space_group_name_H-M_alt    "P 1"
_space_group_IT_number       1

loop_
  _space_group_symop_operation_xyz
  'x, y, z'

loop_
  _atom_site_type_symbol
  _atom_site_label
  _atom_site_symmetry_multiplicity
  _atom_site_fract_x
  _atom_site_fract_y
  _atom_site_fract_z
  _atom_site_occupancy
  Mo  Mo1       1.0  0.25000005476967346  0.2500000664529416  0.24999989201351333  1.0000
  Mo  Mo2       1.0  0.7499998702394501  0.7500000130588695  0.7500002077757385  1.0000
  B   B1        1.0  0.9999999638257923  2.0699993570123406e-08  6.055421449624408e-08  1.0000
  O   O1        1.0  0.24039578541720183  0.24039562258275882  0.7596043517783341  1.0000
  O   O2        1.0  0.759604344638341  0.7596042369916165  0.24039561813194615  1.0000
  O   O3        1.0  0.7596043196994026  0.24039568471520703  0.24039569881783812  1.0000
  O   O4        1.0  0.24039574774040576  0.7596042602466436  0.7596042554812036  1.0000
  O   O5        1.0  0.24039585910092495  0.7596043775100277  0.2403955507315691  1.0000
  O   O6        1.0  0.7596040770699153  0.24039575633926885  0.7596044275753413  1.0000
