data_image0
_chemical_formula_structural       Mo2BeS6
_chemical_formula_sum              "Mo2 Be1 S6"
_cell_length_a       5.671588529287756
_cell_length_b       5.67158776063283
_cell_length_c       5.67158795965973
_cell_angle_alpha    59.99999983098449
_cell_angle_beta     60.0000035754214
_cell_angle_gamma    60.000004798859344

_space_group_name_H-M_alt    "P 1"
_space_group_IT_number       1

loop_
  _space_group_symop_operation_xyz
  'x, y, z'

loop_
  _atom_site_type_symbol
  _atom_site_label
  _atom_site_symmetry_multiplicity
  _atom_site_fract_x
  _atom_site_fract_y
  _atom_site_fract_z
  _atom_site_occupancy
  Mo  Mo1       1.0  0.2499998234797563  0.2500001240040732  0.24999999690295066  1.0000
  Mo  Mo2       1.0  0.7500000911183593  0.750000030820876  0.7499995935414814  1.0000
  Be  Be1       1.0  0.9999999872903685  2.5913268500806954e-08  0.9999999493188159  1.0000
  S   S1        1.0  0.25361657332326987  0.25361641044737426  0.7463835634559464  1.0000
  S   S2        1.0  0.7463836932524492  0.7463833297652881  0.25361659607408704  1.0000
  S   S3        1.0  0.7463835119770844  0.25361647245766933  0.2536165238762489  1.0000
  S   S4        1.0  0.25361647898113077  0.7463835571198192  0.7463835653058383  1.0000
  S   S5        1.0  0.25361634148576484  0.7463834894268448  0.25361663159935344  1.0000
  S   S6        1.0  0.7463834930545081  0.25361655742614586  0.7463835729964939  1.0000
