data_image0
_chemical_formula_structural       Mo2BS6
_chemical_formula_sum              "Mo2 B1 S6"
_cell_length_a       6.016700772478247
_cell_length_b       6.016700808134201
_cell_length_c       6.016700779698027
_cell_angle_alpha    59.99999973218956
_cell_angle_beta     60.00000113291869
_cell_angle_gamma    60.00000239364906

_space_group_name_H-M_alt    "P 1"
_space_group_IT_number       1

loop_
  _space_group_symop_operation_xyz
  'x, y, z'

loop_
  _atom_site_type_symbol
  _atom_site_label
  _atom_site_symmetry_multiplicity
  _atom_site_fract_x
  _atom_site_fract_y
  _atom_site_fract_z
  _atom_site_occupancy
  Mo  Mo1       1.0  0.24999999918695648  0.2500001838324139  0.250000021286241  1.0000
  Mo  Mo2       1.0  0.7500001100231226  0.7500001219908187  0.7500001143481818  1.0000
  B   B1        1.0  0.99999996799633  0.999999900256798  3.3678602745243585e-07  1.0000
  S   S1        1.0  0.23688917497760867  0.2368891633970333  0.7631108072722234  1.0000
  S   S2        1.0  0.7631106110256621  0.7631107475245521  0.23688916553572828  1.0000
  S   S3        1.0  0.7631107610553635  0.23688909777169148  0.2368891828189852  1.0000
  S   S4        1.0  0.23688930334237035  0.7631108070431755  0.7631105541226704  1.0000
  S   S5        1.0  0.2368894146680758  0.7631107019840218  0.23688911736196092  1.0000
  S   S6        1.0  0.7631106726032043  0.23688927814713776  0.7631106735312821  1.0000
