data_image0
_chemical_formula_structural       Mo2CO6
_chemical_formula_sum              "Mo2 C1 O6"
_cell_length_a       4.658552957552631
_cell_length_b       4.65855276996723
_cell_length_c       4.658553046860014
_cell_angle_alpha    59.99999895633442
_cell_angle_beta     60.00000026683432
_cell_angle_gamma    60.00000010477851

_space_group_name_H-M_alt    "P 1"
_space_group_IT_number       1

loop_
  _space_group_symop_operation_xyz
  'x, y, z'

loop_
  _atom_site_type_symbol
  _atom_site_label
  _atom_site_symmetry_multiplicity
  _atom_site_fract_x
  _atom_site_fract_y
  _atom_site_fract_z
  _atom_site_occupancy
  Mo  Mo1       1.0  0.2499997374575725  0.25000020415771673  0.25000000184910665  1.0000
  Mo  Mo2       1.0  0.7499997138500525  0.7500000077975477  0.750000168769095  1.0000
  C   C1        1.0  0.9999999662995516  3.417731718815264e-08  7.918536872419906e-08  1.0000
  O   O1        1.0  0.2317538380360307  0.23175373441828262  0.7682461961748062  1.0000
  O   O2        1.0  0.7682463076037237  0.7682462014894298  0.23175369446366348  1.0000
  O   O3        1.0  0.7682464288651598  0.23175376640753598  0.23175367818349604  1.0000
  O   O4        1.0  0.23175380037491047  0.7682460748553002  0.7682462909612889  1.0000
  O   O5        1.0  0.23175391786783178  0.7682461762322944  0.23175364514004457  1.0000
  O   O6        1.0  0.7682462879859352  0.2317537649334676  0.7682461998828589  1.0000
