data_image0
_chemical_formula_structural       Mo2CS6
_chemical_formula_sum              "Mo2 C1 S6"
_cell_length_a       5.739842839468843
_cell_length_b       5.7398426476017255
_cell_length_c       5.739842701824384
_cell_angle_alpha    60.00000002792511
_cell_angle_beta     60.00000156369674
_cell_angle_gamma    60.00000229054608

_space_group_name_H-M_alt    "P 1"
_space_group_IT_number       1

loop_
  _space_group_symop_operation_xyz
  'x, y, z'

loop_
  _atom_site_type_symbol
  _atom_site_label
  _atom_site_symmetry_multiplicity
  _atom_site_fract_x
  _atom_site_fract_y
  _atom_site_fract_z
  _atom_site_occupancy
  Mo  Mo1       1.0  0.24999997537673396  0.25000029181140276  0.24999989099452122  1.0000
  Mo  Mo2       1.0  0.7499998566439183  0.7500002993189112  0.74999983898563  1.0000
  C   C1        1.0  0.9999995302485509  1.3549378107413847e-06  7.090063224310467e-07  1.0000
  S   S1        1.0  0.24497552279172452  0.244975461479094  0.7550244799858346  1.0000
  S   S2        1.0  0.7550242028519875  0.7550238856689321  0.24497603493303255  1.0000
  S   S3        1.0  0.7550247058793886  0.244975132555157  0.24497534595707685  1.0000
  S   S4        1.0  0.2449762188035213  0.7550237195605015  0.7550238604861768  1.0000
  S   S5        1.0  0.2449757156602526  0.7550242695872199  0.24497559842817665  1.0000
  S   S6        1.0  0.7550242592666982  0.24497557899449582  0.7550242362458249  1.0000
