data_image0
_chemical_formula_structural       Mo2GaO6
_chemical_formula_sum              "Mo2 Ga1 O6"
_cell_length_a       5.085456428926004
_cell_length_b       5.085456290146087
_cell_length_c       5.085456370386893
_cell_angle_alpha    60.00000148138704
_cell_angle_beta     60.00000188009401
_cell_angle_gamma    60.00000051264512

_space_group_name_H-M_alt    "P 1"
_space_group_IT_number       1

loop_
  _space_group_symop_operation_xyz
  'x, y, z'

loop_
  _atom_site_type_symbol
  _atom_site_label
  _atom_site_symmetry_multiplicity
  _atom_site_fract_x
  _atom_site_fract_y
  _atom_site_fract_z
  _atom_site_occupancy
  Mo  Mo1       1.0  0.2500002737747452  0.2500000951066086  0.24999986441652194  1.0000
  Mo  Mo2       1.0  0.749999890010833  0.7500004635361232  0.7499998616465583  1.0000
  Ga  Ga1       1.0  0.9999999988076523  0.9999999831417024  6.015151068031429e-08  1.0000
  O   O1        1.0  0.2579727175210408  0.2579721256509572  0.7420275242086224  1.0000
  O   O2        1.0  0.7420272638028074  0.7420277610681615  0.2579724992652548  1.0000
  O   O3        1.0  0.7420276387828337  0.2579723474144797  0.25797245851191414  1.0000
  O   O4        1.0  0.25797227419499913  0.7420274718714455  0.7420276584146596  1.0000
  O   O5        1.0  0.2579724111448201  0.7420273456127408  0.2579724570921228  1.0000
  O   O6        1.0  0.7420275730714562  0.257972389381691  0.7420276073692197  1.0000
