data_image0
_chemical_formula_structural       Mo2GaN6
_chemical_formula_sum              "Mo2 Ga1 N6"
_cell_length_a       7.151830120459293
_cell_length_b       5.4028470448259265
_cell_length_c       3.9438150810571657
_cell_angle_alpha    68.05908659906581
_cell_angle_beta     74.77801405101582
_cell_angle_gamma    85.79631970680548

_space_group_name_H-M_alt    "P 1"
_space_group_IT_number       1

loop_
  _space_group_symop_operation_xyz
  'x, y, z'

loop_
  _atom_site_type_symbol
  _atom_site_label
  _atom_site_symmetry_multiplicity
  _atom_site_fract_x
  _atom_site_fract_y
  _atom_site_fract_z
  _atom_site_occupancy
  Mo  Mo1       1.0  0.192916171203686  0.38731732201789065  0.2639689634440708  1.0000
  Mo  Mo2       1.0  0.4367983599793231  0.013141512644374354  0.8043783721882881  1.0000
  Ga  Ga1       1.0  0.9452425365688413  0.9792816519685732  0.09727714006810792  1.0000
  N   N1        1.0  0.16601876946050573  0.2198659903302188  0.8661143040020712  1.0000
  N   N2        1.0  0.0013256091277267235  0.6110783002212881  0.24529597978875659  1.0000
  N   N3        1.0  0.7477794164849572  0.02840756962123831  0.5113317296181559  1.0000
  N   N4        1.0  0.3846177695969185  0.048368004333917414  0.366665520940799  1.0000
  N   N5        1.0  0.38191221941808706  0.6599939417459745  0.028808020776350855  1.0000
  N   N6        1.0  0.7433903684616946  0.05253925147763536  0.8161671458117891  1.0000
