data_image0
_chemical_formula_structural       Mo2GaS6
_chemical_formula_sum              "Mo2 Ga1 S6"
_cell_length_a       6.065177142119446
_cell_length_b       6.065177081977499
_cell_length_c       6.065177111065792
_cell_angle_alpha    59.99999982772542
_cell_angle_beta     59.99999984241088
_cell_angle_gamma    59.99999991944802

_space_group_name_H-M_alt    "P 1"
_space_group_IT_number       1

loop_
  _space_group_symop_operation_xyz
  'x, y, z'

loop_
  _atom_site_type_symbol
  _atom_site_label
  _atom_site_symmetry_multiplicity
  _atom_site_fract_x
  _atom_site_fract_y
  _atom_site_fract_z
  _atom_site_occupancy
  Mo  Mo1       1.0  0.2500000028750856  0.2500000021560071  0.2500000074700206  1.0000
  Mo  Mo2       1.0  0.7500000086252571  0.7500000064680211  0.7499999960299584  1.0000
  Ga  Ga1       1.0  0.9999999904809003  0.9999999999999999  0.9999999684869076  1.0000
  S   S1        1.0  0.2646688513613013  0.26466886176199755  0.7353311409326255  1.0000
  S   S2        1.0  0.7353311462546854  0.7353311428234187  0.26466885998754225  1.0000
  S   S3        1.0  0.7353311401503769  0.2646688585139986  0.2646688576337009  1.0000
  S   S4        1.0  0.26466883225400584  0.73533117030309  0.7353311520202149  1.0000
  S   S5        1.0  0.2646688683783256  0.7353311294081726  0.26466887237721987  1.0000
  S   S6        1.0  0.7353311624110032  0.2646688327718168  0.7353311512953115  1.0000
