data_image0
_chemical_formula_structural       Mo2GaSe6
_chemical_formula_sum              "Mo2 Ga1 Se6"
_cell_length_a       6.325545795177586
_cell_length_b       6.325545878957186
_cell_length_c       6.3255458807613225
_cell_angle_alpha    59.99999938791684
_cell_angle_beta     59.99999918874076
_cell_angle_gamma    59.99999912563229

_space_group_name_H-M_alt    "P 1"
_space_group_IT_number       1

loop_
  _space_group_symop_operation_xyz
  'x, y, z'

loop_
  _atom_site_type_symbol
  _atom_site_label
  _atom_site_symmetry_multiplicity
  _atom_site_fract_x
  _atom_site_fract_y
  _atom_site_fract_z
  _atom_site_occupancy
  Mo  Mo1       1.0  0.2500002803411417  0.2500000308584359  0.2499998393524645  1.0000
  Mo  Mo2       1.0  0.7499999003441851  0.7499999628506888  0.7500001639217121  1.0000
  Ga  Ga1       1.0  1.6539836519123096e-08  0.9999999941914347  0.9999999614356485  1.0000
  Se  Se1       1.0  0.27422965409199346  0.274229674004403  0.7257702579459284  1.0000
  Se  Se2       1.0  0.7257703140843093  0.7257703274494783  0.2742296248047193  1.0000
  Se  Se3       1.0  0.7257702833902256  0.27422968545148546  0.2742296270307044  1.0000
  Se  Se4       1.0  0.2742296919961671  0.7257702888957571  0.7257703731688214  1.0000
  Se  Se5       1.0  0.27422969889433474  0.7257703881694427  0.27422964772969144  1.0000
  Se  Se6       1.0  0.7257701693975529  0.2742296500720185  0.725770487894146  1.0000
