data_image0
_chemical_formula_structural       Mo2IrSe6
_chemical_formula_sum              "Mo2 Ir1 Se6"
_cell_length_a       6.438445778025704
_cell_length_b       6.438446381133052
_cell_length_c       6.438446448548515
_cell_angle_alpha    60.000002856064704
_cell_angle_beta     59.99999770762581
_cell_angle_gamma    59.99999613237791

_space_group_name_H-M_alt    "P 1"
_space_group_IT_number       1

loop_
  _space_group_symop_operation_xyz
  'x, y, z'

loop_
  _atom_site_type_symbol
  _atom_site_label
  _atom_site_symmetry_multiplicity
  _atom_site_fract_x
  _atom_site_fract_y
  _atom_site_fract_z
  _atom_site_occupancy
  Mo  Mo1       1.0  0.25000023027853974  0.2500003545535233  0.2499989199256473  1.0000
  Mo  Mo2       1.0  0.7500005251928091  0.7499996236674917  0.749998373349438  1.0000
  Ir  Ir1       1.0  2.7625896020460106e-08  2.4729064716937663e-08  0.9999996849329545  1.0000
  Se  Se1       1.0  0.26950438742760535  0.2695049769401077  0.7304955521215919  1.0000
  Se  Se2       1.0  0.7304953646865964  0.7304953265635546  0.26950561675817103  1.0000
  Se  Se3       1.0  0.7304951852491042  0.26950435752167273  0.26950482767578765  1.0000
  Se  Se4       1.0  0.26950463530245583  0.7304950842687775  0.7304960699789068  1.0000
  Se  Se5       1.0  0.2695044385322291  0.730495427161567  0.2695050787328387  1.0000
  Se  Se6       1.0  0.7304951365934218  0.26950481547052596  0.7304958751454936  1.0000
