data_image0
_chemical_formula_structural       Mo2NO6
_chemical_formula_sum              "Mo2 N1 O6"
_cell_length_a       4.636470821224033
_cell_length_b       4.6364708274894415
_cell_length_c       4.636470850150477
_cell_angle_alpha    59.999999997896
_cell_angle_beta     60.00000019901336
_cell_angle_gamma    60.00000082977112

_space_group_name_H-M_alt    "P 1"
_space_group_IT_number       1

loop_
  _space_group_symop_operation_xyz
  'x, y, z'

loop_
  _atom_site_type_symbol
  _atom_site_label
  _atom_site_symmetry_multiplicity
  _atom_site_fract_x
  _atom_site_fract_y
  _atom_site_fract_z
  _atom_site_occupancy
  Mo  Mo1       1.0  0.25000002716388836  0.2500000268422682  0.2499999664992879  1.0000
  Mo  Mo2       1.0  0.7500000092938682  0.7500000356205304  0.749999977461215  1.0000
  N   N1        1.0  3.9848012332181876e-07  0.9999997384869984  1.2347278543853542e-07  1.0000
  O   O1        1.0  0.25038597472007595  0.2503860096135875  0.7496139980857356  1.0000
  O   O2        1.0  0.7496139494679296  0.7496138890733888  0.25038607311348915  1.0000
  O   O3        1.0  0.749613919933501  0.25038607468769514  0.25038611628600455  1.0000
  O   O4        1.0  0.2503860120754632  0.7496139798504661  0.7496140003291079  1.0000
  O   O5        1.0  0.2503859064621007  0.7496140589584941  0.2503859444729446  1.0000
  O   O6        1.0  0.7496138054010458  0.2503861778463052  0.7496138050122538  1.0000
