data_image0
_chemical_formula_structural       Mo2PO6
_chemical_formula_sum              "Mo2 P1 O6"
_cell_length_a       4.904472932492527
_cell_length_b       4.904472925408344
_cell_length_c       4.904472983167369
_cell_angle_alpha    60.00000027816324
_cell_angle_beta     60.00000093637356
_cell_angle_gamma    59.99999962530269

_space_group_name_H-M_alt    "P 1"
_space_group_IT_number       1

loop_
  _space_group_symop_operation_xyz
  'x, y, z'

loop_
  _atom_site_type_symbol
  _atom_site_label
  _atom_site_symmetry_multiplicity
  _atom_site_fract_x
  _atom_site_fract_y
  _atom_site_fract_z
  _atom_site_occupancy
  Mo  Mo1       1.0  0.249999712110405  0.2500002584828922  0.25000003844653274  1.0000
  Mo  Mo2       1.0  0.7499999296524296  0.7499999988195388  0.7500002252529571  1.0000
  P   P1        1.0  3.852702368002328e-08  0.9999999550504035  0.9999999644711404  1.0000
  O   O1        1.0  0.24276164030186898  0.24276151452270112  0.7572384173561718  1.0000
  O   O2        1.0  0.7572384917970094  0.7572383806857572  0.2427615436645434  1.0000
  O   O3        1.0  0.7572385104323696  0.24276160494418497  0.24276150392819956  1.0000
  O   O4        1.0  0.24276156149708578  0.7572384001410641  0.7572383975765958  1.0000
  O   O5        1.0  0.24276166963637028  0.7572383313071251  0.2427614629403975  1.0000
  O   O6        1.0  0.7572384562562631  0.2427615189517369  0.7572383972430247  1.0000
