data_image0
_chemical_formula_structural       Mo2PS6
_chemical_formula_sum              "Mo2 P1 S6"
_cell_length_a       6.084414907890666
_cell_length_b       6.084414601377337
_cell_length_c       6.084414982614508
_cell_angle_alpha    59.999999526468976
_cell_angle_beta     60.00000034723092
_cell_angle_gamma    60.00000176930631

_space_group_name_H-M_alt    "P 1"
_space_group_IT_number       1

loop_
  _space_group_symop_operation_xyz
  'x, y, z'

loop_
  _atom_site_type_symbol
  _atom_site_label
  _atom_site_symmetry_multiplicity
  _atom_site_fract_x
  _atom_site_fract_y
  _atom_site_fract_z
  _atom_site_occupancy
  Mo  Mo1       1.0  0.24999972743657878  0.2500000139603361  0.25000011216569556  1.0000
  Mo  Mo2       1.0  0.7500000501208826  0.7500001143462064  0.7499997414496232  1.0000
  P   P1        1.0  0.9999999784334701  3.6232585079294296e-08  0.9999999565090182  1.0000
  S   S1        1.0  0.25102791207738606  0.25102781530600676  0.7489721008969032  1.0000
  S   S2        1.0  0.7489721561527881  0.7489721640443595  0.2510278577192891  1.0000
  S   S3        1.0  0.7489722681966371  0.2510276842845806  0.2510280317875163  1.0000
  S   S4        1.0  0.25102787405114113  0.7489720957865658  0.7489721587444507  1.0000
  S   S5        1.0  0.2510277614483486  0.7489721888233354  0.25102791938321356  1.0000
  S   S6        1.0  0.748972241181021  0.2510279133152387  0.7489720648762099  1.0000
