data_image0
_chemical_formula_structural       Mo2RuO6
_chemical_formula_sum              "Mo2 Ru1 O6"
_cell_length_a       5.347427384879566
_cell_length_b       5.347427306546116
_cell_length_c       5.34742728194467
_cell_angle_alpha    60.000003053440196
_cell_angle_beta     60.000004321168724
_cell_angle_gamma    60.00000280281312

_space_group_name_H-M_alt    "P 1"
_space_group_IT_number       1

loop_
  _space_group_symop_operation_xyz
  'x, y, z'

loop_
  _atom_site_type_symbol
  _atom_site_label
  _atom_site_symmetry_multiplicity
  _atom_site_fract_x
  _atom_site_fract_y
  _atom_site_fract_z
  _atom_site_occupancy
  Mo  Mo1       1.0  0.24999940521952818  0.2500000274861166  0.24999958715605855  1.0000
  Mo  Mo2       1.0  0.749999778482807  0.7500003756224154  0.7499984842543197  1.0000
  Ru  Ru1       1.0  2.6608344612164988e-09  1.1451722392721882e-08  1.0327715307774748e-07  1.0000
  O   O1        1.0  0.24897930367986518  0.24897912525912436  0.7510212108416584  1.0000
  O   O2        1.0  0.7510210561202588  0.751020599907636  0.24897967090587156  1.0000
  O   O3        1.0  0.7510207973270896  0.24897896471665254  0.24897960010943096  1.0000
  O   O4        1.0  0.24897952534851933  0.751020819999046  0.7510209113747219  1.0000
  O   O5        1.0  0.248979009739725  0.7510209181230492  0.24897967131339255  1.0000
  O   O6        1.0  0.7510210734604225  0.2489791574663406  0.7510207321890863  1.0000
