data_image0
_chemical_formula_structural       Mo2RhS6
_chemical_formula_sum              "Mo2 Rh1 S6"
_cell_length_a       6.05192346576409
_cell_length_b       6.051923475053593
_cell_length_c       6.0519234774475335
_cell_angle_alpha    59.99999983496799
_cell_angle_beta     59.99999979254849
_cell_angle_gamma    60.00000009166343

_space_group_name_H-M_alt    "P 1"
_space_group_IT_number       1

loop_
  _space_group_symop_operation_xyz
  'x, y, z'

loop_
  _atom_site_type_symbol
  _atom_site_label
  _atom_site_symmetry_multiplicity
  _atom_site_fract_x
  _atom_site_fract_y
  _atom_site_fract_z
  _atom_site_occupancy
  Mo  Mo1       1.0  0.2499999608126744  0.2499999522792039  0.25000002823525724  1.0000
  Mo  Mo2       1.0  0.7499999863919521  0.7500000086172333  0.7500000477191938  1.0000
  Rh  Rh1       1.0  0.9999999962997602  0.9999999939288151  6.767566690814048e-08  1.0000
  S   S1        1.0  0.268146987425211  0.2681469640935947  0.731853004235041  1.0000
  S   S2        1.0  0.731853031800197  0.7318530554909629  0.26814691218002706  1.0000
  S   S3        1.0  0.7318530423872588  0.2681470139005414  0.26814688426397937  1.0000
  S   S4        1.0  0.268146968627497  0.7318530360399405  0.7318530508210624  1.0000
  S   S5        1.0  0.2681469591330138  0.7318530264684335  0.26814698236782475  1.0000
  S   S6        1.0  0.7318530773998945  0.2681469526415583  0.7318530265967702  1.0000
