data_image0
_chemical_formula_structural       Mo2RhO6
_chemical_formula_sum              "Mo2 Rh1 O6"
_cell_length_a       5.284268937341405
_cell_length_b       5.284269098784581
_cell_length_c       5.28426911831916
_cell_angle_alpha    60.00000101923564
_cell_angle_beta     60.000000153006724
_cell_angle_gamma    60.000000606634075

_space_group_name_H-M_alt    "P 1"
_space_group_IT_number       1

loop_
  _space_group_symop_operation_xyz
  'x, y, z'

loop_
  _atom_site_type_symbol
  _atom_site_label
  _atom_site_symmetry_multiplicity
  _atom_site_fract_x
  _atom_site_fract_y
  _atom_site_fract_z
  _atom_site_occupancy
  Mo  Mo1       1.0  0.24999962224873412  0.25000056657978514  0.24999929529813794  1.0000
  Mo  Mo2       1.0  0.7500002376562817  0.7500007402038789  0.7499992395523771  1.0000
  Rh  Rh1       1.0  0.9999999993827217  0.9999999559633475  2.043455579387836e-08  1.0000
  O   O1        1.0  0.2562204425264967  0.25622016138323356  0.743780043697382  1.0000
  O   O2        1.0  0.7437797622644177  0.7437795600809464  0.2562203736069156  1.0000
  O   O3        1.0  0.7437798776922344  0.25621993683221655  0.25622072995397494  1.0000
  O   O4        1.0  0.2562202427446425  0.7437793952552465  0.74377993935497  1.0000
  O   O5        1.0  0.25622010965236147  0.7437795002478763  0.2562206027524368  1.0000
  O   O6        1.0  0.7437797090041689  0.2562202258517401  0.743779693053797  1.0000
