data_image0
_chemical_formula_structural       Mo2RuS6
_chemical_formula_sum              "Mo2 Ru1 S6"
_cell_length_a       5.997948107711174
_cell_length_b       5.997948190526454
_cell_length_c       5.9979481968554405
_cell_angle_alpha    59.99999876485546
_cell_angle_beta     59.9999986791005
_cell_angle_gamma    59.999999903021624

_space_group_name_H-M_alt    "P 1"
_space_group_IT_number       1

loop_
  _space_group_symop_operation_xyz
  'x, y, z'

loop_
  _atom_site_type_symbol
  _atom_site_label
  _atom_site_symmetry_multiplicity
  _atom_site_fract_x
  _atom_site_fract_y
  _atom_site_fract_z
  _atom_site_occupancy
  Mo  Mo1       1.0  0.2500000343729142  0.25000000705555214  0.24999992569632845  1.0000
  Mo  Mo2       1.0  0.7500000172639646  0.7500000477118703  0.7500000251517894  1.0000
  Ru  Ru1       1.0  0.9999999849089949  5.10484934173885e-08  2.028097147900789e-09  1.0000
  S   S1        1.0  0.26962942772721277  0.26962940764330995  0.7303705937085987  1.0000
  S   S2        1.0  0.7303705741291573  0.7303705654465226  0.26962941953409586  1.0000
  S   S3        1.0  0.7303705718557273  0.26962941477400937  0.2696294393461688  1.0000
  S   S4        1.0  0.26962944044390214  0.7303705154350885  0.7303705851135535  1.0000
  S   S5        1.0  0.2696293719583735  0.730370628483083  0.269629406139965  1.0000
  S   S6        1.0  0.7303706002231802  0.26962935277450834  0.7303706111873114  1.0000
