data_image0
_chemical_formula_structural       Mo2SO6
_chemical_formula_sum              "Mo2 S1 O6"
_cell_length_a       4.907900457939614
_cell_length_b       4.907900425005517
_cell_length_c       4.9079006626011354
_cell_angle_alpha    59.99999929740468
_cell_angle_beta     59.999998605785315
_cell_angle_gamma    59.9999998342539

_space_group_name_H-M_alt    "P 1"
_space_group_IT_number       1

loop_
  _space_group_symop_operation_xyz
  'x, y, z'

loop_
  _atom_site_type_symbol
  _atom_site_label
  _atom_site_symmetry_multiplicity
  _atom_site_fract_x
  _atom_site_fract_y
  _atom_site_fract_z
  _atom_site_occupancy
  Mo  Mo1       1.0  0.24999994249302454  0.2500000031080064  0.25000013251886893  1.0000
  Mo  Mo2       1.0  0.7499999256049831  0.7500000043331058  0.7500001227856309  1.0000
  S   S1        1.0  5.394577878048234e-09  4.9909114610468024e-09  0.9999999703568827  1.0000
  O   O1        1.0  0.2397586399660146  0.23975863743979225  0.7602413705191025  1.0000
  O   O2        1.0  0.7602414022346301  0.7602413700013191  0.23975861639381565  1.0000
  O   O3        1.0  0.7602413742972757  0.2397586628488887  0.2397585538126022  1.0000
  O   O4        1.0  0.23975863135232306  0.7602413695467806  0.7602414042605322  1.0000
  O   O5        1.0  0.23975864192913784  0.760241359223466  0.23975857132800266  1.0000
  O   O6        1.0  0.7602414632735446  0.23975859331761598  0.7602412872445167  1.0000
