data_image0
_chemical_formula_structural       N2CO6
_chemical_formula_sum              "N2 C1 O6"
_cell_length_a       4.992662721969288
_cell_length_b       4.992643554570346
_cell_length_c       4.9926591976402905
_cell_angle_alpha    59.9999078801655
_cell_angle_beta     59.999880652757355
_cell_angle_gamma    59.999956146141706

_space_group_name_H-M_alt    "P 1"
_space_group_IT_number       1

loop_
  _space_group_symop_operation_xyz
  'x, y, z'

loop_
  _atom_site_type_symbol
  _atom_site_label
  _atom_site_symmetry_multiplicity
  _atom_site_fract_x
  _atom_site_fract_y
  _atom_site_fract_z
  _atom_site_occupancy
  N   N1        1.0  0.2500004968480094  0.249999594442593  0.2499993382179796  1.0000
  N   N2        1.0  0.7500029474293595  0.7500007335460246  0.749997967532657  1.0000
  C   C1        1.0  2.1943804985261234e-06  1.0548340763796201e-07  0.9999957334900564  1.0000
  O   O1        1.0  0.21380193414848941  0.2138060810802676  0.7861966501880641  1.0000
  O   O2        1.0  0.7861980623134005  0.7861937317555883  0.21380548322901322  1.0000
  O   O3        1.0  0.7861973290543605  0.21380188691728202  0.21380548040617495  1.0000
  O   O4        1.0  0.21380126015887108  0.7861962430892718  0.7861977774337199  1.0000
  O   O5        1.0  0.21380114314029977  0.7861961908190026  0.21380697239900642  1.0000
  O   O6        1.0  0.7861977702322223  0.2138022433727773  0.7861964499711194  1.0000
