data_image0
_chemical_formula_structural       Na2AsO6
_chemical_formula_sum              "Na2 As1 O6"
_cell_length_a       5.941100287737474
_cell_length_b       5.941100629363485
_cell_length_c       5.941099659468403
_cell_angle_alpha    60.000005214737605
_cell_angle_beta     60.000004750166745
_cell_angle_gamma    60.00000460512514

_space_group_name_H-M_alt    "P 1"
_space_group_IT_number       1

loop_
  _space_group_symop_operation_xyz
  'x, y, z'

loop_
  _atom_site_type_symbol
  _atom_site_label
  _atom_site_symmetry_multiplicity
  _atom_site_fract_x
  _atom_site_fract_y
  _atom_site_fract_z
  _atom_site_occupancy
  Na  Na1       1.0  0.2500000107129109  0.24999994947363702  0.2500000253326962  1.0000
  Na  Na2       1.0  0.7499999949714483  0.7500000648760959  0.7499999779381873  1.0000
  As  As1       1.0  3.928597700715413e-08  0.9999998763113236  0.9999999412099455  1.0000
  O   O1        1.0  0.2133550253556218  0.21335506232272838  0.7866450151982797  1.0000
  O   O2        1.0  0.786644518773813  0.7866451705436661  0.21335513315639187  1.0000
  O   O3        1.0  0.7866452311245362  0.2133547278566469  0.2133553057870615  1.0000
  O   O4        1.0  0.2133551551750025  0.7866448618286298  0.786644594952399  1.0000
  O   O5        1.0  0.2133549575328309  0.7866452697966465  0.2133553219210529  1.0000
  O   O6        1.0  0.7866449709943467  0.2133549177172331  0.7866447966157847  1.0000
