data_image0
_chemical_formula_structural       Na2AsSe6
_chemical_formula_sum              "Na2 As1 Se6"
_cell_length_a       6.550461925703613
_cell_length_b       6.55046253947548
_cell_length_c       6.550462048043246
_cell_angle_alpha    59.9999992790204
_cell_angle_beta     60.00000189501725
_cell_angle_gamma    60.000000084598334

_space_group_name_H-M_alt    "P 1"
_space_group_IT_number       1

loop_
  _space_group_symop_operation_xyz
  'x, y, z'

loop_
  _atom_site_type_symbol
  _atom_site_label
  _atom_site_symmetry_multiplicity
  _atom_site_fract_x
  _atom_site_fract_y
  _atom_site_fract_z
  _atom_site_occupancy
  Na  Na1       1.0  0.25000002495905194  0.24999997660549259  0.25000003088576933  1.0000
  Na  Na2       1.0  0.7500000410269002  0.7500000102139048  0.7499999579411992  1.0000
  As  As1       1.0  3.112509559235679e-08  0.9999999700846856  0.9999998757397115  1.0000
  Se  Se1       1.0  0.2872168778508504  0.2872169384453747  0.7127830250089119  1.0000
  Se  Se2       1.0  0.7127832705332676  0.712783472797624  0.2872165775921061  1.0000
  Se  Se3       1.0  0.7127830647664655  0.28721676184631645  0.2872168441238481  1.0000
  Se  Se4       1.0  0.2872165672004513  0.7127833371555411  0.7127832018119261  1.0000
  Se  Se5       1.0  0.2872168367317828  0.7127830144908498  0.28721704395461634  1.0000
  Se  Se6       1.0  0.7127832918314656  0.287216525468447  0.7127834316494709  1.0000
