data_image0
_chemical_formula_structural       Na2BiS6
_chemical_formula_sum              "Na2 Bi1 S6"
_cell_length_a       6.724431354313195
_cell_length_b       6.724431608497061
_cell_length_c       6.724431879553422
_cell_angle_alpha    59.99999968218859
_cell_angle_beta     59.99999867716826
_cell_angle_gamma    60.00000854854247

_space_group_name_H-M_alt    "P 1"
_space_group_IT_number       1

loop_
  _space_group_symop_operation_xyz
  'x, y, z'

loop_
  _atom_site_type_symbol
  _atom_site_label
  _atom_site_symmetry_multiplicity
  _atom_site_fract_x
  _atom_site_fract_y
  _atom_site_fract_z
  _atom_site_occupancy
  Na  Na1       1.0  0.24999995346536727  0.25000000483955936  0.2500000296434471  1.0000
  Na  Na2       1.0  0.7500000181675983  0.7500000254467083  0.7500000149903809  1.0000
  Bi  Bi1       1.0  0.9999999895422467  0.9999999180398866  1.0569351170838704e-07  1.0000
  S   S1        1.0  0.2574135096604642  0.2574134158603464  0.7425865372735764  1.0000
  S   S2        1.0  0.7425864863253984  0.7425865980339001  0.2574134052302584  1.0000
  S   S3        1.0  0.7425863857432132  0.2574136256301379  0.25741366168353574  1.0000
  S   S4        1.0  0.25741367428096157  0.7425863919067864  0.7425862588767206  1.0000
  S   S5        1.0  0.2574135557698519  0.7425863940967633  0.25741377630263745  1.0000
  S   S6        1.0  0.7425863302128404  0.25741362526148087  0.7425862705197895  1.0000
