data_image0
_chemical_formula_structural       Na2BiTe6
_chemical_formula_sum              "Na2 Bi1 Te6"
_cell_length_a       7.683433887666583
_cell_length_b       7.683433790510418
_cell_length_c       7.683433680327422
_cell_angle_alpha    60.00000076100932
_cell_angle_beta     60.00000015533537
_cell_angle_gamma    59.999999320027605

_space_group_name_H-M_alt    "P 1"
_space_group_IT_number       1

loop_
  _space_group_symop_operation_xyz
  'x, y, z'

loop_
  _atom_site_type_symbol
  _atom_site_label
  _atom_site_symmetry_multiplicity
  _atom_site_fract_x
  _atom_site_fract_y
  _atom_site_fract_z
  _atom_site_occupancy
  Na  Na1       1.0  0.2500000138412018  0.24999999248516605  0.25000001288349855  1.0000
  Na  Na2       1.0  0.7499999853713869  0.7500000061476276  0.7499999847024659  1.0000
  Bi  Bi1       1.0  0.9999999927436252  1.275205766532478e-08  1.5473178836023686e-08  1.0000
  Te  Te1       1.0  0.2813986312862161  0.2813986371481799  0.7186013608772072  1.0000
  Te  Te2       1.0  0.7186013891927583  0.7186014284329153  0.28139858609390656  1.0000
  Te  Te3       1.0  0.7186013789098467  0.28139859163090314  0.2813986307271785  1.0000
  Te  Te4       1.0  0.28139861157480633  0.7186013655577037  0.7186013489952996  1.0000
  Te  Te5       1.0  0.2813986084463495  0.7186013756710061  0.2813986728747649  1.0000
  Te  Te6       1.0  0.7186013904328702  0.2813985878936299  0.7186013866630119  1.0000
