data_image0
_chemical_formula_structural       Na2BiSe6
_chemical_formula_sum              "Na2 Bi1 Se6"
_cell_length_a       6.9451243726080465
_cell_length_b       6.945124535742526
_cell_length_c       6.945124389548744
_cell_angle_alpha    59.99999552658312
_cell_angle_beta     60.000001141616714
_cell_angle_gamma    59.99999875299084

_space_group_name_H-M_alt    "P 1"
_space_group_IT_number       1

loop_
  _space_group_symop_operation_xyz
  'x, y, z'

loop_
  _atom_site_type_symbol
  _atom_site_label
  _atom_site_symmetry_multiplicity
  _atom_site_fract_x
  _atom_site_fract_y
  _atom_site_fract_z
  _atom_site_occupancy
  Na  Na1       1.0  0.24999998598643963  0.2500000256621342  0.2499999975489607  1.0000
  Na  Na2       1.0  0.7499999936146288  0.7499999799961059  0.749999977238891  1.0000
  Bi  Bi1       1.0  1.7096316224694428e-07  0.9999999858923104  8.571619411252415e-08  1.0000
  Se  Se1       1.0  0.2944580670846181  0.29445836382594115  0.705541942848844  1.0000
  Se  Se2       1.0  0.7055414240964205  0.7055416506495724  0.2944586561827397  1.0000
  Se  Se3       1.0  0.7055420550595656  0.2944580877652493  0.29445802550336014  1.0000
  Se  Se4       1.0  0.29445867398227404  0.705541415306924  0.7055413636624206  1.0000
  Se  Se5       1.0  0.2944581738437177  0.7055418680546532  0.2944583354406512  1.0000
  Se  Se6       1.0  0.7055414664097245  0.29445861197432094  0.7055416279901267  1.0000
