data_image0
_chemical_formula_structural       Na2BiO6
_chemical_formula_sum              "Na2 Bi1 O6"
_cell_length_a       5.586288435713849
_cell_length_b       5.586288968432451
_cell_length_c       5.586288350942895
_cell_angle_alpha    60.000006776005264
_cell_angle_beta     59.999997281203484
_cell_angle_gamma    60.00000678973059

_space_group_name_H-M_alt    "P 1"
_space_group_IT_number       1

loop_
  _space_group_symop_operation_xyz
  'x, y, z'

loop_
  _atom_site_type_symbol
  _atom_site_label
  _atom_site_symmetry_multiplicity
  _atom_site_fract_x
  _atom_site_fract_y
  _atom_site_fract_z
  _atom_site_occupancy
  Na  Na1       1.0  0.2500000427208253  0.24999996322100757  0.2499999851176774  1.0000
  Na  Na2       1.0  0.7499999657629287  0.7500000234001571  0.7499999893753168  1.0000
  Bi  Bi1       1.0  9.937470418525272e-09  5.700271037544558e-08  0.999999877025043  1.0000
  O   O1        1.0  0.2601161462170059  0.260116120846937  0.7398839233832347  1.0000
  O   O2        1.0  0.7398839521089453  0.7398838876983541  0.26011606146019794  1.0000
  O   O3        1.0  0.7398838931714705  0.26011609333027447  0.2601160331504677  1.0000
  O   O4        1.0  0.2601160444888232  0.739883994141847  0.7398839764515079  1.0000
  O   O5        1.0  0.2601160897537739  0.7398838244450872  0.2601161012411857  1.0000
  O   O6        1.0  0.7398839422625967  0.2601160481706547  0.7398840312643415  1.0000
