data_image0
_chemical_formula_structural       Na2GaO6
_chemical_formula_sum              "Na2 Ga1 O6"
_cell_length_a       5.132524391319837
_cell_length_b       5.132528245509921
_cell_length_c       5.132525230848352
_cell_angle_alpha    60.00002196265454
_cell_angle_beta     59.999993404309954
_cell_angle_gamma    59.99998766638301

_space_group_name_H-M_alt    "P 1"
_space_group_IT_number       1

loop_
  _space_group_symop_operation_xyz
  'x, y, z'

loop_
  _atom_site_type_symbol
  _atom_site_label
  _atom_site_symmetry_multiplicity
  _atom_site_fract_x
  _atom_site_fract_y
  _atom_site_fract_z
  _atom_site_occupancy
  Na  Na1       1.0  0.2500000101887122  0.25000000630478714  0.2499999425859535  1.0000
  Na  Na2       1.0  0.7500000239532921  0.7500000117556449  0.7499998950427594  1.0000
  Ga  Ga1       1.0  0.9999998515772937  3.507773741118539e-07  0.9999994117330083  1.0000
  O   O1        1.0  0.26108412586660107  0.26108429827624025  0.7389158527705417  1.0000
  O   O2        1.0  0.7389158044039187  0.7389154644565278  0.2610845560778333  1.0000
  O   O3        1.0  0.7389155847140326  0.2610843055603462  0.2610842416901463  1.0000
  O   O4        1.0  0.2610841929071737  0.7389157936323651  0.7389158823654136  1.0000
  O   O5        1.0  0.2610841166564122  0.7389158302705457  0.26108430667175875  1.0000
  O   O6        1.0  0.7389162673621994  0.261084008821736  0.7389158546580387  1.0000
