data_image0
_chemical_formula_structural       Na2GaSe6
_chemical_formula_sum              "Na2 Ga1 Se6"
_cell_length_a       6.520736298549245
_cell_length_b       6.520737153792426
_cell_length_c       6.520737529665764
_cell_angle_alpha    59.99999949236969
_cell_angle_beta     59.99999778675457
_cell_angle_gamma    60.000001688044726

_space_group_name_H-M_alt    "P 1"
_space_group_IT_number       1

loop_
  _space_group_symop_operation_xyz
  'x, y, z'

loop_
  _atom_site_type_symbol
  _atom_site_label
  _atom_site_symmetry_multiplicity
  _atom_site_fract_x
  _atom_site_fract_y
  _atom_site_fract_z
  _atom_site_occupancy
  Na  Na1       1.0  0.2499999782812952  0.2500000333221638  0.24999994390986013  1.0000
  Na  Na2       1.0  0.7499999946955824  0.7499999947855739  0.7500000276874721  1.0000
  Ga  Ga1       1.0  1.1365744202842114e-07  0.9999997971510872  0.999999944913761  1.0000
  Se  Se1       1.0  0.2820068684618183  0.2820066865108759  0.7179931866000142  1.0000
  Se  Se2       1.0  0.71799311409049  0.7179929941241868  0.2820068496632545  1.0000
  Se  Se3       1.0  0.7179928806137619  0.2820072035870337  0.28200688869816115  1.0000
  Se  Se4       1.0  0.28200667005923113  0.7179933955028285  0.7179933336766422  1.0000
  Se  Se5       1.0  0.282007047044403  0.7179931623298665  0.2820065735982153  1.0000
  Se  Se6       1.0  0.7179933575659384  0.28200673430172457  0.7179932494540389  1.0000
