data_image0
_chemical_formula_structural       Na2GaTe6
_chemical_formula_sum              "Na2 Ga1 Te6"
_cell_length_a       7.347605494557096
_cell_length_b       7.347607441749641
_cell_length_c       7.347605382874986
_cell_angle_alpha    60.00000163696479
_cell_angle_beta     60.000009288238054
_cell_angle_gamma    59.999994999689505

_space_group_name_H-M_alt    "P 1"
_space_group_IT_number       1

loop_
  _space_group_symop_operation_xyz
  'x, y, z'

loop_
  _atom_site_type_symbol
  _atom_site_label
  _atom_site_symmetry_multiplicity
  _atom_site_fract_x
  _atom_site_fract_y
  _atom_site_fract_z
  _atom_site_occupancy
  Na  Na1       1.0  0.24999998250103642  0.2500002032206599  0.24999992001007493  1.0000
  Na  Na2       1.0  0.7499998396804716  0.7500000279271036  0.7500000925601193  1.0000
  Ga  Ga1       1.0  1.967580660549373e-07  0.9999991315647861  3.8075122869802553e-07  1.0000
  Te  Te1       1.0  0.27130846414039794  0.2713092262914073  0.7286911159275192  1.0000
  Te  Te2       1.0  0.7286922212239533  0.7286910931999493  0.27130830519556115  1.0000
  Te  Te3       1.0  0.7286911264668287  0.27130872602471623  0.271308872361671  1.0000
  Te  Te4       1.0  0.27130853737121857  0.7286914851206688  0.7286916771463622  1.0000
  Te  Te5       1.0  0.27130846834024736  0.7286915848837945  0.2713080619706378  1.0000
  Te  Te6       1.0  0.7286911707671796  0.2713085495860526  0.7286915542464245  1.0000
