data_image0
_chemical_formula_structural       Na2GaS6
_chemical_formula_sum              "Na2 Ga1 S6"
_cell_length_a       6.253210954311689
_cell_length_b       6.253210313266316
_cell_length_c       6.253210965048638
_cell_angle_alpha    60.000001023386
_cell_angle_beta     60.00000391755576
_cell_angle_gamma    59.99999982440492

_space_group_name_H-M_alt    "P 1"
_space_group_IT_number       1

loop_
  _space_group_symop_operation_xyz
  'x, y, z'

loop_
  _atom_site_type_symbol
  _atom_site_label
  _atom_site_symmetry_multiplicity
  _atom_site_fract_x
  _atom_site_fract_y
  _atom_site_fract_z
  _atom_site_occupancy
  Na  Na1       1.0  0.24999997767221252  0.25000001609659994  0.24999996909446018  1.0000
  Na  Na2       1.0  0.7499999545610835  0.7499999836564729  0.7500000279768813  1.0000
  Ga  Ga1       1.0  2.0989481636084592e-07  0.9999999353666936  5.814332209043982e-07  1.0000
  S   S1        1.0  0.2572545669094322  0.2572546278401821  0.74274549499852  1.0000
  S   S2        1.0  0.7427454902219932  0.7427452132674459  0.25725458931032785  1.0000
  S   S3        1.0  0.7427453576271529  0.25725459371700715  0.25725452290980594  1.0000
  S   S4        1.0  0.2572546189623048  0.7427453394441381  0.7427451686420914  1.0000
  S   S5        1.0  0.25725461123779625  0.7427455591155006  0.2572544120303734  1.0000
  S   S6        1.0  0.7427452159039434  0.25725472267391397  0.7427452295057863  1.0000
