data_image0
_chemical_formula_structural       Na2NO6
_chemical_formula_sum              "Na2 N1 O6"
_cell_length_a       5.60291718579997
_cell_length_b       5.602916914196565
_cell_length_c       5.6029173549804305
_cell_angle_alpha    59.999999156329864
_cell_angle_beta     59.999997616571626
_cell_angle_gamma    60.00000150296485

_space_group_name_H-M_alt    "P 1"
_space_group_IT_number       1

loop_
  _space_group_symop_operation_xyz
  'x, y, z'

loop_
  _atom_site_type_symbol
  _atom_site_label
  _atom_site_symmetry_multiplicity
  _atom_site_fract_x
  _atom_site_fract_y
  _atom_site_fract_z
  _atom_site_occupancy
  Na  Na1       1.0  0.24999994284384328  0.25000028921530637  0.24999921940065345  1.0000
  Na  Na2       1.0  0.750000167903916  0.7500001462970434  0.7499992252590347  1.0000
  N   N1        1.0  7.414556811924322e-08  2.907254342802429e-07  0.9999981023866059  1.0000
  O   O1        1.0  0.19633737918674507  0.19633671845608094  0.8036640788286382  1.0000
  O   O2        1.0  0.8036629615093818  0.8036635465557134  0.19633794315659564  1.0000
  O   O3        1.0  0.8036641341625307  0.19633548635359477  0.19633767079285064  1.0000
  O   O4        1.0  0.1963386551854754  0.8036610866633068  0.803663395114325  1.0000
  O   O5        1.0  0.1963355091701047  0.8036640026769007  0.19633743078711932  1.0000
  O   O6        1.0  0.8036608877711329  0.19633867120291773  0.8036631312305754  1.0000
