data_image0
_chemical_formula_structural       Na2SbO6
_chemical_formula_sum              "Na2 Sb1 O6"
_cell_length_a       5.879374184630654
_cell_length_b       5.879374867749847
_cell_length_c       5.879374803442017
_cell_angle_alpha    59.99999577376831
_cell_angle_beta     59.99999852034231
_cell_angle_gamma    59.99999925653737

_space_group_name_H-M_alt    "P 1"
_space_group_IT_number       1

loop_
  _space_group_symop_operation_xyz
  'x, y, z'

loop_
  _atom_site_type_symbol
  _atom_site_label
  _atom_site_symmetry_multiplicity
  _atom_site_fract_x
  _atom_site_fract_y
  _atom_site_fract_z
  _atom_site_occupancy
  Na  Na1       1.0  0.2500001561189539  0.2499997547508627  0.25000002577951863  1.0000
  Na  Na2       1.0  0.7499999984124732  0.7500002204051075  0.7500000060214228  1.0000
  Sb  Sb1       1.0  0.99999998589468  1.8748111229119424e-08  0.9999996217882965  1.0000
  O   O1        1.0  0.2375870644531286  0.2375869362210004  0.7624130046392898  1.0000
  O   O2        1.0  0.7624129970561687  0.7624130764311462  0.23758707873668145  1.0000
  O   O3        1.0  0.7624128625960037  0.2375871354348813  0.2375870071485112  1.0000
  O   O4        1.0  0.23758706254040118  0.762413162604847  0.762412877557242  1.0000
  O   O5        1.0  0.2375870680186731  0.7624129376482376  0.23758707244003893  1.0000
  O   O6        1.0  0.7624128593678733  0.23758686460869172  0.7624131695880328  1.0000
