data_image0
_chemical_formula_structural       Na2SbSe6
_chemical_formula_sum              "Na2 Sb1 Se6"
_cell_length_a       6.763915156007396
_cell_length_b       6.763915116835886
_cell_length_c       6.763915244523236
_cell_angle_alpha    59.999999944237544
_cell_angle_beta     60.00000285620044
_cell_angle_gamma    60.00000052912104

_space_group_name_H-M_alt    "P 1"
_space_group_IT_number       1

loop_
  _space_group_symop_operation_xyz
  'x, y, z'

loop_
  _atom_site_type_symbol
  _atom_site_label
  _atom_site_symmetry_multiplicity
  _atom_site_fract_x
  _atom_site_fract_y
  _atom_site_fract_z
  _atom_site_occupancy
  Na  Na1       1.0  0.2499999888427388  0.2500000055264172  0.2499999905502579  1.0000
  Na  Na2       1.0  0.7500000197604771  0.7500000002829148  0.7499999827514863  1.0000
  Sb  Sb1       1.0  0.9999999776679822  6.699605141756461e-08  0.9999999554914779  1.0000
  Se  Se1       1.0  0.2904683113557165  0.2904685799316818  0.7095316759956709  1.0000
  Se  Se2       1.0  0.7095314916795586  0.7095316123801698  0.2904685271253956  1.0000
  Se  Se3       1.0  0.7095318078088713  0.29046825609799054  0.29046823449464915  1.0000
  Se  Se4       1.0  0.2904685502657875  0.709531387570526  0.709531443541321  1.0000
  Se  Se5       1.0  0.2904683331626391  0.7095316182259316  0.290468565997387  1.0000
  Se  Se6       1.0  0.7095315106045922  0.29046846725437914  0.7095316287773298  1.0000
