data_image0
_chemical_formula_structural       Na2SbTe6
_chemical_formula_sum              "Na2 Sb1 Te6"
_cell_length_a       7.561022273514298
_cell_length_b       7.561022388103001
_cell_length_c       7.561022298158995
_cell_angle_alpha    60.00000053085892
_cell_angle_beta     60.00000054983719
_cell_angle_gamma    60.000000855464414

_space_group_name_H-M_alt    "P 1"
_space_group_IT_number       1

loop_
  _space_group_symop_operation_xyz
  'x, y, z'

loop_
  _atom_site_type_symbol
  _atom_site_label
  _atom_site_symmetry_multiplicity
  _atom_site_fract_x
  _atom_site_fract_y
  _atom_site_fract_z
  _atom_site_occupancy
  Na  Na1       1.0  0.2500000150875806  0.2500000011064673  0.24999998030106454  1.0000
  Na  Na2       1.0  0.7500000012525787  0.7499999887410772  0.7500000098746117  1.0000
  Sb  Sb1       1.0  0.9999999992588912  3.887553179940487e-08  4.3093695069056314e-08  1.0000
  Te  Te1       1.0  0.27605432241791117  0.27605434977133614  0.7239456737429093  1.0000
  Te  Te2       1.0  0.7239455808663309  0.7239455623251444  0.27605443696513404  1.0000
  Te  Te3       1.0  0.7239456611306727  0.2760543917323529  0.27605434002649304  1.0000
  Te  Te4       1.0  0.27605444289104647  0.7239455916359365  0.7239455473871248  1.0000
  Te  Te5       1.0  0.2760543955570785  0.7239456422658478  0.27605439604309  1.0000
  Te  Te6       1.0  0.7239455820160822  0.27605443181201567  0.7239455780137883  1.0000
