data_image0
_chemical_formula_structural       Na2SbS6
_chemical_formula_sum              "Na2 Sb1 S6"
_cell_length_a       6.654762980822113
_cell_length_b       6.654763481558071
_cell_length_c       6.654763336845234
_cell_angle_alpha    60.00000210621533
_cell_angle_beta     60.00000059522536
_cell_angle_gamma    59.99999906947195

_space_group_name_H-M_alt    "P 1"
_space_group_IT_number       1

loop_
  _space_group_symop_operation_xyz
  'x, y, z'

loop_
  _atom_site_type_symbol
  _atom_site_label
  _atom_site_symmetry_multiplicity
  _atom_site_fract_x
  _atom_site_fract_y
  _atom_site_fract_z
  _atom_site_occupancy
  Na  Na1       1.0  0.24999990959846338  0.25000008883433855  0.2500000531897309  1.0000
  Na  Na2       1.0  0.750000037516737  0.7499999701980762  0.7499999459907319  1.0000
  Sb  Sb1       1.0  3.451053133368836e-08  0.999999979755563  3.644476137676974e-08  1.0000
  S   S1        1.0  0.25906708212794965  0.25906691772971585  0.7409330184097109  1.0000
  S   S2        1.0  0.7409329114002987  0.7409330124744692  0.2590671256634719  1.0000
  S   S3        1.0  0.7409329915663478  0.259066938407806  0.25906687638800846  1.0000
  S   S4        1.0  0.2590669587033862  0.740933137188238  0.740933066350199  1.0000
  S   S5        1.0  0.25906702930267456  0.7409330418984482  0.2590668172394603  1.0000
  S   S6        1.0  0.740933030458937  0.259066903028959  0.7409331015254176  1.0000
