data_image0
_chemical_formula_structural       Na2YSe6
_chemical_formula_sum              "Na2 Y1 Se6"
_cell_length_a       7.154219201291201
_cell_length_b       7.154219179298512
_cell_length_c       7.1542199667691655
_cell_angle_alpha    59.999998068833555
_cell_angle_beta     59.999999504393685
_cell_angle_gamma    60.00000482567201

_space_group_name_H-M_alt    "P 1"
_space_group_IT_number       1

loop_
  _space_group_symop_operation_xyz
  'x, y, z'

loop_
  _atom_site_type_symbol
  _atom_site_label
  _atom_site_symmetry_multiplicity
  _atom_site_fract_x
  _atom_site_fract_y
  _atom_site_fract_z
  _atom_site_occupancy
  Na  Na1       1.0  0.24999997926908143  0.2500000026114519  0.25000002315938713  1.0000
  Na  Na2       1.0  0.7499999975425334  0.7499999787317247  0.7500000359907396  1.0000
  Y   Y1        1.0  0.9999998978948152  0.9999999092682494  9.921401701845818e-08  1.0000
  Se  Se1       1.0  0.2847589886350069  0.28475889653350844  0.7152407633824873  1.0000
  Se  Se2       1.0  0.7152411310909176  0.715241038587841  0.2847586058420225  1.0000
  Se  Se3       1.0  0.7152408333263761  0.28475927126938605  0.2847589361193766  1.0000
  Se  Se4       1.0  0.2847584713727941  0.7152415643216747  0.7152412849605589  1.0000
  Se  Se5       1.0  0.28475921336657345  0.7152408384983161  0.2847589609408046  1.0000
  Se  Se6       1.0  0.7152414825232339  0.28475850601078495  0.7152412947092641  1.0000
