data_image0
_chemical_formula_structural       Na2YS6
_chemical_formula_sum              "Na2 Y1 S6"
_cell_length_a       6.907285228226116
_cell_length_b       6.9072854457958455
_cell_length_c       6.907284906497157
_cell_angle_alpha    60.00000231895524
_cell_angle_beta     60.00000272113496
_cell_angle_gamma    59.99999847155983

_space_group_name_H-M_alt    "P 1"
_space_group_IT_number       1

loop_
  _space_group_symop_operation_xyz
  'x, y, z'

loop_
  _atom_site_type_symbol
  _atom_site_label
  _atom_site_symmetry_multiplicity
  _atom_site_fract_x
  _atom_site_fract_y
  _atom_site_fract_z
  _atom_site_occupancy
  Na  Na1       1.0  0.24999999223263675  0.2499999795531593  0.2500000066819873  1.0000
  Na  Na2       1.0  0.7500000137450382  0.7499999829874858  0.7499999779106472  1.0000
  Y   Y1        1.0  0.9999999251436973  3.900865204414013e-08  0.999999923820279  1.0000
  S   S1        1.0  0.28011736535165305  0.2801172840986221  0.7198827587961023  1.0000
  S   S2        1.0  0.719882610856793  0.719882632340893  0.28011745772979035  1.0000
  S   S3        1.0  0.7198827990950017  0.280117263932436  0.28011737546194254  1.0000
  S   S4        1.0  0.28011750757396686  0.7198825638510478  0.7198825753870219  1.0000
  S   S5        1.0  0.28011726540038573  0.7198828082720107  0.28011733493712426  1.0000
  S   S6        1.0  0.7198825152115408  0.2801174592453484  0.7198825751041006  1.0000
