data_image0
_chemical_formula_structural       Na2YO6
_chemical_formula_sum              "Na2 Y1 O6"
_cell_length_a       5.538907830646393
_cell_length_b       5.538907752166338
_cell_length_c       5.538907845547445
_cell_angle_alpha    59.99999938098135
_cell_angle_beta     59.999999457078
_cell_angle_gamma    59.999998756991374

_space_group_name_H-M_alt    "P 1"
_space_group_IT_number       1

loop_
  _space_group_symop_operation_xyz
  'x, y, z'

loop_
  _atom_site_type_symbol
  _atom_site_label
  _atom_site_symmetry_multiplicity
  _atom_site_fract_x
  _atom_site_fract_y
  _atom_site_fract_z
  _atom_site_occupancy
  Na  Na1       1.0  0.2500000114319478  0.2500000012912512  0.2500000029965855  1.0000
  Na  Na2       1.0  0.7499999949176117  0.7500000281965884  0.7499999930471237  1.0000
  Y   Y1        1.0  9.68648436154222e-09  2.2111667245515483e-09  1.2728147018652887e-09  1.0000
  O   O1        1.0  0.2855252183952857  0.2855251621111233  0.7144748058280036  1.0000
  O   O2        1.0  0.7144747898294589  0.7144748054640464  0.2855251931532973  1.0000
  O   O3        1.0  0.7144748101481785  0.2855251921001155  0.2855251776687233  1.0000
  O   O4        1.0  0.2855251965807577  0.714474817487223  0.7144747974435771  1.0000
  O   O5        1.0  0.28552518373803587  0.714474799360315  0.28552520115430896  1.0000
  O   O6        1.0  0.714474792836712  0.285525188115356  0.7144748416153509  1.0000
