data_image0
_chemical_formula_structural       Na2YTe6
_chemical_formula_sum              "Na2 Y1 Te6"
_cell_length_a       7.731206857389287
_cell_length_b       7.731206921160735
_cell_length_c       7.731206951868885
_cell_angle_alpha    59.999998921720625
_cell_angle_beta     59.99999922600072
_cell_angle_gamma    60.000000976267096

_space_group_name_H-M_alt    "P 1"
_space_group_IT_number       1

loop_
  _space_group_symop_operation_xyz
  'x, y, z'

loop_
  _atom_site_type_symbol
  _atom_site_label
  _atom_site_symmetry_multiplicity
  _atom_site_fract_x
  _atom_site_fract_y
  _atom_site_fract_z
  _atom_site_occupancy
  Na  Na1       1.0  0.24999997505293248  0.2500000301381101  0.25000001484461293  1.0000
  Na  Na2       1.0  0.749999997861716  0.7500000112064614  0.7499999869937367  1.0000
  Y   Y1        1.0  1.7575841660061744e-08  0.9999999920792134  0.9999999770640451  1.0000
  Te  Te1       1.0  0.27834254384602364  0.27834259814268836  0.7216574272877333  1.0000
  Te  Te2       1.0  0.7216574870327068  0.7216573275583927  0.27834258269497547  1.0000
  Te  Te3       1.0  0.7216574055315441  0.2783426315530327  0.27834256709441496  1.0000
  Te  Te4       1.0  0.2783425509384231  0.7216574367222142  0.7216574579570376  1.0000
  Te  Te5       1.0  0.2783425906926386  0.7216573806634503  0.2783425837969849  1.0000
  Te  Te6       1.0  0.7216574308468026  0.2783425909781958  0.7216573988308719  1.0000
