data_image0
_chemical_formula_structural       Nb2AsS6
_chemical_formula_sum              "Nb2 As1 S6"
_cell_length_a       6.333995970394196
_cell_length_b       6.333996351682535
_cell_length_c       6.333995900372696
_cell_angle_alpha    60.0000011809743
_cell_angle_beta     60.00000141009545
_cell_angle_gamma    60.00000145353642

_space_group_name_H-M_alt    "P 1"
_space_group_IT_number       1

loop_
  _space_group_symop_operation_xyz
  'x, y, z'

loop_
  _atom_site_type_symbol
  _atom_site_label
  _atom_site_symmetry_multiplicity
  _atom_site_fract_x
  _atom_site_fract_y
  _atom_site_fract_z
  _atom_site_occupancy
  Nb  Nb1       1.0  0.250000444948913  0.24999996051539286  0.2499999122408538  1.0000
  Nb  Nb2       1.0  0.7499998972922458  0.7499999666248288  0.7499995998876365  1.0000
  As  As1       1.0  3.178441406084378e-08  0.9999999265230027  0.9999999182254493  1.0000
  S   S1        1.0  0.2591006287141922  0.25910049967619214  0.7408993518127815  1.0000
  S   S2        1.0  0.740899468670316  0.7408994893393898  0.25910073017735874  1.0000
  S   S3        1.0  0.7408991185296417  0.2591005540379928  0.2591006427948009  1.0000
  S   S4        1.0  0.2591006690329728  0.7408994620480642  0.7408995379439264  1.0000
  S   S5        1.0  0.25910039703283105  0.7408995245136395  0.2591006933591185  1.0000
  S   S6        1.0  0.7408993427425778  0.2591006075887293  0.740899598513017  1.0000
