data_image0
_chemical_formula_structural       Nb2AsO6
_chemical_formula_sum              "Nb2 As1 O6"
_cell_length_a       4.983704074434167
_cell_length_b       4.9837040776998816
_cell_length_c       4.983704141903664
_cell_angle_alpha    59.99999904043615
_cell_angle_beta     59.99999914972832
_cell_angle_gamma    59.99999915239647

_space_group_name_H-M_alt    "P 1"
_space_group_IT_number       1

loop_
  _space_group_symop_operation_xyz
  'x, y, z'

loop_
  _atom_site_type_symbol
  _atom_site_label
  _atom_site_symmetry_multiplicity
  _atom_site_fract_x
  _atom_site_fract_y
  _atom_site_fract_z
  _atom_site_occupancy
  Nb  Nb1       1.0  0.2500000216676383  0.2500001828166312  0.24999996803414432  1.0000
  Nb  Nb2       1.0  0.7499998590835156  0.7500000471200576  0.7499996557651561  1.0000
  As  As1       1.0  0.999999986660472  0.9999999705100091  1.0970250455299822e-07  1.0000
  O   O1        1.0  0.2548172477334219  0.2548172205886254  0.745182787733245  1.0000
  O   O2        1.0  0.7451828053196324  0.7451827218206533  0.25481734314369403  1.0000
  O   O3        1.0  0.7451827247401933  0.2548172449561715  0.2548173069641224  1.0000
  O   O4        1.0  0.2548173472701211  0.7451826753356142  0.745182803420997  1.0000
  O   O5        1.0  0.2548172442318741  0.7451827193325498  0.25481728747279436  1.0000
  O   O6        1.0  0.7451827476207031  0.25481723290672625  0.7451827647493227  1.0000
