data_image0
_chemical_formula_structural       Nb2AsS6
_chemical_formula_sum              "Nb2 As1 S6"
_cell_length_a       6.3336131047729145
_cell_length_b       6.333613194014606
_cell_length_c       6.3336130960196435
_cell_angle_alpha    59.99999972633988
_cell_angle_beta     60.00000000402182
_cell_angle_gamma    60.00000047636858

_space_group_name_H-M_alt    "P 1"
_space_group_IT_number       1

loop_
  _space_group_symop_operation_xyz
  'x, y, z'

loop_
  _atom_site_type_symbol
  _atom_site_label
  _atom_site_symmetry_multiplicity
  _atom_site_fract_x
  _atom_site_fract_y
  _atom_site_fract_z
  _atom_site_occupancy
  Nb  Nb1       1.0  0.2500000325544957  0.24999979761153307  0.2499998499944849  1.0000
  Nb  Nb2       1.0  0.7500001328017151  0.7500003867678222  0.750000214869309  1.0000
  As  As1       1.0  4.2339150128650794e-10  9.668610554737038e-09  7.074012489390346e-08  1.0000
  S   S1        1.0  0.2590890821571714  0.2590890458392053  0.740910957114891  1.0000
  S   S2        1.0  0.7409110025421695  0.7409109703063194  0.2590886890603515  1.0000
  S   S3        1.0  0.7409110408065691  0.25908891659230193  0.25908919297755606  1.0000
  S   S4        1.0  0.2590889635866523  0.7409108810426064  0.7409108804885173  1.0000
  S   S5        1.0  0.2590890096149255  0.7409111811165057  0.25908903886758544  1.0000
  S   S6        1.0  0.7409107313784445  0.2590888214929591  0.7409110669688896  1.0000
