data_image0
_chemical_formula_structural       Nb2AsSe6
_chemical_formula_sum              "Nb2 As1 Se6"
_cell_length_a       6.414434881366495
_cell_length_b       6.414435023897772
_cell_length_c       6.414435172710322
_cell_angle_alpha    59.99999909364671
_cell_angle_beta     59.99999836844682
_cell_angle_gamma    59.999998600717696

_space_group_name_H-M_alt    "P 1"
_space_group_IT_number       1

loop_
  _space_group_symop_operation_xyz
  'x, y, z'

loop_
  _atom_site_type_symbol
  _atom_site_label
  _atom_site_symmetry_multiplicity
  _atom_site_fract_x
  _atom_site_fract_y
  _atom_site_fract_z
  _atom_site_occupancy
  Nb  Nb1       1.0  0.25000007844306854  0.24999979141643613  0.24999999030092757  1.0000
  Nb  Nb2       1.0  0.7499996392639054  0.7500001093519048  0.7500005545983124  1.0000
  As  As1       1.0  1.2541695519840916e-09  2.8640360661072862e-08  0.9999999585500117  1.0000
  Se  Se1       1.0  0.2752189605637685  0.27521875846441435  0.7247811395059717  1.0000
  Se  Se2       1.0  0.7247811074099141  0.7247811824004279  0.2752187721372378  1.0000
  Se  Se3       1.0  0.7247811531085461  0.27521902834734824  0.2752187398819802  1.0000
  Se  Se4       1.0  0.2752188381445093  0.7247811912836718  0.7247810660615026  1.0000
  Se  Se5       1.0  0.27521907724186895  0.724781199409797  0.2752186345682477  1.0000
  Se  Se6       1.0  0.7247811352905604  0.27521871281468274  0.7247811583154047  1.0000
