data_image0
_chemical_formula_structural       Nb2AsN6
_chemical_formula_sum              "Nb2 As1 N6"
_cell_length_a       4.757301390195557
_cell_length_b       4.757300810510878
_cell_length_c       4.7573018720585285
_cell_angle_alpha    59.99999933661972
_cell_angle_beta     60.00000183545032
_cell_angle_gamma    60.000003455395195

_space_group_name_H-M_alt    "P 1"
_space_group_IT_number       1

loop_
  _space_group_symop_operation_xyz
  'x, y, z'

loop_
  _atom_site_type_symbol
  _atom_site_label
  _atom_site_symmetry_multiplicity
  _atom_site_fract_x
  _atom_site_fract_y
  _atom_site_fract_z
  _atom_site_occupancy
  Nb  Nb1       1.0  0.24999997382456554  0.2499999621480761  0.24999996495231425  1.0000
  Nb  Nb2       1.0  0.7500000624457421  0.7500000460603553  0.7499999883985633  1.0000
  As  As1       1.0  1.8854058810994842e-08  0.9999999871277337  0.9999999801928491  1.0000
  N   N1        1.0  0.27470611748147244  0.27470606773176565  0.7252939379808067  1.0000
  N   N2        1.0  0.7252939075109021  0.7252939379022174  0.27470611898972563  1.0000
  N   N3        1.0  0.7252938281178941  0.2747061525756349  0.27470608690124076  1.0000
  N   N4        1.0  0.2747061607354246  0.7252938813773255  0.7252938604696115  1.0000
  N   N5        1.0  0.2747060726946537  0.7252939073808253  0.2747060882231023  1.0000
  N   N6        1.0  0.7252939489156357  0.2747060210195514  0.7252938850353935  1.0000
