data_image0
_chemical_formula_structural       Nb2AsO6
_chemical_formula_sum              "Nb2 As1 O6"
_cell_length_a       4.9837370346394305
_cell_length_b       4.983737133077284
_cell_length_c       4.983737092304203
_cell_angle_alpha    59.9999988920859
_cell_angle_beta     59.99999795831036
_cell_angle_gamma    59.99999892994781

_space_group_name_H-M_alt    "P 1"
_space_group_IT_number       1

loop_
  _space_group_symop_operation_xyz
  'x, y, z'

loop_
  _atom_site_type_symbol
  _atom_site_label
  _atom_site_symmetry_multiplicity
  _atom_site_fract_x
  _atom_site_fract_y
  _atom_site_fract_z
  _atom_site_occupancy
  Nb  Nb1       1.0  0.25000014153776523  0.2500000055033057  0.24999988539513343  1.0000
  Nb  Nb2       1.0  0.7499998539240369  0.7499998518585619  0.7500004131218357  1.0000
  As  As1       1.0  0.9999999705584323  4.9149662493291115e-09  0.9999999841719316  1.0000
  O   O1        1.0  0.25481565463805284  0.25481557863386384  0.7451843128433614  1.0000
  O   O2        1.0  0.7451843655832209  0.7451843573674604  0.25481555273412854  1.0000
  O   O3        1.0  0.7451843437200641  0.2548157477014247  0.25481555562119  1.0000
  O   O4        1.0  0.25481562812248226  0.7451844168458092  0.7451843603295542  1.0000
  O   O5        1.0  0.25481568197201643  0.745184377200398  0.2548156229480041  1.0000
  O   O6        1.0  0.7451843567124118  0.25481568413255307  0.7451843192150462  1.0000
