data_image0
_chemical_formula_structural       Nb2AsSe6
_chemical_formula_sum              "Nb2 As1 Se6"
_cell_length_a       6.416200849301315
_cell_length_b       6.4162006540568335
_cell_length_c       6.416200754027481
_cell_angle_alpha    59.99999913160554
_cell_angle_beta     59.999997933095415
_cell_angle_gamma    59.99999935444912

_space_group_name_H-M_alt    "P 1"
_space_group_IT_number       1

loop_
  _space_group_symop_operation_xyz
  'x, y, z'

loop_
  _atom_site_type_symbol
  _atom_site_label
  _atom_site_symmetry_multiplicity
  _atom_site_fract_x
  _atom_site_fract_y
  _atom_site_fract_z
  _atom_site_occupancy
  Nb  Nb1       1.0  0.2500000580725449  0.25000021024974173  0.24999956779586502  1.0000
  Nb  Nb2       1.0  0.7499994826013429  0.7499995579856698  0.7500007654034615  1.0000
  As  As1       1.0  5.380262274789763e-09  3.245014311021962e-08  0.9999999608235857  1.0000
  Se  Se1       1.0  0.27498031525213396  0.27498021323076194  0.7250197415495792  1.0000
  Se  Se2       1.0  0.725019906184393  0.7250196237226041  0.27498007819806664  1.0000
  Se  Se3       1.0  0.7250197907793183  0.2749805187072625  0.27497997851363215  1.0000
  Se  Se4       1.0  0.27498042734470446  0.7250195549412667  0.7250199442988998  1.0000
  Se  Se5       1.0  0.2749804667120916  0.7250198711667447  0.2749800450695795  1.0000
  Se  Se6       1.0  0.7250195591534433  0.2749804067268023  0.7250199185063324  1.0000
