data_image0
_chemical_formula_structural       Nb2BiTe6
_chemical_formula_sum              "Nb2 Bi1 Te6"
_cell_length_a       7.288655408705268
_cell_length_b       7.288655402569764
_cell_length_c       7.2886554566828625
_cell_angle_alpha    59.99999990720328
_cell_angle_beta     60.000000249721325
_cell_angle_gamma    60.00000066034875

_space_group_name_H-M_alt    "P 1"
_space_group_IT_number       1

loop_
  _space_group_symop_operation_xyz
  'x, y, z'

loop_
  _atom_site_type_symbol
  _atom_site_label
  _atom_site_symmetry_multiplicity
  _atom_site_fract_x
  _atom_site_fract_y
  _atom_site_fract_z
  _atom_site_occupancy
  Nb  Nb1       1.0  0.24999998381042976  0.24999999593073188  0.24999999918093133  1.0000
  Nb  Nb2       1.0  0.7500000824759776  0.7499999558656599  0.7499998834999457  1.0000
  Bi  Bi1       1.0  0.9999999773730639  0.999999968073463  0.9999999751409204  1.0000
  Te  Te1       1.0  0.27688905565314414  0.2768890648475422  0.7231109565946737  1.0000
  Te  Te2       1.0  0.7231109318356368  0.7231109760070833  0.2768891336151491  1.0000
  Te  Te3       1.0  0.723110962491589  0.2768890615687812  0.27688907054522705  1.0000
  Te  Te4       1.0  0.2768890432887745  0.7231109339165553  0.7231109453957588  1.0000
  Te  Te5       1.0  0.2768889932865124  0.7231109255301419  0.2768891111299487  1.0000
  Te  Te6       1.0  0.7231109688543713  0.27688911532448357  0.7231109327580307  1.0000
