data_image0
_chemical_formula_structural       Nb2BSe6
_chemical_formula_sum              "Nb2 B1 Se6"
_cell_length_a       6.304265003856658
_cell_length_b       6.304265027522822
_cell_length_c       6.304265134380666
_cell_angle_alpha    59.999998504655956
_cell_angle_beta     59.999998504520654
_cell_angle_gamma    59.99999904371781

_space_group_name_H-M_alt    "P 1"
_space_group_IT_number       1

loop_
  _space_group_symop_operation_xyz
  'x, y, z'

loop_
  _atom_site_type_symbol
  _atom_site_label
  _atom_site_symmetry_multiplicity
  _atom_site_fract_x
  _atom_site_fract_y
  _atom_site_fract_z
  _atom_site_occupancy
  Nb  Nb1       1.0  0.24999997710793526  0.24999995126348895  0.25000006151466453  1.0000
  Nb  Nb2       1.0  0.7499999671212353  0.7499999936666176  0.7499999888437185  1.0000
  B   B1        1.0  1.9814479803010575e-08  1.748451881126166e-08  0.9999999718331343  1.0000
  Se  Se1       1.0  0.23842315918334794  0.238423185371723  0.7615768254691129  1.0000
  Se  Se2       1.0  0.7615768511681591  0.7615768139546639  0.2384231915958318  1.0000
  Se  Se3       1.0  0.7615768028692103  0.23842315613116644  0.2384232007977183  1.0000
  Se  Se4       1.0  0.2384231737354281  0.761576883992431  0.7615768063971448  1.0000
  Se  Se5       1.0  0.2384232302945509  0.7615767985676504  0.2384231447554021  1.0000
  Se  Se6       1.0  0.7615768204636599  0.23842319493056383  0.7615768042609905  1.0000
