data_image0
_chemical_formula_structural       Nb2BTe6
_chemical_formula_sum              "Nb2 B1 Te6"
_cell_length_a       6.777078886902058
_cell_length_b       6.777079051892669
_cell_length_c       6.777079014077716
_cell_angle_alpha    59.99999951221657
_cell_angle_beta     59.99999996931257
_cell_angle_gamma    60.00000024645582

_space_group_name_H-M_alt    "P 1"
_space_group_IT_number       1

loop_
  _space_group_symop_operation_xyz
  'x, y, z'

loop_
  _atom_site_type_symbol
  _atom_site_label
  _atom_site_symmetry_multiplicity
  _atom_site_fract_x
  _atom_site_fract_y
  _atom_site_fract_z
  _atom_site_occupancy
  Nb  Nb1       1.0  0.24999997095420493  0.2500000051436557  0.25000000337915584  1.0000
  Nb  Nb2       1.0  0.7500000737817941  0.7499999160356836  0.7500002184165584  1.0000
  B   B1        1.0  0.9999999764564127  0.999999983735318  0.9999999815395237  1.0000
  Te  Te1       1.0  0.24636235864702732  0.24636247988785448  0.7536375814532138  1.0000
  Te  Te2       1.0  0.7536376337160132  0.7536375370723953  0.2463623205750076  1.0000
  Te  Te3       1.0  0.7536375634933388  0.24636243593339496  0.24636238351774775  1.0000
  Te  Te4       1.0  0.24636238274514485  0.7536376171705931  0.7536375618654936  1.0000
  Te  Te5       1.0  0.2463624549244775  0.7536376420472254  0.24636235794110461  1.0000
  Te  Te6       1.0  0.7536375753185589  0.24636238394895843  0.753637592931688  1.0000
