data_image0
_chemical_formula_structural       Nb2BiSe6
_chemical_formula_sum              "Nb2 Bi1 Se6"
_cell_length_a       6.638048097378921
_cell_length_b       6.638047939746946
_cell_length_c       6.638048045159912
_cell_angle_alpha    59.999998436020306
_cell_angle_beta     59.99999828556449
_cell_angle_gamma    60.00000002452524

_space_group_name_H-M_alt    "P 1"
_space_group_IT_number       1

loop_
  _space_group_symop_operation_xyz
  'x, y, z'

loop_
  _atom_site_type_symbol
  _atom_site_label
  _atom_site_symmetry_multiplicity
  _atom_site_fract_x
  _atom_site_fract_y
  _atom_site_fract_z
  _atom_site_occupancy
  Nb  Nb1       1.0  0.24999950656915382  0.2499996691716892  0.25000047383862967  1.0000
  Nb  Nb2       1.0  0.7500004377355045  0.749999620067624  0.7500003475468585  1.0000
  Bi  Bi1       1.0  0.9999999521376446  0.9999999557190935  1.0482384311405209e-07  1.0000
  Se  Se1       1.0  0.2853868955131784  0.2853872254998577  0.7146129066070336  1.0000
  Se  Se2       1.0  0.7146129395571923  0.7146128663308671  0.2853868992285617  1.0000
  Se  Se3       1.0  0.7146130875037395  0.2853872982276185  0.285386792716481  1.0000
  Se  Se4       1.0  0.2853868852989185  0.7146131423152386  0.7146127729098335  1.0000
  Se  Se5       1.0  0.28538700597470723  0.7146131607717746  0.28538712217640266  1.0000
  Se  Se6       1.0  0.7146132936856435  0.28538704545129595  0.714612602060461  1.0000
