data_image0
_chemical_formula_structural       Nb2BiO6
_chemical_formula_sum              "Nb2 Bi1 O6"
_cell_length_a       5.5096308917398105
_cell_length_b       5.509630784463571
_cell_length_c       5.509631131961359
_cell_angle_alpha    60.000001352570045
_cell_angle_beta     60.00000064800708
_cell_angle_gamma    59.99999833542939

_space_group_name_H-M_alt    "P 1"
_space_group_IT_number       1

loop_
  _space_group_symop_operation_xyz
  'x, y, z'

loop_
  _atom_site_type_symbol
  _atom_site_label
  _atom_site_symmetry_multiplicity
  _atom_site_fract_x
  _atom_site_fract_y
  _atom_site_fract_z
  _atom_site_occupancy
  Nb  Nb1       1.0  0.24999971136619467  0.24999883826686914  0.25000096142017375  1.0000
  Nb  Nb2       1.0  0.7499992623576562  0.7499994245981313  0.7499997879942262  1.0000
  Bi  Bi1       1.0  7.00290300692165e-08  0.9999999911083335  0.9999999948413686  1.0000
  O   O1        1.0  0.26239644779801036  0.2623968363305777  0.7376033086494184  1.0000
  O   O2        1.0  0.7376032112719659  0.7376037339216694  0.2623970134354503  1.0000
  O   O3        1.0  0.7376038187971664  0.26239667522050614  0.26239657433294533  1.0000
  O   O4        1.0  0.26239707544959556  0.7376040750879307  0.7376027315848582  1.0000
  O   O5        1.0  0.2623969562477853  0.7376035601594662  0.26239621587096823  1.0000
  O   O6        1.0  0.73760344261646  0.2623968278136078  0.7376035043857295  1.0000
