data_image0
_chemical_formula_structural       Nb2BS6
_chemical_formula_sum              "Nb2 B1 S6"
_cell_length_a       6.0467036906683544
_cell_length_b       6.046703516145078
_cell_length_c       6.046703461054744
_cell_angle_alpha    59.9999996419039
_cell_angle_beta     60.000000144599625
_cell_angle_gamma    59.99999979236915

_space_group_name_H-M_alt    "P 1"
_space_group_IT_number       1

loop_
  _space_group_symop_operation_xyz
  'x, y, z'

loop_
  _atom_site_type_symbol
  _atom_site_label
  _atom_site_symmetry_multiplicity
  _atom_site_fract_x
  _atom_site_fract_y
  _atom_site_fract_z
  _atom_site_occupancy
  Nb  Nb1       1.0  0.2499998074415126  0.250000240800574  0.2500001163256565  1.0000
  Nb  Nb2       1.0  0.7499999217594978  0.7499997339697662  0.7499999236890257  1.0000
  B   B1        1.0  3.871570616530498e-08  0.9999998723950537  2.7762952997221655e-07  1.0000
  S   S1        1.0  0.23682115075677887  0.23682117802792357  0.7631788405324424  1.0000
  S   S2        1.0  0.763178926133766  0.7631787562329115  0.2368211021212076  1.0000
  S   S3        1.0  0.7631787560245342  0.2368211145834963  0.2368211231111364  1.0000
  S   S4        1.0  0.23682130719078945  0.7631787690404555  0.7631788583137409  1.0000
  S   S5        1.0  0.23682111828462438  0.76317897533768  0.236821089476816  1.0000
  S   S6        1.0  0.7631789675680849  0.2368213903494  0.7631786313288337  1.0000
