data_image0
_chemical_formula_structural       Nb2BO6
_chemical_formula_sum              "Nb2 B1 O6"
_cell_length_a       4.724639183468889
_cell_length_b       4.72463917497676
_cell_length_c       4.724639138907406
_cell_angle_alpha    60.000001126118015
_cell_angle_beta     59.999998757723006
_cell_angle_gamma    59.9999999662372

_space_group_name_H-M_alt    "P 1"
_space_group_IT_number       1

loop_
  _space_group_symop_operation_xyz
  'x, y, z'

loop_
  _atom_site_type_symbol
  _atom_site_label
  _atom_site_symmetry_multiplicity
  _atom_site_fract_x
  _atom_site_fract_y
  _atom_site_fract_z
  _atom_site_occupancy
  Nb  Nb1       1.0  0.2499999637774028  0.24999970476341324  0.2500000121665318  1.0000
  Nb  Nb2       1.0  0.7500000934252622  0.7500001797052244  0.7499996884816891  1.0000
  B   B1        1.0  0.9999999217666503  4.406825924332085e-08  0.9999999768678349  1.0000
  O   O1        1.0  0.23819262891148438  0.23819279165607887  0.7618073628018526  1.0000
  O   O2        1.0  0.7618073090011341  0.761807282046858  0.23819279391703785  1.0000
  O   O3        1.0  0.7618073713399469  0.23819271539778897  0.23819271646120782  1.0000
  O   O4        1.0  0.23819274256591688  0.7618073142368865  0.7618073023320203  1.0000
  O   O5        1.0  0.23819273051197648  0.7618073163451875  0.23819277775748957  1.0000
  O   O6        1.0  0.7618072308791516  0.2381926795902315  0.7618073531918099  1.0000
