data_image0
_chemical_formula_structural       Nb2CoTe6
_chemical_formula_sum              "Nb2 Co1 Te6"
_cell_length_a       6.7789683849661975
_cell_length_b       6.778968497927129
_cell_length_c       6.77896848390867
_cell_angle_alpha    59.99999977403566
_cell_angle_beta     60.0000002867125
_cell_angle_gamma    60.00000033956956

_space_group_name_H-M_alt    "P 1"
_space_group_IT_number       1

loop_
  _space_group_symop_operation_xyz
  'x, y, z'

loop_
  _atom_site_type_symbol
  _atom_site_label
  _atom_site_symmetry_multiplicity
  _atom_site_fract_x
  _atom_site_fract_y
  _atom_site_fract_z
  _atom_site_occupancy
  Nb  Nb1       1.0  0.24999994902360956  0.2500000804039732  0.24999993279023852  1.0000
  Nb  Nb2       1.0  0.7500000090138697  0.7500000262166137  0.7500000727221645  1.0000
  Co  Co1       1.0  0.9999999898831821  0.9999999945799503  6.293283095912391e-09  1.0000
  Te  Te1       1.0  0.25137797292114006  0.25137804542499004  0.7486219808269895  1.0000
  Te  Te2       1.0  0.7486219945985139  0.74862195098792  0.2513780160421377  1.0000
  Te  Te3       1.0  0.7486219976983121  0.2513780350588645  0.2513780122718789  1.0000
  Te  Te4       1.0  0.25137806564038284  0.7486219089602317  0.7486219864870464  1.0000
  Te  Te5       1.0  0.2513780500806318  0.7486219951729062  0.2513779916995962  1.0000
  Te  Te6       1.0  0.7486219692630228  0.25137796329965595  0.7486219982277049  1.0000
