data_image0
_chemical_formula_structural       Nb2CS6
_chemical_formula_sum              "Nb2 C1 S6"
_cell_length_a       7.951357216236882
_cell_length_b       11.1856682843372
_cell_length_c       9.53768143135047
_cell_angle_alpha    37.14003640609398
_cell_angle_beta     39.065408364278525
_cell_angle_gamma    46.21836522655325

_space_group_name_H-M_alt    "P 1"
_space_group_IT_number       1

loop_
  _space_group_symop_operation_xyz
  'x, y, z'

loop_
  _atom_site_type_symbol
  _atom_site_label
  _atom_site_symmetry_multiplicity
  _atom_site_fract_x
  _atom_site_fract_y
  _atom_site_fract_z
  _atom_site_occupancy
  Nb  Nb1       1.0  0.2015268763015317  0.9793429427031816  0.34320772044397707  1.0000
  Nb  Nb2       1.0  0.7210828844624165  0.981858576474333  0.7868757102880689  1.0000
  C   C1        1.0  0.0742835811803695  0.056773073729333864  0.1395502757397958  1.0000
  S   S1        1.0  0.25451315112319445  0.2514884227518295  0.8528479361550212  1.0000
  S   S2        1.0  0.6997058572385686  0.9060002038459596  0.1115400910376669  1.0000
  S   S3        1.0  0.7424234907597339  0.0781020929031135  0.3981901216728373  1.0000
  S   S4        1.0  0.036141119773071384  0.6872411840454847  0.7944761748168204  1.0000
  S   S5        1.0  0.27336505924662524  0.8305749084601678  0.16788858149295005  1.0000
  S   S6        1.0  0.99695645782365  0.2286207762118537  0.4054263905762568  1.0000
