data_image0
_chemical_formula_structural       Nb2CoO6
_chemical_formula_sum              "Nb2 Co1 O6"
_cell_length_a       4.899006193227905
_cell_length_b       4.899006260412905
_cell_length_c       4.899005848723516
_cell_angle_alpha    60.00000254826248
_cell_angle_beta     60.000002317688704
_cell_angle_gamma    60.00000046840625

_space_group_name_H-M_alt    "P 1"
_space_group_IT_number       1

loop_
  _space_group_symop_operation_xyz
  'x, y, z'

loop_
  _atom_site_type_symbol
  _atom_site_label
  _atom_site_symmetry_multiplicity
  _atom_site_fract_x
  _atom_site_fract_y
  _atom_site_fract_z
  _atom_site_occupancy
  Nb  Nb1       1.0  0.25000027238162453  0.24999996025396132  0.2500001211621543  1.0000
  Nb  Nb2       1.0  0.7499999360192166  0.7500003957590742  0.7499997198523559  1.0000
  Co  Co1       1.0  0.9999999420510627  0.9999999900000557  6.255166734449129e-08  1.0000
  O   O1        1.0  0.2591260076888778  0.25912591622988485  0.7408739868001735  1.0000
  O   O2        1.0  0.7408739859220173  0.7408740022855553  0.2591260129772098  1.0000
  O   O3        1.0  0.7408737882385211  0.2591258491063202  0.25912616165546815  1.0000
  O   O4        1.0  0.2591260656675116  0.7408739794096162  0.7408739652214813  1.0000
  O   O5        1.0  0.25912597846294155  0.7408740431585936  0.25912601973568417  1.0000
  O   O6        1.0  0.7408740319329749  0.25912586035692897  0.7408739240359248  1.0000
