data_image0
_chemical_formula_structural       Nb2CoS6
_chemical_formula_sum              "Nb2 Co1 S6"
_cell_length_a       5.844022861029059
_cell_length_b       5.84402262548754
_cell_length_c       5.844022838810119
_cell_angle_alpha    59.9999987909813
_cell_angle_beta     59.99999914728267
_cell_angle_gamma    59.99999901508246

_space_group_name_H-M_alt    "P 1"
_space_group_IT_number       1

loop_
  _space_group_symop_operation_xyz
  'x, y, z'

loop_
  _atom_site_type_symbol
  _atom_site_label
  _atom_site_symmetry_multiplicity
  _atom_site_fract_x
  _atom_site_fract_y
  _atom_site_fract_z
  _atom_site_occupancy
  Nb  Nb1       1.0  0.2499997732648811  0.24999975492133933  0.2500005336083564  1.0000
  Nb  Nb2       1.0  0.7499998939561147  0.7500002749021951  0.7499994465997969  1.0000
  Co  Co1       1.0  5.995398631330727e-08  3.353155816152273e-08  0.9999999669464278  1.0000
  S   S1        1.0  0.2614679468715592  0.26146759988892343  0.7385322745101828  1.0000
  S   S2        1.0  0.7385325881623201  0.738531924865527  0.2614679127571269  1.0000
  S   S3        1.0  0.7385320418737332  0.26146767467789434  0.2614678174686042  1.0000
  S   S4        1.0  0.2614677521587187  0.7385325437606534  0.738531987914813  1.0000
  S   S5        1.0  0.26146762474629126  0.7385324896118877  0.26146784624835695  1.0000
  S   S6        1.0  0.73853232563984  0.26146768062504777  0.7385322387332862  1.0000
