data_image0
_chemical_formula_structural       Nb2CO6
_chemical_formula_sum              "Nb2 C1 O6"
_cell_length_a       4.833763865182526
_cell_length_b       4.833763903392465
_cell_length_c       4.8337637459896
_cell_angle_alpha    59.99999975514353
_cell_angle_beta     60.000000905902134
_cell_angle_gamma    59.999999463864185

_space_group_name_H-M_alt    "P 1"
_space_group_IT_number       1

loop_
  _space_group_symop_operation_xyz
  'x, y, z'

loop_
  _atom_site_type_symbol
  _atom_site_label
  _atom_site_symmetry_multiplicity
  _atom_site_fract_x
  _atom_site_fract_y
  _atom_site_fract_z
  _atom_site_occupancy
  Nb  Nb1       1.0  0.24999999315408078  0.2499999828779229  0.250000021449739  1.0000
  Nb  Nb2       1.0  0.749999988822902  0.7500000423817498  0.7499999755568324  1.0000
  C   C1        1.0  0.9999999848722113  0.9999999163869371  0.999999995582113  1.0000
  O   O1        1.0  0.2321152255100401  0.23211514606871667  0.7678848149481785  1.0000
  O   O2        1.0  0.7678848199756751  0.7678848893258726  0.23211513075509924  1.0000
  O   O3        1.0  0.7678848411268768  0.2321151535521892  0.23211516328585707  1.0000
  O   O4        1.0  0.2321151311747708  0.7678848362352747  0.7678848583632678  1.0000
  O   O5        1.0  0.23211516419255881  0.7678848647172953  0.2321151549336319  1.0000
  O   O6        1.0  0.7678848394287358  0.23211515294118915  0.7678848743582222  1.0000
