data_image0
_chemical_formula_structural       Nb2CrO6
_chemical_formula_sum              "Nb2 Cr1 O6"
_cell_length_a       4.921393318127295
_cell_length_b       4.921393565835004
_cell_length_c       4.921393432066028
_cell_angle_alpha    59.999996664953315
_cell_angle_beta     59.99999758406669
_cell_angle_gamma    59.99999819303771

_space_group_name_H-M_alt    "P 1"
_space_group_IT_number       1

loop_
  _space_group_symop_operation_xyz
  'x, y, z'

loop_
  _atom_site_type_symbol
  _atom_site_label
  _atom_site_symmetry_multiplicity
  _atom_site_fract_x
  _atom_site_fract_y
  _atom_site_fract_z
  _atom_site_occupancy
  Nb  Nb1       1.0  0.25000006671970604  0.24999977487827063  0.24999992462141318  1.0000
  Nb  Nb2       1.0  0.7500001870002269  0.7499996456659821  0.7500005790060553  1.0000
  Cr  Cr1       1.0  0.9999999575065842  0.9999999726252476  0.9999999942951887  1.0000
  O   O1        1.0  0.25983604052251363  0.25983636672348065  0.7401638291049707  1.0000
  O   O2        1.0  0.7401637334725826  0.7401639721193723  0.25983599804800317  1.0000
  O   O3        1.0  0.740163862972947  0.25983632139312707  0.2598360589544784  1.0000
  O   O4        1.0  0.2598361086105697  0.7401638681328817  0.7401637664141029  1.0000
  O   O5        1.0  0.25983622845672194  0.7401639056138651  0.2598360828494889  1.0000
  O   O6        1.0  0.7401638139912486  0.2598361769017386  0.7401637910712433  1.0000
