data_image0
_chemical_formula_structural       Nb2FeSe6
_chemical_formula_sum              "Nb2 Fe1 Se6"
_cell_length_a       6.395043598527797
_cell_length_b       6.395043891984807
_cell_length_c       6.395043895648718
_cell_angle_alpha    60.00000095484588
_cell_angle_beta     60.000001775307034
_cell_angle_gamma    60.000000916688336

_space_group_name_H-M_alt    "P 1"
_space_group_IT_number       1

loop_
  _space_group_symop_operation_xyz
  'x, y, z'

loop_
  _atom_site_type_symbol
  _atom_site_label
  _atom_site_symmetry_multiplicity
  _atom_site_fract_x
  _atom_site_fract_y
  _atom_site_fract_z
  _atom_site_occupancy
  Nb  Nb1       1.0  0.2499998043748707  0.24999938393560653  0.2500005565805636  1.0000
  Nb  Nb2       1.0  0.7500000944454535  0.7500002354866576  0.7499991629332291  1.0000
  Fe  Fe1       1.0  0.9999999950744137  6.89452889760894e-08  0.9999999132602667  1.0000
  Se  Se1       1.0  0.2578314594378674  0.25783127110934284  0.7421685937196429  1.0000
  Se  Se2       1.0  0.7421684411064926  0.7421688577419987  0.25783180375301873  1.0000
  Se  Se3       1.0  0.7421688777709122  0.25783118956595635  0.25783147617309377  1.0000
  Se  Se4       1.0  0.257831371990035  0.7421687745827488  0.7421685303738136  1.0000
  Se  Se5       1.0  0.2578311817180879  0.7421687714677593  0.2578314590132018  1.0000
  Se  Se6       1.0  0.7421687855777466  0.257831455056075  0.7421685028488099  1.0000
