data_image0
_chemical_formula_structural       Nb2FeTe6
_chemical_formula_sum              "Nb2 Fe1 Te6"
_cell_length_a       6.790013017639925
_cell_length_b       6.790013360126007
_cell_length_c       6.790013299276693
_cell_angle_alpha    60.00000005524741
_cell_angle_beta     60.000000643078444
_cell_angle_gamma    59.99999907273892

_space_group_name_H-M_alt    "P 1"
_space_group_IT_number       1

loop_
  _space_group_symop_operation_xyz
  'x, y, z'

loop_
  _atom_site_type_symbol
  _atom_site_label
  _atom_site_symmetry_multiplicity
  _atom_site_fract_x
  _atom_site_fract_y
  _atom_site_fract_z
  _atom_site_occupancy
  Nb  Nb1       1.0  0.250000148976484  0.2500000107711372  0.2499999456224022  1.0000
  Nb  Nb2       1.0  0.7499998651048069  0.750000073799546  0.7500000702176739  1.0000
  Fe  Fe1       1.0  0.9999999699729886  2.8859911816270295e-08  0.9999999608192678  1.0000
  Te  Te1       1.0  0.2518522106168914  0.2518520145724867  0.7481478938338514  1.0000
  Te  Te2       1.0  0.7481478082066234  0.7481479996521649  0.2518520723340633  1.0000
  Te  Te3       1.0  0.7481478846132504  0.2518521038737916  0.2518520772085148  1.0000
  Te  Te4       1.0  0.2518520845160187  0.7481478706684839  0.7481479262839543  1.0000
  Te  Te5       1.0  0.25185210687639753  0.7481478090661504  0.2518521079632047  1.0000
  Te  Te6       1.0  0.748147911210351  0.25185209513009116  0.7481479415695707  1.0000
