data_image0
_chemical_formula_structural       Nb2FeS6
_chemical_formula_sum              "Nb2 Fe1 S6"
_cell_length_a       5.834399421910967
_cell_length_b       5.8343985779666845
_cell_length_c       5.834399644857539
_cell_angle_alpha    59.999995534384155
_cell_angle_beta     60.00000144152142
_cell_angle_gamma    59.99999846761328

_space_group_name_H-M_alt    "P 1"
_space_group_IT_number       1

loop_
  _space_group_symop_operation_xyz
  'x, y, z'

loop_
  _atom_site_type_symbol
  _atom_site_label
  _atom_site_symmetry_multiplicity
  _atom_site_fract_x
  _atom_site_fract_y
  _atom_site_fract_z
  _atom_site_occupancy
  Nb  Nb1       1.0  0.24999990443564113  0.2500005196296591  0.24999928146286404  1.0000
  Nb  Nb2       1.0  0.7499998803056577  0.7499996507348953  0.7499998787535105  1.0000
  Fe  Fe1       1.0  0.9999999672741128  2.0991793286448276e-08  1.957882581549835e-08  1.0000
  S   S1        1.0  0.2657851509510088  0.26578488384527216  0.7342151000786988  1.0000
  S   S2        1.0  0.7342150876961279  0.7342149044686499  0.26578506459132856  1.0000
  S   S3        1.0  0.7342151780013162  0.2657851280936723  0.26578482023340083  1.0000
  S   S4        1.0  0.26578528018448777  0.734214910022609  0.7342151988926859  1.0000
  S   S5        1.0  0.2657847265592809  0.7342149294943322  0.26578524926170705  1.0000
  S   S6        1.0  0.7342148245288006  0.26578503934899955  0.7342153626020129  1.0000
