data_image0
_chemical_formula_structural       Nb2FeO6
_chemical_formula_sum              "Nb2 Fe1 O6"
_cell_length_a       4.944107969701476
_cell_length_b       4.944107993780501
_cell_length_c       4.9441081183414965
_cell_angle_alpha    59.99999933120975
_cell_angle_beta     59.99999837597881
_cell_angle_gamma    59.99999962807546

_space_group_name_H-M_alt    "P 1"
_space_group_IT_number       1

loop_
  _space_group_symop_operation_xyz
  'x, y, z'

loop_
  _atom_site_type_symbol
  _atom_site_label
  _atom_site_symmetry_multiplicity
  _atom_site_fract_x
  _atom_site_fract_y
  _atom_site_fract_z
  _atom_site_occupancy
  Nb  Nb1       1.0  0.2499996783258108  0.24999995455352855  0.2500002374601529  1.0000
  Nb  Nb2       1.0  0.7500002265763019  0.7500002055115215  0.7500001357808427  1.0000
  Fe  Fe1       1.0  0.9999999689300297  3.71577100405945e-08  0.9999999969561303  1.0000
  O   O1        1.0  0.2566947654728844  0.2566948768299622  0.743305243005649  1.0000
  O   O2        1.0  0.7433052384678445  0.7433050701975482  0.25669474428332945  1.0000
  O   O3        1.0  0.7433052337231482  0.2566947701201158  0.2566948588190114  1.0000
  O   O4        1.0  0.2566946529685323  0.7433052834261628  0.7433050367498523  1.0000
  O   O5        1.0  0.25669501504815834  0.7433050262109543  0.25669462863491704  1.0000
  O   O6        1.0  0.743305241767086  0.25669476475417324  0.7433051282131393  1.0000
