data_image0
_chemical_formula_structural       Nb2GaTe6
_chemical_formula_sum              "Nb2 Ga1 Te6"
_cell_length_a       6.99719372616035
_cell_length_b       6.997193810575135
_cell_length_c       6.997193701978959
_cell_angle_alpha    59.99999959247907
_cell_angle_beta     60.00000014716675
_cell_angle_gamma    59.999998736863226

_space_group_name_H-M_alt    "P 1"
_space_group_IT_number       1

loop_
  _space_group_symop_operation_xyz
  'x, y, z'

loop_
  _atom_site_type_symbol
  _atom_site_label
  _atom_site_symmetry_multiplicity
  _atom_site_fract_x
  _atom_site_fract_y
  _atom_site_fract_z
  _atom_site_occupancy
  Nb  Nb1       1.0  0.24999990965048197  0.24999997288252554  0.25000020983263765  1.0000
  Nb  Nb2       1.0  0.7500000846354626  0.7499999011442033  0.7500000945466322  1.0000
  Ga  Ga1       1.0  0.999999969429211  0.9999999877476402  0.9999999913995427  1.0000
  Te  Te1       1.0  0.26439311801463444  0.2643931076843475  0.7356068622268812  1.0000
  Te  Te2       1.0  0.7356068786850714  0.7356069571291421  0.26439305686496334  1.0000
  Te  Te3       1.0  0.7356068408246869  0.2643931750812065  0.26439306964462034  1.0000
  Te  Te4       1.0  0.26439301528766185  0.7356069352410533  0.7356068712619187  1.0000
  Te  Te5       1.0  0.26439314457595714  0.7356068439503435  0.2643930942293181  1.0000
  Te  Te6       1.0  0.7356070372016649  0.26439312109392177  0.7356067593418711  1.0000
