data_image0
_chemical_formula_structural       Nb2GaS6
_chemical_formula_sum              "Nb2 Ga1 S6"
_cell_length_a       6.214291380520115
_cell_length_b       6.214291539273058
_cell_length_c       6.214291342141486
_cell_angle_alpha    60.00000025017835
_cell_angle_beta     60.00000015962267
_cell_angle_gamma    59.999999841386995

_space_group_name_H-M_alt    "P 1"
_space_group_IT_number       1

loop_
  _space_group_symop_operation_xyz
  'x, y, z'

loop_
  _atom_site_type_symbol
  _atom_site_label
  _atom_site_symmetry_multiplicity
  _atom_site_fract_x
  _atom_site_fract_y
  _atom_site_fract_z
  _atom_site_occupancy
  Nb  Nb1       1.0  0.24999972175026722  0.2500000126822581  0.2500002340054796  1.0000
  Nb  Nb2       1.0  0.7500001469461268  0.7500001365893676  0.7499997773001261  1.0000
  Ga  Ga1       1.0  1.90322306341623e-08  0.9999999763497764  0.9999999846078632  1.0000
  S   S1        1.0  0.26174054571100686  0.26174054474466407  0.7382595332180132  1.0000
  S   S2        1.0  0.7382594825437276  0.7382594547422094  0.2617406614764905  1.0000
  S   S3        1.0  0.7382595487212286  0.26174047786615  0.2617405469736099  1.0000
  S   S4        1.0  0.26174036967798636  0.7382595334458385  0.7382594457018407  1.0000
  S   S5        1.0  0.2617404743587118  0.7382594095771753  0.2617405270764678  1.0000
  S   S6        1.0  0.7382596790127988  0.26174045983347094  0.7382592999831549  1.0000
