data_image0
_chemical_formula_structural       Nb2GeTe6
_chemical_formula_sum              "Nb2 Ge1 Te6"
_cell_length_a       7.0122375175963025
_cell_length_b       7.012237498755168
_cell_length_c       7.012237530719136
_cell_angle_alpha    60.00000011962394
_cell_angle_beta     60.00000014355885
_cell_angle_gamma    59.99999999177182

_space_group_name_H-M_alt    "P 1"
_space_group_IT_number       1

loop_
  _space_group_symop_operation_xyz
  'x, y, z'

loop_
  _atom_site_type_symbol
  _atom_site_label
  _atom_site_symmetry_multiplicity
  _atom_site_fract_x
  _atom_site_fract_y
  _atom_site_fract_z
  _atom_site_occupancy
  Nb  Nb1       1.0  0.24999999367382733  0.24999993175067098  0.25000002458783865  1.0000
  Nb  Nb2       1.0  0.7499999430275658  0.7500000030952866  0.7500001200380437  1.0000
  Ge  Ge1       1.0  1.1543992194746043e-08  0.9999999703081038  2.7612970259198856e-08  1.0000
  Te  Te1       1.0  0.26415965990558  0.2641595737697275  0.7358403654708069  1.0000
  Te  Te2       1.0  0.7358403650836488  0.7358404518985004  0.26415957551375624  1.0000
  Te  Te3       1.0  0.7358404162372728  0.2641596515719483  0.26415957111782135  1.0000
  Te  Te4       1.0  0.26415957027867515  0.7358404055347582  0.7358403976274746  1.0000
  Te  Te5       1.0  0.26415963476491183  0.7358403869892344  0.2641595758378579  1.0000
  Te  Te6       1.0  0.7358403987574503  0.2641596229597545  0.7358403459225049  1.0000
