data_image0
_chemical_formula_structural       Nb2GaO6
_chemical_formula_sum              "Nb2 Ga1 O6"
_cell_length_a       4.947132164513454
_cell_length_b       4.947132077783687
_cell_length_c       4.947132045089087
_cell_angle_alpha    60.00000048092088
_cell_angle_beta     60.000000326768024
_cell_angle_gamma    60.000000488666856

_space_group_name_H-M_alt    "P 1"
_space_group_IT_number       1

loop_
  _space_group_symop_operation_xyz
  'x, y, z'

loop_
  _atom_site_type_symbol
  _atom_site_label
  _atom_site_symmetry_multiplicity
  _atom_site_fract_x
  _atom_site_fract_y
  _atom_site_fract_z
  _atom_site_occupancy
  Nb  Nb1       1.0  0.25000000677133744  0.2500000405251086  0.2500000098049927  1.0000
  Nb  Nb2       1.0  0.7499999605260149  0.7499999928406729  0.7500001883602446  1.0000
  Ga  Ga1       1.0  1.9336157863991644e-09  0.9999999801946687  0.9999999968076186  1.0000
  O   O1        1.0  0.260046271267151  0.2600463219623514  0.7399536857738835  1.0000
  O   O2        1.0  0.7399537061917477  0.7399537089277625  0.2600462154493044  1.0000
  O   O3        1.0  0.7399536903813051  0.2600462615609597  0.2600463327241881  1.0000
  O   O4        1.0  0.26004626387837254  0.7399537619021552  0.7399536687097832  1.0000
  O   O5        1.0  0.2600463608745585  0.7399536878252563  0.2600462384949063  1.0000
  O   O6        1.0  0.7399536998346047  0.2600462613678672  0.7399537246142124  1.0000
