data_image0
_chemical_formula_structural       Nb2GaTe6
_chemical_formula_sum              "Nb2 Ga1 Te6"
_cell_length_a       6.997193845822504
_cell_length_b       6.997193869848352
_cell_length_c       6.997193735493733
_cell_angle_alpha    60.000000498439135
_cell_angle_beta     60.00000022098155
_cell_angle_gamma    59.99999945452918

_space_group_name_H-M_alt    "P 1"
_space_group_IT_number       1

loop_
  _space_group_symop_operation_xyz
  'x, y, z'

loop_
  _atom_site_type_symbol
  _atom_site_label
  _atom_site_symmetry_multiplicity
  _atom_site_fract_x
  _atom_site_fract_y
  _atom_site_fract_z
  _atom_site_occupancy
  Nb  Nb1       1.0  0.24999998137198523  0.24999979227653205  0.2500002670190446  1.0000
  Nb  Nb2       1.0  0.750000038453571  0.7499999106824397  0.7500000853723369  1.0000
  Ga  Ga1       1.0  0.9999999910824573  0.9999999772456166  0.9999999986862307  1.0000
  Te  Te1       1.0  0.26439310691792983  0.2643931349824451  0.7356068645285139  1.0000
  Te  Te2       1.0  0.7356068282049419  0.7356070003098143  0.2643930568015799  1.0000
  Te  Te3       1.0  0.7356068288051988  0.26439320209865536  0.2643930667723972  1.0000
  Te  Te4       1.0  0.26439305882695807  0.735606971701023  0.7356068090292919  1.0000
  Te  Te5       1.0  0.2643931454695012  0.7356068843792997  0.2643931107578419  1.0000
  Te  Te6       1.0  0.735607020754796  0.2643931318900284  0.7356067430998494  1.0000
