data_image0
_chemical_formula_structural       Nb2GaN6
_chemical_formula_sum              "Nb2 Ga1 N6"
_cell_length_a       4.811594806116694
_cell_length_b       4.811595066930874
_cell_length_c       4.811594676246715
_cell_angle_alpha    60.00000127304787
_cell_angle_beta     60.00000009751162
_cell_angle_gamma    60.00000063840013

_space_group_name_H-M_alt    "P 1"
_space_group_IT_number       1

loop_
  _space_group_symop_operation_xyz
  'x, y, z'

loop_
  _atom_site_type_symbol
  _atom_site_label
  _atom_site_symmetry_multiplicity
  _atom_site_fract_x
  _atom_site_fract_y
  _atom_site_fract_z
  _atom_site_occupancy
  Nb  Nb1       1.0  0.2499999647073556  0.24999998644104005  0.25000007467975244  1.0000
  Nb  Nb2       1.0  0.7499999883933218  0.7500000076857781  0.7499999885355689  1.0000
  Ga  Ga1       1.0  9.865488376094356e-09  2.799943244606306e-08  1.2242234958963448e-08  1.0000
  N   N1        1.0  0.27433498187622457  0.2743349003059912  0.7256650426407274  1.0000
  N   N2        1.0  0.7256650972051357  0.7256649894593039  0.27433492455417946  1.0000
  N   N3        1.0  0.7256651329976043  0.27433489603621664  0.27433500237690744  1.0000
  N   N4        1.0  0.27433490118561427  0.725665250814781  0.7256649065254166  1.0000
  N   N5        1.0  0.27433494662875046  0.7256649741475995  0.2743349130738974  1.0000
  N   N6        1.0  0.7256650067880509  0.2743349614349504  0.7256651335326098  1.0000
