data_image0
_chemical_formula_structural       Nb2GeO6
_chemical_formula_sum              "Nb2 Ge1 O6"
_cell_length_a       4.942926934084685
_cell_length_b       4.942926736172038
_cell_length_c       4.942926753151787
_cell_angle_alpha    60.00000063696958
_cell_angle_beta     60.00000043317328
_cell_angle_gamma    60.00000005653904

_space_group_name_H-M_alt    "P 1"
_space_group_IT_number       1

loop_
  _space_group_symop_operation_xyz
  'x, y, z'

loop_
  _atom_site_type_symbol
  _atom_site_label
  _atom_site_symmetry_multiplicity
  _atom_site_fract_x
  _atom_site_fract_y
  _atom_site_fract_z
  _atom_site_occupancy
  Nb  Nb1       1.0  0.24999995343800932  0.25000019052890193  0.24999994888902588  1.0000
  Nb  Nb2       1.0  0.7499999973973088  0.7499999570990874  0.7499999356603678  1.0000
  Ge  Ge1       1.0  1.4170640622569732e-10  0.9999999925666819  0.9999999915072484  1.0000
  O   O1        1.0  0.2579648795623185  0.25796465948901703  0.7420352581071877  1.0000
  O   O2        1.0  0.7420351440717214  0.7420353047837978  0.25796479501363295  1.0000
  O   O3        1.0  0.7420352318969814  0.25796479231849234  0.2579647793565591  1.0000
  O   O4        1.0  0.25796479905298375  0.7420351149655515  0.7420352986006842  1.0000
  O   O5        1.0  0.25796471823481476  0.7420351515461802  0.2579648318184588  1.0000
  O   O6        1.0  0.7420352765405055  0.2579648152044065  0.7420351738000491  1.0000
