data_image0
_chemical_formula_structural       Nb2GaO6
_chemical_formula_sum              "Nb2 Ga1 O6"
_cell_length_a       4.947131854110332
_cell_length_b       4.947131737162317
_cell_length_c       4.94713160215836
_cell_angle_alpha    60.00000041799171
_cell_angle_beta     60.0000009652615
_cell_angle_gamma    60.00000016444144

_space_group_name_H-M_alt    "P 1"
_space_group_IT_number       1

loop_
  _space_group_symop_operation_xyz
  'x, y, z'

loop_
  _atom_site_type_symbol
  _atom_site_label
  _atom_site_symmetry_multiplicity
  _atom_site_fract_x
  _atom_site_fract_y
  _atom_site_fract_z
  _atom_site_occupancy
  Nb  Nb1       1.0  0.2499999467700949  0.25000017281080944  0.25000000037882236  1.0000
  Nb  Nb2       1.0  0.7499998086083025  0.7500000183477795  0.7500002144740774  1.0000
  Ga  Ga1       1.0  1.9238989418191668e-08  0.9999999702920012  0.9999999829993979  1.0000
  O   O1        1.0  0.2600462642979817  0.2600463075850344  0.7399536910418892  1.0000
  O   O2        1.0  0.7399537190679873  0.7399537597902268  0.2600462028662317  1.0000
  O   O3        1.0  0.7399536444615963  0.2600463488714431  0.26004619530112166  1.0000
  O   O4        1.0  0.2600464490552181  0.739953654136487  0.7399537424205623  1.0000
  O   O5        1.0  0.26004628813825936  0.7399536851769073  0.26004631733690003  1.0000
  O   O6        1.0  0.7399538495643813  0.26004612225336343  0.7399536455463673  1.0000
