data_image0
_chemical_formula_structural       Nb2GaS6
_chemical_formula_sum              "Nb2 Ga1 S6"
_cell_length_a       6.21429172555345
_cell_length_b       6.214291772787337
_cell_length_c       6.21429169966765
_cell_angle_alpha    60.00000002755426
_cell_angle_beta     59.999999556778235
_cell_angle_gamma    59.9999997728489

_space_group_name_H-M_alt    "P 1"
_space_group_IT_number       1

loop_
  _space_group_symop_operation_xyz
  'x, y, z'

loop_
  _atom_site_type_symbol
  _atom_site_label
  _atom_site_symmetry_multiplicity
  _atom_site_fract_x
  _atom_site_fract_y
  _atom_site_fract_z
  _atom_site_occupancy
  Nb  Nb1       1.0  0.24999990537051803  0.25000002635225216  0.2500000372118421  1.0000
  Nb  Nb2       1.0  0.7500001795766743  0.7500000376688652  0.7499998507119006  1.0000
  Ga  Ga1       1.0  1.4865096107710698e-08  0.0  0.9999999877398703  1.0000
  S   S1        1.0  0.26174053184010204  0.26174054972769983  0.7382595555656661  1.0000
  S   S2        1.0  0.7382595524147788  0.738259388158896  0.2617406178402451  1.0000
  S   S3        1.0  0.738259478327569  0.26174051312458324  0.26174049284195977  1.0000
  S   S4        1.0  0.26174044573136923  0.7382595430131272  0.7382594199274415  1.0000
  S   S5        1.0  0.26174043493164667  0.738259461144885  0.261740565457593  1.0000
  S   S6        1.0  0.738259458047838  0.2617404708291561  0.7382594909103182  1.0000
