data_image0
_chemical_formula_structural       Nb2HfS6
_chemical_formula_sum              "Nb2 Hf1 S6"
_cell_length_a       6.253257944657575
_cell_length_b       6.25325786537665
_cell_length_c       6.253257945084566
_cell_angle_alpha    60.00000013235187
_cell_angle_beta     60.00000083447508
_cell_angle_gamma    60.000001432854994

_space_group_name_H-M_alt    "P 1"
_space_group_IT_number       1

loop_
  _space_group_symop_operation_xyz
  'x, y, z'

loop_
  _atom_site_type_symbol
  _atom_site_label
  _atom_site_symmetry_multiplicity
  _atom_site_fract_x
  _atom_site_fract_y
  _atom_site_fract_z
  _atom_site_occupancy
  Nb  Nb1       1.0  0.25000002761498813  0.24999983872951667  0.25000001307799885  1.0000
  Nb  Nb2       1.0  0.7499999743361908  0.7500000743812454  0.7500000606636631  1.0000
  Hf  Hf1       1.0  2.116980482799125e-08  1.9585708936818622e-08  0.9999999636305793  1.0000
  S   S1        1.0  0.27055686293440506  0.2705568731070192  0.7294431627948688  1.0000
  S   S2        1.0  0.729443077014584  0.7294431927722692  0.2705568191877997  1.0000
  S   S3        1.0  0.7294432100494683  0.2705568426555363  0.27055687026740943  1.0000
  S   S4        1.0  0.2705568667880768  0.7294431781766245  0.7294431169678705  1.0000
  S   S5        1.0  0.27055687361768904  0.7294431571598559  0.27055682427980826  1.0000
  S   S6        1.0  0.7294430969035629  0.27055682254231483  0.7294431711127899  1.0000
