data_image0
_chemical_formula_structural       Nb2HfTe6
_chemical_formula_sum              "Nb2 Hf1 Te6"
_cell_length_a       7.089586195196001
_cell_length_b       7.089586227338041
_cell_length_c       7.089586094399427
_cell_angle_alpha    60.0000007598677
_cell_angle_beta     60.00000053548064
_cell_angle_gamma    59.99999912238971

_space_group_name_H-M_alt    "P 1"
_space_group_IT_number       1

loop_
  _space_group_symop_operation_xyz
  'x, y, z'

loop_
  _atom_site_type_symbol
  _atom_site_label
  _atom_site_symmetry_multiplicity
  _atom_site_fract_x
  _atom_site_fract_y
  _atom_site_fract_z
  _atom_site_occupancy
  Nb  Nb1       1.0  0.2500001778646599  0.24999981814394165  0.24999999149337548  1.0000
  Nb  Nb2       1.0  0.7500000179362578  0.7499999899650743  0.749999954668726  1.0000
  Hf  Hf1       1.0  2.7770218172348623e-08  2.4185371675953422e-08  0.9999999373486961  1.0000
  Te  Te1       1.0  0.26741903319969423  0.2674190598893042  0.7325809645329108  1.0000
  Te  Te2       1.0  0.7325808503087837  0.7325810108037574  0.2674190671357298  1.0000
  Te  Te3       1.0  0.7325809401738766  0.2674189968004034  0.26741907574392637  1.0000
  Te  Te4       1.0  0.2674190382129552  0.7325810237943857  0.7325809744397411  1.0000
  Te  Te5       1.0  0.2674189571553192  0.7325810266279467  0.2674190511905102  1.0000
  Te  Te6       1.0  0.7325809578748272  0.26741904233758773  0.7325809881493732  1.0000
