data_image0
_chemical_formula_structural       Nb2IrS6
_chemical_formula_sum              "Nb2 Ir1 S6"
_cell_length_a       6.124374208286193
_cell_length_b       6.124374093322796
_cell_length_c       6.124374338395281
_cell_angle_alpha    60.00000080308769
_cell_angle_beta     59.99999938762956
_cell_angle_gamma    59.99999923545374

_space_group_name_H-M_alt    "P 1"
_space_group_IT_number       1

loop_
  _space_group_symop_operation_xyz
  'x, y, z'

loop_
  _atom_site_type_symbol
  _atom_site_label
  _atom_site_symmetry_multiplicity
  _atom_site_fract_x
  _atom_site_fract_y
  _atom_site_fract_z
  _atom_site_occupancy
  Nb  Nb1       1.0  0.25000048498555133  0.2499994072660186  0.25000008431944526  1.0000
  Nb  Nb2       1.0  0.749999452870276  0.7500005175544869  0.7500004457498737  1.0000
  Ir  Ir1       1.0  0.999999888266981  0.9999998940112437  0.9999999684383786  1.0000
  S   S1        1.0  0.26894873941444947  0.26894846037784775  0.7310514391617099  1.0000
  S   S2        1.0  0.7310512080187195  0.7310515884294875  0.2689484183493605  1.0000
  S   S3        1.0  0.7310513287515924  0.2689487089112686  0.2689485968679026  1.0000
  S   S4        1.0  0.2689485645925567  0.7310514738818534  0.7310513431562752  1.0000
  S   S5        1.0  0.26894886150053643  0.7310514868958568  0.26894837023763046  1.0000
  S   S6        1.0  0.7310514808248337  0.26894845192314515  0.7310513268604861  1.0000
