data_image0
_chemical_formula_structural       Nb2IrO6
_chemical_formula_sum              "Nb2 Ir1 O6"
_cell_length_a       5.089182477094922
_cell_length_b       5.089182432695913
_cell_length_c       5.089182772749558
_cell_angle_alpha    60.00000198909464
_cell_angle_beta     60.00000232398931
_cell_angle_gamma    60.00000289957948

_space_group_name_H-M_alt    "P 1"
_space_group_IT_number       1

loop_
  _space_group_symop_operation_xyz
  'x, y, z'

loop_
  _atom_site_type_symbol
  _atom_site_label
  _atom_site_symmetry_multiplicity
  _atom_site_fract_x
  _atom_site_fract_y
  _atom_site_fract_z
  _atom_site_occupancy
  Nb  Nb1       1.0  0.2499999378893281  0.24999980636050345  0.25000032728408583  1.0000
  Nb  Nb2       1.0  0.749999858711901  0.7500002300938546  0.749998417921302  1.0000
  Ir  Ir1       1.0  2.401842110188343e-08  9.626260088270202e-09  0.9999999694229963  1.0000
  O   O1        1.0  0.2648573950532286  0.2648575409102685  0.7351426859290225  1.0000
  O   O2        1.0  0.7351426463646006  0.73514242816034  0.2648580671637576  1.0000
  O   O3        1.0  0.7351424953713036  0.26485705862960324  0.26485785272916224  1.0000
  O   O4        1.0  0.2648577567386696  0.7351427684536601  0.735142447476439  1.0000
  O   O5        1.0  0.2648572940639215  0.7351425033275869  0.26485768371045926  1.0000
  O   O6        1.0  0.7351425604048873  0.2648576317959878  0.7351425571531082  1.0000
