data_image0
_chemical_formula_structural       Nb2IrO6
_chemical_formula_sum              "Nb2 Ir1 O6"
_cell_length_a       5.0888871329407595
_cell_length_b       5.088887190745368
_cell_length_c       5.088887012477058
_cell_angle_alpha    59.99999822116015
_cell_angle_beta     59.99999806687543
_cell_angle_gamma    59.999999061936016

_space_group_name_H-M_alt    "P 1"
_space_group_IT_number       1

loop_
  _space_group_symop_operation_xyz
  'x, y, z'

loop_
  _atom_site_type_symbol
  _atom_site_label
  _atom_site_symmetry_multiplicity
  _atom_site_fract_x
  _atom_site_fract_y
  _atom_site_fract_z
  _atom_site_occupancy
  Nb  Nb1       1.0  0.24999993805971377  0.2500004793578837  0.24999963593322921  1.0000
  Nb  Nb2       1.0  0.7499996953350105  0.7500003719034232  0.7500007638444769  1.0000
  Ir  Ir1       1.0  2.5915765285575665e-09  0.9999999037318098  7.827936855546026e-08  1.0000
  O   O1        1.0  0.2649038553162116  0.26490309405173507  0.7350964604534569  1.0000
  O   O2        1.0  0.7350963430718617  0.7350966068047317  0.2649031964401075  1.0000
  O   O3        1.0  0.7350966846714763  0.26490369197391916  0.2649032637951146  1.0000
  O   O4        1.0  0.2649033347790755  0.7350961508781192  0.7350967515258823  1.0000
  O   O5        1.0  0.2649036150154428  0.7350963494334827  0.26490338657359846  1.0000
  O   O6        1.0  0.7350965341178337  0.26490335623638933  0.7350964772568879  1.0000
