data_image0
_chemical_formula_structural       Nb2MoO6
_chemical_formula_sum              "Nb2 Mo1 O6"
_cell_length_a       5.1051958310721846
_cell_length_b       5.105195853310129
_cell_length_c       5.105195871457804
_cell_angle_alpha    59.999999877675826
_cell_angle_beta     60.000000261363084
_cell_angle_gamma    60.00000040226719

_space_group_name_H-M_alt    "P 1"
_space_group_IT_number       1

loop_
  _space_group_symop_operation_xyz
  'x, y, z'

loop_
  _atom_site_type_symbol
  _atom_site_label
  _atom_site_symmetry_multiplicity
  _atom_site_fract_x
  _atom_site_fract_y
  _atom_site_fract_z
  _atom_site_occupancy
  Nb  Nb1       1.0  0.24999994231644831  0.2500000359685338  0.2499999695800615  1.0000
  Nb  Nb2       1.0  0.7499999426273997  0.7499997744423188  0.7499999745394474  1.0000
  Mo  Mo1       1.0  3.71259045648347e-08  0.9999999904039343  4.499874179624004e-08  1.0000
  O   O1        1.0  0.26367714605059966  0.2636771131373548  0.7363228907412186  1.0000
  O   O2        1.0  0.7363228062419152  0.7363228819977623  0.26367716043768064  1.0000
  O   O3        1.0  0.7363229188594549  0.26367709868764644  0.2636771787381351  1.0000
  O   O4        1.0  0.2636772555925974  0.7363229492258329  0.7363227447657587  1.0000
  O   O5        1.0  0.26367714812279314  0.7363228638207727  0.2636772364595323  1.0000
  O   O6        1.0  0.7363227875803916  0.2636772896494283  0.7363228457035025  1.0000
