data_image0
_chemical_formula_structural       Nb2MnO6
_chemical_formula_sum              "Nb2 Mn1 O6"
_cell_length_a       4.927788304106116
_cell_length_b       4.927788276304437
_cell_length_c       4.927788439216377
_cell_angle_alpha    59.9999977166226
_cell_angle_beta     59.99999919893486
_cell_angle_gamma    59.999998347041746

_space_group_name_H-M_alt    "P 1"
_space_group_IT_number       1

loop_
  _space_group_symop_operation_xyz
  'x, y, z'

loop_
  _atom_site_type_symbol
  _atom_site_label
  _atom_site_symmetry_multiplicity
  _atom_site_fract_x
  _atom_site_fract_y
  _atom_site_fract_z
  _atom_site_occupancy
  Nb  Nb1       1.0  0.24999975692477347  0.2499999691429379  0.25000000512215076  1.0000
  Nb  Nb2       1.0  0.7499998245593589  0.7499999894464955  0.7500002555247638  1.0000
  Mn  Mn1       1.0  0.9999999817738463  5.4678460737633126e-08  2.0669249633499714e-09  1.0000
  O   O1        1.0  0.2579291438293993  0.25792888579741974  0.7420709771449425  1.0000
  O   O2        1.0  0.7420709395107726  0.742071092675091  0.25792887043432156  1.0000
  O   O3        1.0  0.7420711944037294  0.25792904169194847  0.25792892610009927  1.0000
  O   O4        1.0  0.25792901492738746  0.7420709243536368  0.7420710128366318  1.0000
  O   O5        1.0  0.257929006345845  0.7420709907264923  0.2579290165193  1.0000
  O   O6        1.0  0.7420711298695377  0.2579290821906304  0.7420709156860679  1.0000
