data_image0
_chemical_formula_structural       Nb2MnTe6
_chemical_formula_sum              "Nb2 Mn1 Te6"
_cell_length_a       6.834463411067895
_cell_length_b       6.834463375394394
_cell_length_c       6.834463451271923
_cell_angle_alpha    60.00000003908022
_cell_angle_beta     59.99999964119344
_cell_angle_gamma    59.999999630677344

_space_group_name_H-M_alt    "P 1"
_space_group_IT_number       1

loop_
  _space_group_symop_operation_xyz
  'x, y, z'

loop_
  _atom_site_type_symbol
  _atom_site_label
  _atom_site_symmetry_multiplicity
  _atom_site_fract_x
  _atom_site_fract_y
  _atom_site_fract_z
  _atom_site_occupancy
  Nb  Nb1       1.0  0.25000002383007425  0.2500000012660533  0.2499999783057241  1.0000
  Nb  Nb2       1.0  0.7500000053937242  0.7500000145502396  0.7499999962423526  1.0000
  Mn  Mn1       1.0  2.136650380162726e-08  1.7920129932282332e-09  0.9999999562309433  1.0000
  Te  Te1       1.0  0.2555768255267821  0.25557679918200416  0.7444232201169678  1.0000
  Te  Te2       1.0  0.7444231676372112  0.7444231879620777  0.25557684093450517  1.0000
  Te  Te3       1.0  0.7444231604883367  0.2555768341915834  0.2555768209234964  1.0000
  Te  Te4       1.0  0.2555767999597358  0.7444231852087364  0.744423199388984  1.0000
  Te  Te5       1.0  0.2555768180207661  0.7444231790695724  0.2555767969522272  1.0000
  Te  Te6       1.0  0.7444231746483766  0.2555768044904826  0.7444231885905339  1.0000
