data_image0
_chemical_formula_structural       Nb2MoS6
_chemical_formula_sum              "Nb2 Mo1 S6"
_cell_length_a       6.08078380717717
_cell_length_b       6.080783497499293
_cell_length_c       6.080783228833649
_cell_angle_alpha    60.00000008269351
_cell_angle_beta     59.999999895338334
_cell_angle_gamma    59.99999707313486

_space_group_name_H-M_alt    "P 1"
_space_group_IT_number       1

loop_
  _space_group_symop_operation_xyz
  'x, y, z'

loop_
  _atom_site_type_symbol
  _atom_site_label
  _atom_site_symmetry_multiplicity
  _atom_site_fract_x
  _atom_site_fract_y
  _atom_site_fract_z
  _atom_site_occupancy
  Nb  Nb1       1.0  0.25000043134515537  0.2499995739564701  0.24999972804057288  1.0000
  Nb  Nb2       1.0  0.7499993542590215  0.7500002002360953  0.7500002107767277  1.0000
  Mo  Mo1       1.0  0.9999999225847054  1.0070618620450426e-08  2.3594891402413498e-07  1.0000
  S   S1        1.0  0.2706372243421278  0.2706368812711387  0.7293628441778737  1.0000
  S   S2        1.0  0.7293629388963165  0.7293631386444832  0.2706368207848277  1.0000
  S   S3        1.0  0.7293629204890214  0.2706369294840084  0.2706372441970307  1.0000
  S   S4        1.0  0.2706372492361744  0.7293628829768924  0.7293629488261558  1.0000
  S   S5        1.0  0.27063713298802816  0.7293632027436964  0.27063701603024864  1.0000
  S   S6        1.0  0.7293628515529822  0.27063715957292156  0.7293630275476708  1.0000
