data_image0
_chemical_formula_structural       Nb2NiO6
_chemical_formula_sum              "Nb2 Ni1 O6"
_cell_length_a       4.927151644758773
_cell_length_b       4.9271516080192646
_cell_length_c       4.9271515872066844
_cell_angle_alpha    59.999999375906775
_cell_angle_beta     60.00000001596689
_cell_angle_gamma    60.00000030625556

_space_group_name_H-M_alt    "P 1"
_space_group_IT_number       1

loop_
  _space_group_symop_operation_xyz
  'x, y, z'

loop_
  _atom_site_type_symbol
  _atom_site_label
  _atom_site_symmetry_multiplicity
  _atom_site_fract_x
  _atom_site_fract_y
  _atom_site_fract_z
  _atom_site_occupancy
  Nb  Nb1       1.0  0.250000143554119  0.2500002059837788  0.24999962345882787  1.0000
  Nb  Nb2       1.0  0.7500000428769692  0.7499998970966794  0.750000021390148  1.0000
  Ni  Ni1       1.0  0.999999975593814  9.94282273934636e-09  0.9999999808472692  1.0000
  O   O1        1.0  0.2539460549529137  0.25394607125342983  0.746053965730459  1.0000
  O   O2        1.0  0.7460539306684287  0.7460539522844428  0.25394606487267696  1.0000
  O   O3        1.0  0.7460539100253039  0.25394597524810664  0.2539461511128676  1.0000
  O   O4        1.0  0.25394595385361224  0.7460538370047811  0.7460541008023709  1.0000
  O   O5        1.0  0.2539460749181022  0.7460539574052382  0.2539460456812544  1.0000
  O   O6        1.0  0.7460538951025979  0.25394610590392475  0.7460540438715143  1.0000
