data_image0
_chemical_formula_structural       Nb2NO6
_chemical_formula_sum              "Nb2 N1 O6"
_cell_length_a       4.7697705117605755
_cell_length_b       4.769770058647498
_cell_length_c       4.769770496151483
_cell_angle_alpha    60.00000074928232
_cell_angle_beta     60.00000192642187
_cell_angle_gamma    60.000000762066854

_space_group_name_H-M_alt    "P 1"
_space_group_IT_number       1

loop_
  _space_group_symop_operation_xyz
  'x, y, z'

loop_
  _atom_site_type_symbol
  _atom_site_label
  _atom_site_symmetry_multiplicity
  _atom_site_fract_x
  _atom_site_fract_y
  _atom_site_fract_z
  _atom_site_occupancy
  Nb  Nb1       1.0  0.24999978457773234  0.25000024949789157  0.2500001197414823  1.0000
  Nb  Nb2       1.0  0.7499999423118401  0.7499999704735831  0.7500002778360548  1.0000
  N   N1        1.0  0.9999992114751821  3.029913367589483e-07  9.891338860008852e-07  1.0000
  O   O1        1.0  0.24616940590498382  0.24616941203177406  0.7538305142054059  1.0000
  O   O2        1.0  0.7538309472353776  0.7538306359022492  0.2461692055100257  1.0000
  O   O3        1.0  0.7538309838039926  0.24616909134762044  0.24616889567833009  1.0000
  O   O4        1.0  0.2461697596467919  0.753830250462534  0.7538302502524203  1.0000
  O   O5        1.0  0.24616929617317646  0.753830755991947  0.2461692396750862  1.0000
  O   O6        1.0  0.7538306822941908  0.24616930478067878  0.7538304953311189  1.0000
