data_image0
_chemical_formula_structural       Nb2NO6
_chemical_formula_sum              "Nb2 N1 O6"
_cell_length_a       4.76982096072094
_cell_length_b       4.769820858997219
_cell_length_c       4.769820730790344
_cell_angle_alpha    60.000002267157896
_cell_angle_beta     60.000001660862964
_cell_angle_gamma    60.00000104917681

_space_group_name_H-M_alt    "P 1"
_space_group_IT_number       1

loop_
  _space_group_symop_operation_xyz
  'x, y, z'

loop_
  _atom_site_type_symbol
  _atom_site_label
  _atom_site_symmetry_multiplicity
  _atom_site_fract_x
  _atom_site_fract_y
  _atom_site_fract_z
  _atom_site_occupancy
  Nb  Nb1       1.0  0.24999996912085434  0.2499998314888652  0.2500004493142461  1.0000
  Nb  Nb2       1.0  0.7499999756285656  0.749999892459406  0.7499997227274748  1.0000
  N   N1        1.0  0.9999996197758968  2.6190496935612797e-07  6.461837278074702e-07  1.0000
  O   O1        1.0  0.24619927163701752  0.24619905384943797  0.7538007307595642  1.0000
  O   O2        1.0  0.7538008351327606  0.7538009756546193  0.24619914669515702  1.0000
  O   O3        1.0  0.753800947581037  0.24619897030087942  0.24619892460495196  1.0000
  O   O4        1.0  0.24619945125961573  0.7538008075689946  0.7538005573552631  1.0000
  O   O5        1.0  0.24619905953185223  0.7538009795052466  0.24619906193894395  1.0000
  O   O6        1.0  0.7538008135862673  0.24619924257598605  0.7538007417098527  1.0000
