data_image0
_chemical_formula_structural       Nb2NiSe6
_chemical_formula_sum              "Nb2 Ni1 Se6"
_cell_length_a       6.305668673900281
_cell_length_b       6.305668546727111
_cell_length_c       6.305668718008622
_cell_angle_alpha    59.99999794827929
_cell_angle_beta     59.99999989876672
_cell_angle_gamma    59.999999615760096

_space_group_name_H-M_alt    "P 1"
_space_group_IT_number       1

loop_
  _space_group_symop_operation_xyz
  'x, y, z'

loop_
  _atom_site_type_symbol
  _atom_site_label
  _atom_site_symmetry_multiplicity
  _atom_site_fract_x
  _atom_site_fract_y
  _atom_site_fract_z
  _atom_site_occupancy
  Nb  Nb1       1.0  0.2500000936415708  0.24999989813323353  0.250000073702007  1.0000
  Nb  Nb2       1.0  0.7500001276900309  0.7499999838011957  0.7499999595459077  1.0000
  Ni  Ni1       1.0  3.588475271305197e-08  0.9999999747502046  6.446100496678493e-08  1.0000
  Se  Se1       1.0  0.2620004834212444  0.26200059452703134  0.7379994307702914  1.0000
  Se  Se2       1.0  0.7379995176636196  0.7379994097717874  0.2620005166194533  1.0000
  Se  Se3       1.0  0.7379993713142319  0.2620005157054854  0.2620005143411803  1.0000
  Se  Se4       1.0  0.26200045134660405  0.7379995624004247  0.7379994060633005  1.0000
  Se  Se5       1.0  0.2620004528989738  0.7379995338958527  0.2620005248578727  1.0000
  Se  Se6       1.0  0.7379994555145608  0.26200052867172097  0.7379995253703883  1.0000
