data_image0
_chemical_formula_structural       Nb2NiTe6
_chemical_formula_sum              "Nb2 Ni1 Te6"
_cell_length_a       6.8007802584768084
_cell_length_b       6.800780484694417
_cell_length_c       6.800780244554703
_cell_angle_alpha    59.999999569303895
_cell_angle_beta     59.99999998332235
_cell_angle_gamma    59.99999990576717

_space_group_name_H-M_alt    "P 1"
_space_group_IT_number       1

loop_
  _space_group_symop_operation_xyz
  'x, y, z'

loop_
  _atom_site_type_symbol
  _atom_site_label
  _atom_site_symmetry_multiplicity
  _atom_site_fract_x
  _atom_site_fract_y
  _atom_site_fract_z
  _atom_site_occupancy
  Nb  Nb1       1.0  0.2500000494554295  0.2500002005689597  0.24999980677436182  1.0000
  Nb  Nb2       1.0  0.7500000620594505  0.7499999335771649  0.7500001445603756  1.0000
  Ni  Ni1       1.0  0.9999999932084231  1.1136226137882963e-16  0.9999999989845298  1.0000
  Te  Te1       1.0  0.25641898155053167  0.2564190830293182  0.7435809578968947  1.0000
  Te  Te2       1.0  0.7435809789401178  0.7435808980412697  0.25641902197248895  1.0000
  Te  Te3       1.0  0.7435809442419251  0.25641905439701745  0.2564190291917324  1.0000
  Te  Te4       1.0  0.25641901088140007  0.7435808816513523  0.743581021455428  1.0000
  Te  Te5       1.0  0.2564191003643142  0.7435809353475078  0.2564189962572985  1.0000
  Te  Te6       1.0  0.7435808834172235  0.25641901150619395  0.7435810273059918  1.0000
