data_image0
_chemical_formula_structural       Nb2OsS6
_chemical_formula_sum              "Nb2 Os1 S6"
_cell_length_a       6.021858444141994
_cell_length_b       6.021858527299987
_cell_length_c       6.021858440078728
_cell_angle_alpha    60.00000079788608
_cell_angle_beta     60.000000216501704
_cell_angle_gamma    60.00000145027148

_space_group_name_H-M_alt    "P 1"
_space_group_IT_number       1

loop_
  _space_group_symop_operation_xyz
  'x, y, z'

loop_
  _atom_site_type_symbol
  _atom_site_label
  _atom_site_symmetry_multiplicity
  _atom_site_fract_x
  _atom_site_fract_y
  _atom_site_fract_z
  _atom_site_occupancy
  Nb  Nb1       1.0  0.2499999887137883  0.2499998122552478  0.25000019015138775  1.0000
  Nb  Nb2       1.0  0.7500000280731736  0.7500000103063664  0.7500001165473618  1.0000
  Os  Os1       1.0  1.8942518949179434e-08  1.2202992097852736e-08  0.9999999678210754  1.0000
  S   S1        1.0  0.273245404799386  0.2732453868751645  0.7267546135119762  1.0000
  S   S2        1.0  0.7267546146959306  0.7267546289004887  0.27324535941797434  1.0000
  S   S3        1.0  0.726754587887112  0.2732454431470202  0.27324528022015526  1.0000
  S   S4        1.0  0.2732453290858552  0.7267547536396795  0.7267544940462233  1.0000
  S   S5        1.0  0.2732453440337941  0.726754648608264  0.27324537291030276  1.0000
  S   S6        1.0  0.7267546760830187  0.27324526750962147  0.7267546030405098  1.0000
