data_image0
_chemical_formula_structural       Nb2OsSe6
_chemical_formula_sum              "Nb2 Os1 Se6"
_cell_length_a       6.393037758585553
_cell_length_b       6.393038305670828
_cell_length_c       6.393037890950555
_cell_angle_alpha    59.999999020691945
_cell_angle_beta     59.99999823666331
_cell_angle_gamma    59.99999971424642

_space_group_name_H-M_alt    "P 1"
_space_group_IT_number       1

loop_
  _space_group_symop_operation_xyz
  'x, y, z'

loop_
  _atom_site_type_symbol
  _atom_site_label
  _atom_site_symmetry_multiplicity
  _atom_site_fract_x
  _atom_site_fract_y
  _atom_site_fract_z
  _atom_site_occupancy
  Nb  Nb1       1.0  0.25000002530353477  0.2499992925469601  0.2500006482447844  1.0000
  Nb  Nb2       1.0  0.7500001662595922  0.7499998336193747  0.7499994809409058  1.0000
  Os  Os1       1.0  0.9999999485315304  7.854565700823069e-08  2.4002242864806322e-08  1.0000
  Se  Se1       1.0  0.2714972075640526  0.27149699134013383  0.7285028182565448  1.0000
  Se  Se2       1.0  0.7285027070701309  0.7285031444252565  0.2714972808974085  1.0000
  Se  Se3       1.0  0.7285029057324677  0.27149721406148164  0.2714969725276353  1.0000
  Se  Se4       1.0  0.27149708504933895  0.7285031592566376  0.7285026803988425  1.0000
  Se  Se5       1.0  0.2714968441436422  0.7285030299040604  0.2714973558100384  1.0000
  Se  Se6       1.0  0.728503111810437  0.2714973070148398  0.72850272378031  1.0000
