data_image0
_chemical_formula_structural       Nb2OsO6
_chemical_formula_sum              "Nb2 Os1 O6"
_cell_length_a       5.04893566079434
_cell_length_b       5.0489355584346995
_cell_length_c       5.0489353780799915
_cell_angle_alpha    60.00000069072829
_cell_angle_beta     59.99999919061161
_cell_angle_gamma    59.9999996754536

_space_group_name_H-M_alt    "P 1"
_space_group_IT_number       1

loop_
  _space_group_symop_operation_xyz
  'x, y, z'

loop_
  _atom_site_type_symbol
  _atom_site_label
  _atom_site_symmetry_multiplicity
  _atom_site_fract_x
  _atom_site_fract_y
  _atom_site_fract_z
  _atom_site_occupancy
  Nb  Nb1       1.0  0.2500000824044161  0.2500000475445255  0.24999982824781908  1.0000
  Nb  Nb2       1.0  0.7500000816523266  0.7499998297120033  0.7500004231420039  1.0000
  Os  Os1       1.0  0.9999999881725217  0.9999999805940106  0.9999999938299629  1.0000
  O   O1        1.0  0.265187635605478  0.26518772031050086  0.7348123220458248  1.0000
  O   O2        1.0  0.7348123748960216  0.7348122539759723  0.2651874862201458  1.0000
  O   O3        1.0  0.7348122232655774  0.2651878516086464  0.26518748846702905  1.0000
  O   O4        1.0  0.2651876640579431  0.7348122657969982  0.7348124088591257  1.0000
  O   O5        1.0  0.26518766113770387  0.7348123946775915  0.26518772752986486  1.0000
  O   O6        1.0  0.7348122870355839  0.2651876499555938  0.7348123005364153  1.0000
