data_image0
_chemical_formula_structural       Nb2PdS6
_chemical_formula_sum              "Nb2 Pd1 S6"
_cell_length_a       6.14482792623983
_cell_length_b       6.144828181697384
_cell_length_c       6.1448282021019995
_cell_angle_alpha    59.99999981992487
_cell_angle_beta     59.99999856062483
_cell_angle_gamma    59.99999953262679

_space_group_name_H-M_alt    "P 1"
_space_group_IT_number       1

loop_
  _space_group_symop_operation_xyz
  'x, y, z'

loop_
  _atom_site_type_symbol
  _atom_site_label
  _atom_site_symmetry_multiplicity
  _atom_site_fract_x
  _atom_site_fract_y
  _atom_site_fract_z
  _atom_site_occupancy
  Nb  Nb1       1.0  0.24999980199896268  0.2500002936541907  0.24999979409968728  1.0000
  Nb  Nb2       1.0  0.7499998516961247  0.7499997129876914  0.7500003634704925  1.0000
  Pd  Pd1       1.0  2.067056446588819e-08  0.9999999999999998  5.63874946050148e-08  1.0000
  S   S1        1.0  0.2688814949895019  0.26888156157229964  0.7311185364225402  1.0000
  S   S2        1.0  0.7311185700293105  0.7311184231451355  0.26888141831107654  1.0000
  S   S3        1.0  0.731118558468258  0.26888156145918723  0.26888143928763875  1.0000
  S   S4        1.0  0.2688815819246643  0.7311184451826902  0.7311185221277852  1.0000
  S   S5        1.0  0.2688816785191835  0.731118419719791  0.2688813830041609  1.0000
  S   S6        1.0  0.7311184583238752  0.26888160884652973  0.7311184666987308  1.0000
