data_image0
_chemical_formula_structural       Nb2PbS6
_chemical_formula_sum              "Nb2 Pb1 S6"
_cell_length_a       6.351480004771509
_cell_length_b       6.351480007174955
_cell_length_c       6.3514800616129135
_cell_angle_alpha    59.99999961474891
_cell_angle_beta     59.99999968614121
_cell_angle_gamma    59.99999971402236

_space_group_name_H-M_alt    "P 1"
_space_group_IT_number       1

loop_
  _space_group_symop_operation_xyz
  'x, y, z'

loop_
  _atom_site_type_symbol
  _atom_site_label
  _atom_site_symmetry_multiplicity
  _atom_site_fract_x
  _atom_site_fract_y
  _atom_site_fract_z
  _atom_site_occupancy
  Nb  Nb1       1.0  0.24999995942942513  0.24999994685399762  0.25000013152500467  1.0000
  Nb  Nb2       1.0  0.749999965070177  0.7500001201629788  0.7499999941113774  1.0000
  Pb  Pb1       1.0  0.9999999688733998  1.1569695967377447e-08  1.9225069193947963e-08  1.0000
  S   S1        1.0  0.27335455732671543  0.27335451142590517  0.7266455343979725  1.0000
  S   S2        1.0  0.7266454722326636  0.7266454803880475  0.2733544881416068  1.0000
  S   S3        1.0  0.7266454714823918  0.27335451528551735  0.2733545429438122  1.0000
  S   S4        1.0  0.2733545866136227  0.7266455054526754  0.7266453831645738  1.0000
  S   S5        1.0  0.2733544946950593  0.7266454596661114  0.2733545572852911  1.0000
  S   S6        1.0  0.7266455311747981  0.27335443959027383  0.7266453716785769  1.0000
