data_image0
_chemical_formula_structural       Nb2PbO6
_chemical_formula_sum              "Nb2 Pb1 O6"
_cell_length_a       5.334960604669512
_cell_length_b       5.334960621911452
_cell_length_c       5.334960593184762
_cell_angle_alpha    59.99999604559224
_cell_angle_beta     59.99999811794138
_cell_angle_gamma    59.9999981055007

_space_group_name_H-M_alt    "P 1"
_space_group_IT_number       1

loop_
  _space_group_symop_operation_xyz
  'x, y, z'

loop_
  _atom_site_type_symbol
  _atom_site_label
  _atom_site_symmetry_multiplicity
  _atom_site_fract_x
  _atom_site_fract_y
  _atom_site_fract_z
  _atom_site_occupancy
  Nb  Nb1       1.0  0.25000012324003124  0.24999991411050243  0.24999932566185018  1.0000
  Nb  Nb2       1.0  0.7500002541288486  0.7499999397613053  0.7499999885650293  1.0000
  Pb  Pb1       1.0  7.652321308109779e-10  0.999999997704304  0.9999999932675196  1.0000
  O   O1        1.0  0.2658911778817778  0.26589117694996245  0.7341091415316977  1.0000
  O   O2        1.0  0.7341086666236477  0.734108963883842  0.2658911897481089  1.0000
  O   O3        1.0  0.7341087411673178  0.26589129590733657  0.265891194061929  1.0000
  O   O4        1.0  0.26589109680757794  0.7341084684322875  0.7341091131710141  1.0000
  O   O5        1.0  0.26589109624725865  0.7341090172170098  0.26589132435193596  1.0000
  O   O6        1.0  0.734108841019865  0.2658912154446524  0.7341087478089883  1.0000
