data_image0
_chemical_formula_structural       Nb2PS6
_chemical_formula_sum              "Nb2 P1 S6"
_cell_length_a       6.174886704821355
_cell_length_b       6.174886823639972
_cell_length_c       6.174886992356267
_cell_angle_alpha    59.99999991457292
_cell_angle_beta     59.99999805155427
_cell_angle_gamma    59.99999790559038

_space_group_name_H-M_alt    "P 1"
_space_group_IT_number       1

loop_
  _space_group_symop_operation_xyz
  'x, y, z'

loop_
  _atom_site_type_symbol
  _atom_site_label
  _atom_site_symmetry_multiplicity
  _atom_site_fract_x
  _atom_site_fract_y
  _atom_site_fract_z
  _atom_site_occupancy
  Nb  Nb1       1.0  0.2500003864144675  0.250000033343227  0.24999993240862006  1.0000
  Nb  Nb2       1.0  0.7499997541739426  0.7500003658091758  0.7499998389259642  1.0000
  P   P1        1.0  0.9999999610509511  1.5867430977825075e-08  0.999999933806593  1.0000
  S   S1        1.0  0.2493407529230459  0.24934044553264437  0.7506594286946526  1.0000
  S   S2        1.0  0.7506592750770105  0.7506594835471223  0.2493408185891873  1.0000
  S   S3        1.0  0.7506591387130804  0.2493405918551917  0.24934064911803855  1.0000
  S   S4        1.0  0.24934065818220633  0.7506593292908623  0.7506594893407834  1.0000
  S   S5        1.0  0.24934063853583052  0.7506592822147204  0.2493406056381431  1.0000
  S   S6        1.0  0.7506594071660713  0.24934047033987275  0.7506593453419819  1.0000
