data_image0
_chemical_formula_structural       Nb2PtSe6
_chemical_formula_sum              "Nb2 Pt1 Se6"
_cell_length_a       6.502116927597907
_cell_length_b       6.502116769342507
_cell_length_c       6.502116691434973
_cell_angle_alpha    59.999999110210666
_cell_angle_beta     59.999999987087286
_cell_angle_gamma    59.99999962141365

_space_group_name_H-M_alt    "P 1"
_space_group_IT_number       1

loop_
  _space_group_symop_operation_xyz
  'x, y, z'

loop_
  _atom_site_type_symbol
  _atom_site_label
  _atom_site_symmetry_multiplicity
  _atom_site_fract_x
  _atom_site_fract_y
  _atom_site_fract_z
  _atom_site_occupancy
  Nb  Nb1       1.0  0.24999999111398666  0.24999997511133565  0.24999993438550913  1.0000
  Nb  Nb2       1.0  0.7500001823206769  0.7500000176308723  0.7499997371065725  1.0000
  Pt  Pt1       1.0  1.4099346261053541e-08  5.650828315208775e-09  1.3194323170015574e-08  1.0000
  Se  Se1       1.0  0.26011824739538747  0.2601182946550568  0.7398817638253816  1.0000
  Se  Se2       1.0  0.7398816918010706  0.7398817508282117  0.26011838136749055  1.0000
  Se  Se3       1.0  0.7398817277602389  0.26011822991997574  0.2601183155482558  1.0000
  Se  Se4       1.0  0.26011823165426334  0.739881717615601  0.7398817177892913  1.0000
  Se  Se5       1.0  0.2601182268509861  0.7398817016892899  0.26011838214874794  1.0000
  Se  Se6       1.0  0.7398816845776811  0.260118309889008  0.7398817661972128  1.0000
