data_image0
_chemical_formula_structural       Nb2PbSe6
_chemical_formula_sum              "Nb2 Pb1 Se6"
_cell_length_a       6.504742683579074
_cell_length_b       6.504742671210214
_cell_length_c       6.50474264782219
_cell_angle_alpha    59.99999833681728
_cell_angle_beta     59.999998861562645
_cell_angle_gamma    59.99999776047131

_space_group_name_H-M_alt    "P 1"
_space_group_IT_number       1

loop_
  _space_group_symop_operation_xyz
  'x, y, z'

loop_
  _atom_site_type_symbol
  _atom_site_label
  _atom_site_symmetry_multiplicity
  _atom_site_fract_x
  _atom_site_fract_y
  _atom_site_fract_z
  _atom_site_occupancy
  Nb  Nb1       1.0  0.2500000332488213  0.25000042616828616  0.24999937026957805  1.0000
  Nb  Nb2       1.0  0.749999749076291  0.7499998701337026  0.7500004569516253  1.0000
  Pb  Pb1       1.0  0.9999999823560103  0.9999999943514526  3.1631686678631734e-08  1.0000
  Se  Se1       1.0  0.2841926260594712  0.2841924741469164  0.7158075896156071  1.0000
  Se  Se2       1.0  0.715807500171431  0.7158073815683724  0.2841924381426977  1.0000
  Se  Se3       1.0  0.7158074643152554  0.28419274275376855  0.2841924041200629  1.0000
  Se  Se4       1.0  0.2841926244217716  0.7158071242586139  0.7158077351263824  1.0000
  Se  Se5       1.0  0.2841926735325116  0.7158074414951248  0.2841924593956352  1.0000
  Se  Se6       1.0  0.7158073406812747  0.2841925479024531  0.7158075360073246  1.0000
