data_image0
_chemical_formula_structural       Nb2PdSe6
_chemical_formula_sum              "Nb2 Pd1 Se6"
_cell_length_a       6.399796658620499
_cell_length_b       6.399796445242539
_cell_length_c       6.399796603996314
_cell_angle_alpha    60.00000052346855
_cell_angle_beta     60.00000039455928
_cell_angle_gamma    60.0000021740228

_space_group_name_H-M_alt    "P 1"
_space_group_IT_number       1

loop_
  _space_group_symop_operation_xyz
  'x, y, z'

loop_
  _atom_site_type_symbol
  _atom_site_label
  _atom_site_symmetry_multiplicity
  _atom_site_fract_x
  _atom_site_fract_y
  _atom_site_fract_z
  _atom_site_occupancy
  Nb  Nb1       1.0  0.2500001542626018  0.24999967115958285  0.24999981784446282  1.0000
  Nb  Nb2       1.0  0.7500001980183502  0.7499998727411483  0.7500000203768861  1.0000
  Pd  Pd1       1.0  0.9999999741928851  2.8705870413776926e-08  3.136416536160633e-08  1.0000
  Se  Se1       1.0  0.27305025276598566  0.27305048756652894  0.726949736905233  1.0000
  Se  Se2       1.0  0.726949521351791  0.7269496974319674  0.2730502979810769  1.0000
  Se  Se3       1.0  0.7269496526176239  0.27305036258302245  0.2730503763144094  1.0000
  Se  Se4       1.0  0.2730503805531109  0.7269496731449531  0.7269495693045881  1.0000
  Se  Se5       1.0  0.2730502966762793  0.7269497716764678  0.27305048209304045  1.0000
  Se  Se6       1.0  0.7269495715734606  0.27305042863183093  0.7269496543273528  1.0000
