data_image0
_chemical_formula_structural       Nb2PO6
_chemical_formula_sum              "Nb2 P1 O6"
_cell_length_a       4.851424093702673
_cell_length_b       4.851423991015051
_cell_length_c       4.851424158789218
_cell_angle_alpha    60.00000034515916
_cell_angle_beta     59.999999194931426
_cell_angle_gamma    60.000000055276686

_space_group_name_H-M_alt    "P 1"
_space_group_IT_number       1

loop_
  _space_group_symop_operation_xyz
  'x, y, z'

loop_
  _atom_site_type_symbol
  _atom_site_label
  _atom_site_symmetry_multiplicity
  _atom_site_fract_x
  _atom_site_fract_y
  _atom_site_fract_z
  _atom_site_occupancy
  Nb  Nb1       1.0  0.25000001437017444  0.25000000285330276  0.25000006372652206  1.0000
  Nb  Nb2       1.0  0.7499999838217953  0.7500001221626689  0.7499998177324838  1.0000
  P   P1        1.0  0.9999999960812478  0.9999999974754944  2.1772882515615247e-08  1.0000
  O   O1        1.0  0.24514467519311658  0.2451446069668043  0.754855365381687  1.0000
  O   O2        1.0  0.754855379957  0.7548553186132001  0.2451446697662429  1.0000
  O   O3        1.0  0.7548553800210156  0.24514463725559776  0.2451446344736746  1.0000
  O   O4        1.0  0.245144609710641  0.7548553489125484  0.7548553907219128  1.0000
  O   O5        1.0  0.24514460810346156  0.7548553093180979  0.24514467297797932  1.0000
  O   O6        1.0  0.7548553715549432  0.24514466422751804  0.7548553305854926  1.0000
