data_image0
_chemical_formula_structural       Nb2PdO6
_chemical_formula_sum              "Nb2 Pd1 O6"
_cell_length_a       5.178957385761069
_cell_length_b       5.178957455219667
_cell_length_c       5.178957471191396
_cell_angle_alpha    59.99999911252621
_cell_angle_beta     59.999999290966564
_cell_angle_gamma    60.00000017337848

_space_group_name_H-M_alt    "P 1"
_space_group_IT_number       1

loop_
  _space_group_symop_operation_xyz
  'x, y, z'

loop_
  _atom_site_type_symbol
  _atom_site_label
  _atom_site_symmetry_multiplicity
  _atom_site_fract_x
  _atom_site_fract_y
  _atom_site_fract_z
  _atom_site_occupancy
  Nb  Nb1       1.0  0.24999983214502214  0.2500003312588029  0.24999986715268185  1.0000
  Nb  Nb2       1.0  0.7499996360618901  0.7499999461486061  0.750000329644998  1.0000
  Pd  Pd1       1.0  0.9999999852931233  3.0743028463294076e-08  0.999999928262536  1.0000
  O   O1        1.0  0.2603677936501281  0.2603670654122332  0.7396327093267712  1.0000
  O   O2        1.0  0.7396326120132575  0.7396325734861375  0.2603673495825371  1.0000
  O   O3        1.0  0.7396326214020371  0.26036753842765703  0.260367258332577  1.0000
  O   O4        1.0  0.2603672960173125  0.7396324883058352  0.7396326692774758  1.0000
  O   O5        1.0  0.26036749578708646  0.7396324331562206  0.26036739662409125  1.0000
  O   O6        1.0  0.7396327356001756  0.2603676148609071  0.7396325004534156  1.0000
