data_image0
_chemical_formula_structural       Nb2PS6
_chemical_formula_sum              "Nb2 P1 S6"
_cell_length_a       6.176541799057465
_cell_length_b       6.176541784486312
_cell_length_c       6.176541355792649
_cell_angle_alpha    60.00000324594062
_cell_angle_beta     60.00000288351022
_cell_angle_gamma    60.0000041921219

_space_group_name_H-M_alt    "P 1"
_space_group_IT_number       1

loop_
  _space_group_symop_operation_xyz
  'x, y, z'

loop_
  _atom_site_type_symbol
  _atom_site_label
  _atom_site_symmetry_multiplicity
  _atom_site_fract_x
  _atom_site_fract_y
  _atom_site_fract_z
  _atom_site_occupancy
  Nb  Nb1       1.0  0.24999957249998647  0.2500000572826362  0.2499998514487711  1.0000
  Nb  Nb2       1.0  0.7499999854379492  0.749999822858028  0.7500012222764576  1.0000
  P   P1        1.0  0.9999999556991731  0.9999999702565378  0.9999998977856442  1.0000
  S   S1        1.0  0.24926948980366642  0.24926926487603285  0.7507306859948879  1.0000
  S   S2        1.0  0.7507305987496752  0.750730599401453  0.24926873313214254  1.0000
  S   S3        1.0  0.7507310275191272  0.2492697784091788  0.24926888745655532  1.0000
  S   S4        1.0  0.24926928347782298  0.7507305121912432  0.7507307383287413  1.0000
  S   S5        1.0  0.2492693792710838  0.750730688200019  0.24926939435288326  1.0000
  S   S6        1.0  0.7507307405516659  0.24926930100000472  0.750730534385727  1.0000
