data_image0
_chemical_formula_structural       Nb2RhO6
_chemical_formula_sum              "Nb2 Rh1 O6"
_cell_length_a       5.075264866793955
_cell_length_b       5.075264739617389
_cell_length_c       5.075264904793981
_cell_angle_alpha    59.99999939293838
_cell_angle_beta     59.999999335224985
_cell_angle_gamma    59.9999993633925

_space_group_name_H-M_alt    "P 1"
_space_group_IT_number       1

loop_
  _space_group_symop_operation_xyz
  'x, y, z'

loop_
  _atom_site_type_symbol
  _atom_site_label
  _atom_site_symmetry_multiplicity
  _atom_site_fract_x
  _atom_site_fract_y
  _atom_site_fract_z
  _atom_site_occupancy
  Nb  Nb1       1.0  0.25000013543573857  0.24999907781052794  0.2500004974316895  1.0000
  Nb  Nb2       1.0  0.7499997834617878  0.7500002281687553  0.750000184188098  1.0000
  Rh  Rh1       1.0  0.9999999983912237  4.826329057245173e-09  3.615641711917475e-10  1.0000
  O   O1        1.0  0.2646510631193951  0.26465097649777775  0.7353489143304736  1.0000
  O   O2        1.0  0.7353487461168071  0.735349347836931  0.26465083414952517  1.0000
  O   O3        1.0  0.7353490463778993  0.2646511013841461  0.2646509277516551  1.0000
  O   O4        1.0  0.264651041231389  0.7353492205373997  0.735348838405281  1.0000
  O   O5        1.0  0.26465102944646773  0.7353492003979796  0.2646509371526312  1.0000
  O   O6        1.0  0.7353491451747546  0.26465085366230384  0.7353488583484121  1.0000
