data_image0
_chemical_formula_structural       Nb2RhS6
_chemical_formula_sum              "Nb2 Rh1 S6"
_cell_length_a       6.07904983262787
_cell_length_b       6.079049665523251
_cell_length_c       6.079049823581685
_cell_angle_alpha    60.00000018739915
_cell_angle_beta     59.9999991306221
_cell_angle_gamma    59.99999992266778

_space_group_name_H-M_alt    "P 1"
_space_group_IT_number       1

loop_
  _space_group_symop_operation_xyz
  'x, y, z'

loop_
  _atom_site_type_symbol
  _atom_site_label
  _atom_site_symmetry_multiplicity
  _atom_site_fract_x
  _atom_site_fract_y
  _atom_site_fract_z
  _atom_site_occupancy
  Nb  Nb1       1.0  0.24999976403909718  0.2500004161508831  0.249999916433912  1.0000
  Nb  Nb2       1.0  0.7500002440877203  0.7499997031793527  0.7500001101079139  1.0000
  Rh  Rh1       1.0  0.9999999601110167  3.3634333853280687e-16  5.4489364127334876e-08  1.0000
  S   S1        1.0  0.2698746477337047  0.2698746996215507  0.7301252651312857  1.0000
  S   S2        1.0  0.7301253973490136  0.7301252746504315  0.2698745571976697  1.0000
  S   S3        1.0  0.7301253854716132  0.26987474869337363  0.26987464491923807  1.0000
  S   S4        1.0  0.2698746514568574  0.7301252215492154  0.7301253693858507  1.0000
  S   S5        1.0  0.26987463347372087  0.7301252426920884  0.26987473963272546  1.0000
  S   S6        1.0  0.730125302571879  0.269874705388823  0.7301253329046503  1.0000
