data_image0
_chemical_formula_structural       Nb2RuSe6
_chemical_formula_sum              "Nb2 Ru1 Se6"
_cell_length_a       6.4204301493330656
_cell_length_b       6.42043034889101
_cell_length_c       6.420430146981701
_cell_angle_alpha    60.00000115572455
_cell_angle_beta     59.99999997447599
_cell_angle_gamma    59.9999992757286

_space_group_name_H-M_alt    "P 1"
_space_group_IT_number       1

loop_
  _space_group_symop_operation_xyz
  'x, y, z'

loop_
  _atom_site_type_symbol
  _atom_site_label
  _atom_site_symmetry_multiplicity
  _atom_site_fract_x
  _atom_site_fract_y
  _atom_site_fract_z
  _atom_site_occupancy
  Nb  Nb1       1.0  0.24999988512062316  0.250000375136537  0.24999950345560717  1.0000
  Nb  Nb2       1.0  0.7499997783819846  0.7500002383875132  0.7500002832403542  1.0000
  Ru  Ru1       1.0  4.778295301693568e-09  0.9999999694788095  4.713706450780766e-08  1.0000
  Se  Se1       1.0  0.2683212897731228  0.2683209451451259  0.731679113682893  1.0000
  Se  Se2       1.0  0.7316790067538179  0.7316788214158766  0.2683208438410749  1.0000
  Se  Se3       1.0  0.7316788652211998  0.2683210917123175  0.26832120987070185  1.0000
  Se  Se4       1.0  0.2683211992832987  0.7316787072774547  0.7316790016453784  1.0000
  Se  Se5       1.0  0.2683211273075993  0.7316787294960971  0.26832114832963144  1.0000
  Se  Se6       1.0  0.7316788457643486  0.2683211171830367  0.7316788576589489  1.0000
