data_image0
_chemical_formula_structural       Nb2RuO6
_chemical_formula_sum              "Nb2 Ru1 O6"
_cell_length_a       5.042477397798662
_cell_length_b       5.042477320212047
_cell_length_c       5.042477408628574
_cell_angle_alpha    60.00000203414855
_cell_angle_beta     60.00000080587973
_cell_angle_gamma    60.00000048541094

_space_group_name_H-M_alt    "P 1"
_space_group_IT_number       1

loop_
  _space_group_symop_operation_xyz
  'x, y, z'

loop_
  _atom_site_type_symbol
  _atom_site_label
  _atom_site_symmetry_multiplicity
  _atom_site_fract_x
  _atom_site_fract_y
  _atom_site_fract_z
  _atom_site_occupancy
  Nb  Nb1       1.0  0.24999991872385788  0.25000008681541724  0.25000014377458485  1.0000
  Nb  Nb2       1.0  0.7500003223760979  0.7499997090960437  0.7499996802145266  1.0000
  Ru  Ru1       1.0  1.2676078652672551e-08  0.999999975711445  0.9999999899410204  1.0000
  O   O1        1.0  0.2645435001785751  0.26454376326447  0.7354563775133318  1.0000
  O   O2        1.0  0.7354564790537292  0.7354562755325443  0.2645437494733525  1.0000
  O   O3        1.0  0.7354563915116678  0.26454354355986687  0.26454366419876574  1.0000
  O   O4        1.0  0.2645434678773569  0.7354566555416026  0.735456262090486  1.0000
  O   O5        1.0  0.2645435788132194  0.7354562278122837  0.2645436711436604  1.0000
  O   O6        1.0  0.7354563631330583  0.2645437648364756  0.7354564321161418  1.0000
