data_image0
_chemical_formula_structural       Nb2RuS6
_chemical_formula_sum              "Nb2 Ru1 S6"
_cell_length_a       6.022744500294008
_cell_length_b       6.022744302219047
_cell_length_c       6.022744146289538
_cell_angle_alpha    60.00000096921638
_cell_angle_beta     60.00000375318291
_cell_angle_gamma    60.00000159987673

_space_group_name_H-M_alt    "P 1"
_space_group_IT_number       1

loop_
  _space_group_symop_operation_xyz
  'x, y, z'

loop_
  _atom_site_type_symbol
  _atom_site_label
  _atom_site_symmetry_multiplicity
  _atom_site_fract_x
  _atom_site_fract_y
  _atom_site_fract_z
  _atom_site_occupancy
  Nb  Nb1       1.0  0.24999980527662866  0.25000011604538686  0.2500001072020034  1.0000
  Nb  Nb2       1.0  0.7500001485487062  0.7499999617649219  0.749999776508743  1.0000
  Ru  Ru1       1.0  0.9999999864830237  0.9999999715305392  5.087992709820667e-08  1.0000
  S   S1        1.0  0.2713169288119868  0.2713169148879084  0.7286829830839674  1.0000
  S   S2        1.0  0.7286830600286517  0.7286830693798875  0.27131696807895644  1.0000
  S   S3        1.0  0.7286831284561668  0.27131689508221823  0.27131690931380986  1.0000
  S   S4        1.0  0.27131693279408625  0.7286830790179132  0.7286831551805651  1.0000
  S   S5        1.0  0.27131692194589585  0.728683034788061  0.27131690530648367  1.0000
  S   S6        1.0  0.7286830716197004  0.27131696981506326  0.7286831429108958  1.0000
