data_image0
_chemical_formula_structural       Nb2RhS6
_chemical_formula_sum              "Nb2 Rh1 S6"
_cell_length_a       6.079137394627063
_cell_length_b       6.079137163651634
_cell_length_c       6.079137586489558
_cell_angle_alpha    59.99999917824674
_cell_angle_beta     59.99999978400573
_cell_angle_gamma    60.00000106485454

_space_group_name_H-M_alt    "P 1"
_space_group_IT_number       1

loop_
  _space_group_symop_operation_xyz
  'x, y, z'

loop_
  _atom_site_type_symbol
  _atom_site_label
  _atom_site_symmetry_multiplicity
  _atom_site_fract_x
  _atom_site_fract_y
  _atom_site_fract_z
  _atom_site_occupancy
  Nb  Nb1       1.0  0.2500000068435882  0.24999981339268204  0.24999976964806278  1.0000
  Nb  Nb2       1.0  0.7499999585301403  0.7500000022706965  0.750000491667201  1.0000
  Rh  Rh1       1.0  0.9999999674987107  0.9999999778386395  0.9999999187632932  1.0000
  S   S1        1.0  0.2698700141231808  0.269869988655654  0.7301301947101199  1.0000
  S   S2        1.0  0.730129963065191  0.730130070782663  0.26986973647902474  1.0000
  S   S3        1.0  0.7301300713721022  0.2698701215929579  0.26986991213780664  1.0000
  S   S4        1.0  0.2698699352461342  0.7301300546961583  0.7301299903252021  1.0000
  S   S5        1.0  0.2698701114900761  0.730130044389415  0.26986991320573667  1.0000
  S   S6        1.0  0.7301299789377039  0.2698699203594663  0.730130112341542  1.0000
