data_image0
_chemical_formula_structural       Nb2RuSe6
_chemical_formula_sum              "Nb2 Ru1 Se6"
_cell_length_a       6.4195420991621575
_cell_length_b       6.419541886103075
_cell_length_c       6.419542109739661
_cell_angle_alpha    59.99999900383167
_cell_angle_beta     59.99999902129621
_cell_angle_gamma    59.99999790325279

_space_group_name_H-M_alt    "P 1"
_space_group_IT_number       1

loop_
  _space_group_symop_operation_xyz
  'x, y, z'

loop_
  _atom_site_type_symbol
  _atom_site_label
  _atom_site_symmetry_multiplicity
  _atom_site_fract_x
  _atom_site_fract_y
  _atom_site_fract_z
  _atom_site_occupancy
  Nb  Nb1       1.0  0.24999978369803746  0.24999982893389486  0.25000023820675704  1.0000
  Nb  Nb2       1.0  0.7499999900878156  0.7499999981023868  0.7500002111292656  1.0000
  Ru  Ru1       1.0  2.5400404317149807e-08  0.999999988552969  7.043004639853041e-09  1.0000
  Se  Se1       1.0  0.2683429868615794  0.2683429312575989  0.731657047212232  1.0000
  Se  Se2       1.0  0.7316571135818122  0.7316570274195318  0.26834283182876784  1.0000
  Se  Se3       1.0  0.7316571847844541  0.26834294255221125  0.2683429170162798  1.0000
  Se  Se4       1.0  0.2683428414714578  0.7316572278949895  0.7316568885601952  1.0000
  Se  Se5       1.0  0.2683430262568043  0.7316570480274395  0.26834283984128604  1.0000
  Se  Se6       1.0  0.7316570363571504  0.26834300794945337  0.7316570359461912  1.0000
