data_image0
_chemical_formula_structural       Nb2ReTe6
_chemical_formula_sum              "Nb2 Re1 Te6"
_cell_length_a       7.009671951781182
_cell_length_b       7.009671888794109
_cell_length_c       7.009672145193161
_cell_angle_alpha    59.99999992585746
_cell_angle_beta     59.99999934267604
_cell_angle_gamma    60.00000074402751

_space_group_name_H-M_alt    "P 1"
_space_group_IT_number       1

loop_
  _space_group_symop_operation_xyz
  'x, y, z'

loop_
  _atom_site_type_symbol
  _atom_site_label
  _atom_site_symmetry_multiplicity
  _atom_site_fract_x
  _atom_site_fract_y
  _atom_site_fract_z
  _atom_site_occupancy
  Nb  Nb1       1.0  0.2500000543675803  0.24999989766397132  0.2500000676138167  1.0000
  Nb  Nb2       1.0  0.7500000849431193  0.7499999620640051  0.7499999147941845  1.0000
  Re  Re1       1.0  1.8003188037753568e-08  3.494442748785052e-08  0.9999999250217843  1.0000
  Te  Te1       1.0  0.2609736670439184  0.260973712094181  0.7390263038744892  1.0000
  Te  Te2       1.0  0.739026275753121  0.7390263171142689  0.2609737291417125  1.0000
  Te  Te3       1.0  0.7390262391988341  0.26097372186818096  0.2609737576406622  1.0000
  Te  Te4       1.0  0.26097366083414314  0.7390263615041315  0.7390262625426387  1.0000
  Te  Te5       1.0  0.2609737395756916  0.7390262352517462  0.2609737739137326  1.0000
  Te  Te6       1.0  0.7390262649707059  0.2609737520233912  0.7390262663136491  1.0000
