data_image0
_chemical_formula_structural       Nb2RuS6
_chemical_formula_sum              "Nb2 Ru1 S6"
_cell_length_a       6.022796199978216
_cell_length_b       6.022795945397177
_cell_length_c       6.022796340932243
_cell_angle_alpha    59.99999426386408
_cell_angle_beta     59.9999965419714
_cell_angle_gamma    59.999996082549366

_space_group_name_H-M_alt    "P 1"
_space_group_IT_number       1

loop_
  _space_group_symop_operation_xyz
  'x, y, z'

loop_
  _atom_site_type_symbol
  _atom_site_label
  _atom_site_symmetry_multiplicity
  _atom_site_fract_x
  _atom_site_fract_y
  _atom_site_fract_z
  _atom_site_occupancy
  Nb  Nb1       1.0  0.24999978712098497  0.2500003506853784  0.2500002728718002  1.0000
  Nb  Nb2       1.0  0.7500001195182111  0.7499997668743219  0.7499996276548121  1.0000
  Ru  Ru1       1.0  0.9999999372933872  4.067031742827569e-09  6.074775228053681e-09  1.0000
  S   S1        1.0  0.27131586169139577  0.27131592472333704  0.7286840489977853  1.0000
  S   S2        1.0  0.7286841840175653  0.7286839711831559  0.27131613191214904  1.0000
  S   S3        1.0  0.7286840207247962  0.2713159104462556  0.27131592225234963  1.0000
  S   S4        1.0  0.271315972810556  0.728684107471179  0.728684034458068  1.0000
  S   S5        1.0  0.2713159076761113  0.7286839891313825  0.27131596793971685  1.0000
  S   S6        1.0  0.7286841869301429  0.2713159901492547  0.7286839990626054  1.0000
