data_image0
_chemical_formula_structural       Nb2RhSe6
_chemical_formula_sum              "Nb2 Rh1 Se6"
_cell_length_a       6.384231150049173
_cell_length_b       6.384231211804442
_cell_length_c       6.384231257844724
_cell_angle_alpha    59.99999844449028
_cell_angle_beta     59.99999895145474
_cell_angle_gamma    59.99999792291267

_space_group_name_H-M_alt    "P 1"
_space_group_IT_number       1

loop_
  _space_group_symop_operation_xyz
  'x, y, z'

loop_
  _atom_site_type_symbol
  _atom_site_label
  _atom_site_symmetry_multiplicity
  _atom_site_fract_x
  _atom_site_fract_y
  _atom_site_fract_z
  _atom_site_occupancy
  Nb  Nb1       1.0  0.2499996899770625  0.2499998184960472  0.2500005291619762  1.0000
  Nb  Nb2       1.0  0.7500000162570095  0.7500002573754047  0.7499993193195982  1.0000
  Rh  Rh1       1.0  8.400684588561554e-10  1.918390649436865e-08  0.9999999288999997  1.0000
  Se  Se1       1.0  0.2714058356919448  0.2714056836398361  0.7285942526289574  1.0000
  Se  Se2       1.0  0.7285942654041216  0.7285941409224386  0.27140603627570026  1.0000
  Se  Se3       1.0  0.7285942024694326  0.27140565886937357  0.2714058919936607  1.0000
  Se  Se4       1.0  0.27140586210191364  0.7285944054917248  0.7285941511688875  1.0000
  Se  Se5       1.0  0.27140562645487276  0.7285942944488761  0.2714058530884794  1.0000
  Se  Se6       1.0  0.728594492085258  0.27140572195245893  0.728594053929018  1.0000
