data_image0
_chemical_formula_structural       Nb2RhSe6
_chemical_formula_sum              "Nb2 Rh1 Se6"
_cell_length_a       6.384389995387569
_cell_length_b       6.384389919304063
_cell_length_c       6.384390022830176
_cell_angle_alpha    59.999998845130285
_cell_angle_beta     59.999998593177835
_cell_angle_gamma    59.99999925072736

_space_group_name_H-M_alt    "P 1"
_space_group_IT_number       1

loop_
  _space_group_symop_operation_xyz
  'x, y, z'

loop_
  _atom_site_type_symbol
  _atom_site_label
  _atom_site_symmetry_multiplicity
  _atom_site_fract_x
  _atom_site_fract_y
  _atom_site_fract_z
  _atom_site_occupancy
  Nb  Nb1       1.0  0.250000103900618  0.25000018384015427  0.2499999635588325  1.0000
  Nb  Nb2       1.0  0.7499997450835476  0.7499997880200017  0.749999941738314  1.0000
  Rh  Rh1       1.0  0.9999999827725612  0.9999999865715998  4.9786967402909175e-08  1.0000
  Se  Se1       1.0  0.2713970102604353  0.271396949411348  0.7286029532056109  1.0000
  Se  Se2       1.0  0.7286030084435519  0.7286029744902364  0.27139707447038997  1.0000
  Se  Se3       1.0  0.7286030612902766  0.27139701649155723  0.2713969543741943  1.0000
  Se  Se4       1.0  0.27139716905795164  0.7286030321023138  0.7286030053780421  1.0000
  Se  Se5       1.0  0.2713970110933901  0.7286029103490105  0.27139697369014104  1.0000
  Se  Se6       1.0  0.7286029123173076  0.27139714208154553  0.7286031015871532  1.0000
