data_image0
_chemical_formula_structural       Nb2ReS6
_chemical_formula_sum              "Nb2 Re1 S6"
_cell_length_a       6.0621861989316415
_cell_length_b       6.062185510383285
_cell_length_c       6.062185601595695
_cell_angle_alpha    59.99999654752211
_cell_angle_beta     59.99999931999971
_cell_angle_gamma    59.99999518915445

_space_group_name_H-M_alt    "P 1"
_space_group_IT_number       1

loop_
  _space_group_symop_operation_xyz
  'x, y, z'

loop_
  _atom_site_type_symbol
  _atom_site_label
  _atom_site_symmetry_multiplicity
  _atom_site_fract_x
  _atom_site_fract_y
  _atom_site_fract_z
  _atom_site_occupancy
  Nb  Nb1       1.0  0.2499997944467703  0.25000031175711246  0.25000012509074065  1.0000
  Nb  Nb2       1.0  0.7500000911224813  0.7499997776379312  0.7499996896351595  1.0000
  Re  Re1       1.0  3.3400971086455796e-08  0.9999999797969724  3.6289849865283745e-08  1.0000
  S   S1        1.0  0.27146683235454105  0.271466985490239  0.7285330436786542  1.0000
  S   S2        1.0  0.7285332904085079  0.7285329180369541  0.2714669845719313  1.0000
  S   S3        1.0  0.7285330540669885  0.271466868924334  0.27146692340611034  1.0000
  S   S4        1.0  0.27146702057525135  0.7285331275367811  0.7285330956344789  1.0000
  S   S5        1.0  0.2714667598492789  0.7285330612913367  0.27146703546801015  1.0000
  S   S6        1.0  0.7285331105215415  0.2714669594134119  0.7285331131761597  1.0000
