data_image0
_chemical_formula_structural       Nb2RhO6
_chemical_formula_sum              "Nb2 Rh1 O6"
_cell_length_a       5.075487110643118
_cell_length_b       5.075487016295744
_cell_length_c       5.075487085900993
_cell_angle_alpha    59.99999713435817
_cell_angle_beta     59.99999773503568
_cell_angle_gamma    59.99999878983856

_space_group_name_H-M_alt    "P 1"
_space_group_IT_number       1

loop_
  _space_group_symop_operation_xyz
  'x, y, z'

loop_
  _atom_site_type_symbol
  _atom_site_label
  _atom_site_symmetry_multiplicity
  _atom_site_fract_x
  _atom_site_fract_y
  _atom_site_fract_z
  _atom_site_occupancy
  Nb  Nb1       1.0  0.2500000353062325  0.2499996244599322  0.24999955749661434  1.0000
  Nb  Nb2       1.0  0.7499994369852079  0.7500001498879008  0.7500006502569458  1.0000
  Rh  Rh1       1.0  3.883759509045865e-08  0.9999999517388222  2.835484252829062e-08  1.0000
  O   O1        1.0  0.2646372766570042  0.2646367915702114  0.7353631303999891  1.0000
  O   O2        1.0  0.7353628224648237  0.7353632385618688  0.26463671091589885  1.0000
  O   O3        1.0  0.7353633092869667  0.2646370178664342  0.2646369858035283  1.0000
  O   O4        1.0  0.2646370258214463  0.7353629253955233  0.7353630725517549  1.0000
  O   O5        1.0  0.26463720742545455  0.7353630907996979  0.26463687816253456  1.0000
  O   O6        1.0  0.7353628355966417  0.2646372168341515  0.7353630002213996  1.0000
