data_image0
_chemical_formula_structural       Nb2ReO6
_chemical_formula_sum              "Nb2 Re1 O6"
_cell_length_a       5.059607367395747
_cell_length_b       5.059607348671677
_cell_length_c       5.059607380984923
_cell_angle_alpha    60.00000006069381
_cell_angle_beta     59.99999968724135
_cell_angle_gamma    59.999999741911786

_space_group_name_H-M_alt    "P 1"
_space_group_IT_number       1

loop_
  _space_group_symop_operation_xyz
  'x, y, z'

loop_
  _atom_site_type_symbol
  _atom_site_label
  _atom_site_symmetry_multiplicity
  _atom_site_fract_x
  _atom_site_fract_y
  _atom_site_fract_z
  _atom_site_occupancy
  Nb  Nb1       1.0  0.25000006084619664  0.2500000365158709  0.249999880160644  1.0000
  Nb  Nb2       1.0  0.7499995728053118  0.7499998505399644  0.7500003614358972  1.0000
  Re  Re1       1.0  4.861826483970548e-08  0.9999999636905161  0.9999999958220472  1.0000
  O   O1        1.0  0.2653036105176112  0.26530364588365357  0.7346963420544671  1.0000
  O   O2        1.0  0.7346964663857767  0.7346962944260899  0.2653035287500275  1.0000
  O   O3        1.0  0.734696453570843  0.26530359561713324  0.26530360173496126  1.0000
  O   O4        1.0  0.26530368538677296  0.734696521398765  0.7346963414038225  1.0000
  O   O5        1.0  0.2653037334441977  0.7346964009434976  0.2653035114832217  1.0000
  O   O6        1.0  0.734696369136753  0.2653037088105039  0.7346964554512809  1.0000
