data_image0
_chemical_formula_structural       Nb2RuO6
_chemical_formula_sum              "Nb2 Ru1 O6"
_cell_length_a       5.042367995335192
_cell_length_b       5.0423679938666375
_cell_length_c       5.0423680614124935
_cell_angle_alpha    59.999999977202286
_cell_angle_beta     60.00000007177477
_cell_angle_gamma    59.99999972545954

_space_group_name_H-M_alt    "P 1"
_space_group_IT_number       1

loop_
  _space_group_symop_operation_xyz
  'x, y, z'

loop_
  _atom_site_type_symbol
  _atom_site_label
  _atom_site_symmetry_multiplicity
  _atom_site_fract_x
  _atom_site_fract_y
  _atom_site_fract_z
  _atom_site_occupancy
  Nb  Nb1       1.0  0.250000072232612  0.24999995323857852  0.250000119764014  1.0000
  Nb  Nb2       1.0  0.7500000431143162  0.7500002361964979  0.749999603389014  1.0000
  Ru  Ru1       1.0  0.9999999969242008  0.9999999611374695  0.9999999892380419  1.0000
  O   O1        1.0  0.2645432577680848  0.2645434089535592  0.7354566820919423  1.0000
  O   O2        1.0  0.7354565964518257  0.7354566638939275  0.2645434976497365  1.0000
  O   O3        1.0  0.7354567511730327  0.26454316637637043  0.26454350402803156  1.0000
  O   O4        1.0  0.2645432958471571  0.7354568433195033  0.7354564978471896  1.0000
  O   O5        1.0  0.26454341467249354  0.735456472780694  0.2645432986391862  1.0000
  O   O6        1.0  0.7354565586551611  0.264543318313446  0.735456809719265  1.0000
