data_image0
_chemical_formula_structural       Nb2SeO6
_chemical_formula_sum              "Nb2 Se1 O6"
_cell_length_a       5.134441365139816
_cell_length_b       5.134441382346133
_cell_length_c       5.13444129262992
_cell_angle_alpha    59.999998825325925
_cell_angle_beta     60.00000028990612
_cell_angle_gamma    59.99999939065464

_space_group_name_H-M_alt    "P 1"
_space_group_IT_number       1

loop_
  _space_group_symop_operation_xyz
  'x, y, z'

loop_
  _atom_site_type_symbol
  _atom_site_label
  _atom_site_symmetry_multiplicity
  _atom_site_fract_x
  _atom_site_fract_y
  _atom_site_fract_z
  _atom_site_occupancy
  Nb  Nb1       1.0  0.25000016916505896  0.2499998960571957  0.24999994108861656  1.0000
  Nb  Nb2       1.0  0.7500001991849645  0.7499998169805807  0.7500000668793525  1.0000
  Se  Se1       1.0  0.9999999492529329  0.9999999093566326  6.095706057488018e-08  1.0000
  O   O1        1.0  0.24859284679397067  0.2485929296495174  0.7514070842686001  1.0000
  O   O2        1.0  0.7514070925244355  0.7514072676146729  0.2485927714535436  1.0000
  O   O3        1.0  0.7514070597421203  0.2485928216479802  0.24859291076904033  1.0000
  O   O4        1.0  0.24859277008416697  0.7514072992849519  0.7514071157700563  1.0000
  O   O5        1.0  0.24859277801130947  0.7514072039830683  0.24859281942284991  1.0000
  O   O6        1.0  0.7514071329597343  0.24859282869184693  0.751407257416036  1.0000
