data_image0
_chemical_formula_structural       Nb2SbS6
_chemical_formula_sum              "Nb2 Sb1 S6"
_cell_length_a       6.509735338508144
_cell_length_b       6.509735611613397
_cell_length_c       6.5097353764159145
_cell_angle_alpha    60.00000039736642
_cell_angle_beta     60.00000147062662
_cell_angle_gamma    60.00000015809353

_space_group_name_H-M_alt    "P 1"
_space_group_IT_number       1

loop_
  _space_group_symop_operation_xyz
  'x, y, z'

loop_
  _atom_site_type_symbol
  _atom_site_label
  _atom_site_symmetry_multiplicity
  _atom_site_fract_x
  _atom_site_fract_y
  _atom_site_fract_z
  _atom_site_occupancy
  Nb  Nb1       1.0  0.2499998842739862  0.25000017713892125  0.2499998483111295  1.0000
  Nb  Nb2       1.0  0.7500001076820785  0.7499997468708958  0.7500002182454824  1.0000
  Sb  Sb1       1.0  1.514037890725035e-08  0.99999998118595  3.5632372409319974e-08  1.0000
  S   S1        1.0  0.26491498358242016  0.26491521383345834  0.7350848851414165  1.0000
  S   S2        1.0  0.7350849332804231  0.7350848343490879  0.2649149571745419  1.0000
  S   S3        1.0  0.7350849211670272  0.26491514824813406  0.2649151287862079  1.0000
  S   S4        1.0  0.26491511201696544  0.7350847531848227  0.7350849653127287  1.0000
  S   S5        1.0  0.26491516127217396  0.7350848318855283  0.26491513051912174  1.0000
  S   S6        1.0  0.7350848812602927  0.264915323537094  0.7350848257661006  1.0000
