data_image0
_chemical_formula_structural       Nb2SbTe6
_chemical_formula_sum              "Nb2 Sb1 Te6"
_cell_length_a       7.241677430081983
_cell_length_b       7.241677365378261
_cell_length_c       7.241677331318758
_cell_angle_alpha    60.00000059606989
_cell_angle_beta     59.999999700232244
_cell_angle_gamma    60.00000047971203

_space_group_name_H-M_alt    "P 1"
_space_group_IT_number       1

loop_
  _space_group_symop_operation_xyz
  'x, y, z'

loop_
  _atom_site_type_symbol
  _atom_site_label
  _atom_site_symmetry_multiplicity
  _atom_site_fract_x
  _atom_site_fract_y
  _atom_site_fract_z
  _atom_site_occupancy
  Nb  Nb1       1.0  0.24999999711015666  0.2500000095117781  0.24999995665594338  1.0000
  Nb  Nb2       1.0  0.7499999847921289  0.7499999811804824  0.7499999148660685  1.0000
  Sb  Sb1       1.0  0.9999999943957082  0.9999999594101264  0.999999991336485  1.0000
  Te  Te1       1.0  0.2709856205264575  0.2709855987149738  0.7290144282265069  1.0000
  Te  Te2       1.0  0.7290143414345946  0.7290144900694824  0.27098565278122344  1.0000
  Te  Te3       1.0  0.7290144249703583  0.27098560396537574  0.27098563307352647  1.0000
  Te  Te4       1.0  0.27098558386192645  0.7290143681231945  0.72901445799041  1.0000
  Te  Te5       1.0  0.2709856112334931  0.7290143442414411  0.27098560350235396  1.0000
  Te  Te6       1.0  0.7290144409244311  0.2709856413770864  0.7290143693755731  1.0000
