data_image0
_chemical_formula_structural       Nb2SO6
_chemical_formula_sum              "Nb2 S1 O6"
_cell_length_a       4.916700434594621
_cell_length_b       4.916700397980775
_cell_length_c       4.916700428762694
_cell_angle_alpha    60.00000013678956
_cell_angle_beta     60.00000019126136
_cell_angle_gamma    59.99999977565152

_space_group_name_H-M_alt    "P 1"
_space_group_IT_number       1

loop_
  _space_group_symop_operation_xyz
  'x, y, z'

loop_
  _atom_site_type_symbol
  _atom_site_label
  _atom_site_symmetry_multiplicity
  _atom_site_fract_x
  _atom_site_fract_y
  _atom_site_fract_z
  _atom_site_occupancy
  Nb  Nb1       1.0  0.250000009093463  0.24999992244663763  0.24999999766588546  1.0000
  Nb  Nb2       1.0  0.7499999449352753  0.7500000214208355  0.7500001227214924  1.0000
  S   S1        1.0  6.060988151061387e-08  6.476572483511001e-08  0.9999998803634356  1.0000
  O   O1        1.0  0.24337226033340395  0.24337228057155996  0.7566277429146073  1.0000
  O   O2        1.0  0.7566276732464557  0.756627668277892  0.24337236283349256  1.0000
  O   O3        1.0  0.7566277326098938  0.24337230843829  0.24337227566109057  1.0000
  O   O4        1.0  0.2433723466966799  0.7566276752850133  0.7566276360586256  1.0000
  O   O5        1.0  0.24337229258100104  0.7566277084528152  0.2433723248868941  1.0000
  O   O6        1.0  0.7566276780990241  0.24337234750918182  0.756627661975511  1.0000
