data_image0
_chemical_formula_structural       Nb2SnTe6
_chemical_formula_sum              "Nb2 Sn1 Te6"
_cell_length_a       7.1801261000345615
_cell_length_b       7.180126136229507
_cell_length_c       7.180126272174572
_cell_angle_alpha    59.99999892842517
_cell_angle_beta     59.99999924107015
_cell_angle_gamma    60.00000026445895

_space_group_name_H-M_alt    "P 1"
_space_group_IT_number       1

loop_
  _space_group_symop_operation_xyz
  'x, y, z'

loop_
  _atom_site_type_symbol
  _atom_site_label
  _atom_site_symmetry_multiplicity
  _atom_site_fract_x
  _atom_site_fract_y
  _atom_site_fract_z
  _atom_site_occupancy
  Nb  Nb1       1.0  0.24999997517548528  0.24999996919968703  0.2499999495875364  1.0000
  Nb  Nb2       1.0  0.7499999338739316  0.7500000321182874  0.7500001151924846  1.0000
  Sn  Sn1       1.0  0.9999999814654096  0.9999999880597998  3.055746016480553e-08  1.0000
  Te  Te1       1.0  0.27003835697644774  0.2700383241916456  0.7299616596668101  1.0000
  Te  Te2       1.0  0.7299616935769326  0.7299617061239589  0.2700382335129576  1.0000
  Te  Te3       1.0  0.7299616943224909  0.2700383553653006  0.2700383039045075  1.0000
  Te  Te4       1.0  0.27003833951633216  0.7299616237780182  0.7299616705716099  1.0000
  Te  Te5       1.0  0.2700383531831023  0.7299617029172724  0.2700383477775453  1.0000
  Te  Te6       1.0  0.72996166361503  0.2700382984007029  0.7299616923755141  1.0000
