data_image0
_chemical_formula_structural       Nb2SbSe6
_chemical_formula_sum              "Nb2 Sb1 Se6"
_cell_length_a       6.643567207151885
_cell_length_b       6.643567215790675
_cell_length_c       6.643567153181438
_cell_angle_alpha    59.999997720962874
_cell_angle_beta     59.99999884127277
_cell_angle_gamma    59.999998113853515

_space_group_name_H-M_alt    "P 1"
_space_group_IT_number       1

loop_
  _space_group_symop_operation_xyz
  'x, y, z'

loop_
  _atom_site_type_symbol
  _atom_site_label
  _atom_site_symmetry_multiplicity
  _atom_site_fract_x
  _atom_site_fract_y
  _atom_site_fract_z
  _atom_site_occupancy
  Nb  Nb1       1.0  0.24999939086225736  0.2499999580974215  0.25000002492436474  1.0000
  Nb  Nb2       1.0  0.7500006895936392  0.7500001028868138  0.7500006993932721  1.0000
  Sb  Sb1       1.0  0.9999999900625411  3.5026592567925105e-08  5.067448195905404e-08  1.0000
  Se  Se1       1.0  0.27800293103414153  0.2780031252975272  0.7219970080694041  1.0000
  Se  Se2       1.0  0.7219971481958656  0.7219967568667593  0.27800250877542765  1.0000
  Se  Se3       1.0  0.7219971749607563  0.2780032586147461  0.27800279167375674  1.0000
  Se  Se4       1.0  0.2780026718884001  0.7219969609109408  0.7219969526508718  1.0000
  Se  Se5       1.0  0.27800292702406215  0.7219972001506276  0.278003077945259  1.0000
  Se  Se6       1.0  0.7219970773122035  0.2780025990559277  0.721996891118746  1.0000
