data_image0
_chemical_formula_structural       Nb2SbO6
_chemical_formula_sum              "Nb2 Sb1 O6"
_cell_length_a       5.090753448972108
_cell_length_b       5.090753567794873
_cell_length_c       5.0907532060990865
_cell_angle_alpha    60.00000208210184
_cell_angle_beta     60.00000126040466
_cell_angle_gamma    60.000001534659674

_space_group_name_H-M_alt    "P 1"
_space_group_IT_number       1

loop_
  _space_group_symop_operation_xyz
  'x, y, z'

loop_
  _atom_site_type_symbol
  _atom_site_label
  _atom_site_symmetry_multiplicity
  _atom_site_fract_x
  _atom_site_fract_y
  _atom_site_fract_z
  _atom_site_occupancy
  Nb  Nb1       1.0  0.25000070487157355  0.2500000261873829  0.2499991672143713  1.0000
  Nb  Nb2       1.0  0.7499997862974266  0.7499994626716421  0.750000305573516  1.0000
  Sb  Sb1       1.0  0.9999999551149235  9.382706932178985e-08  2.6601995977826753e-08  1.0000
  O   O1        1.0  0.26620308273184384  0.26620307959691863  0.7337970657489328  1.0000
  O   O2        1.0  0.7337967066256793  0.7337970925156364  0.2662031804484689  1.0000
  O   O3        1.0  0.733796784693082  0.26620329360177675  0.2662029627204374  1.0000
  O   O4        1.0  0.26620316951418943  0.7337967582196637  0.733797196374234  1.0000
  O   O5        1.0  0.26620298951384813  0.7337970237202693  0.2662031132867891  1.0000
  O   O6        1.0  0.733796842389701  0.26620317726215337  0.7337970127357936  1.0000
