data_image0
_chemical_formula_structural       Nb2SbSe6
_chemical_formula_sum              "Nb2 Sb1 Se6"
_cell_length_a       6.644614607238587
_cell_length_b       6.644614480492959
_cell_length_c       6.644614611406339
_cell_angle_alpha    60.00000245126982
_cell_angle_beta     60.00000055053437
_cell_angle_gamma    60.0000027560343

_space_group_name_H-M_alt    "P 1"
_space_group_IT_number       1

loop_
  _space_group_symop_operation_xyz
  'x, y, z'

loop_
  _atom_site_type_symbol
  _atom_site_label
  _atom_site_symmetry_multiplicity
  _atom_site_fract_x
  _atom_site_fract_y
  _atom_site_fract_z
  _atom_site_occupancy
  Nb  Nb1       1.0  0.2499998932447761  0.2500001092666269  0.2500001357612078  1.0000
  Nb  Nb2       1.0  0.7500000634417122  0.7500000421016603  0.7499999353801683  1.0000
  Sb  Sb1       1.0  0.9999999652259323  3.133464255444242e-08  1.3759538593318213e-08  1.0000
  Se  Se1       1.0  0.2778989132953612  0.2778988942557314  0.7221010329956586  1.0000
  Se  Se2       1.0  0.7221011407109774  0.7221010746343357  0.27789884444332436  1.0000
  Se  Se3       1.0  0.7221011270994872  0.27789887179378764  0.27789889857908506  1.0000
  Se  Se4       1.0  0.27789882425320345  0.7221011339605665  0.7221011186080296  1.0000
  Se  Se5       1.0  0.27789889901236803  0.722101027133282  0.2778989043226222  1.0000
  Se  Se6       1.0  0.722101164878703  0.2778988182614307  0.7221011036655997  1.0000
