data_image0
_chemical_formula_structural       Nb2SnSe6
_chemical_formula_sum              "Nb2 Sn1 Se6"
_cell_length_a       6.61231407938311
_cell_length_b       6.612314357078285
_cell_length_c       6.6123139942536575
_cell_angle_alpha    60.00000051419171
_cell_angle_beta     60.000001451377095
_cell_angle_gamma    60.00000224627783

_space_group_name_H-M_alt    "P 1"
_space_group_IT_number       1

loop_
  _space_group_symop_operation_xyz
  'x, y, z'

loop_
  _atom_site_type_symbol
  _atom_site_label
  _atom_site_symmetry_multiplicity
  _atom_site_fract_x
  _atom_site_fract_y
  _atom_site_fract_z
  _atom_site_occupancy
  Nb  Nb1       1.0  0.24999990609664788  0.2500001874143443  0.24999984427087432  1.0000
  Nb  Nb2       1.0  0.7499999535034714  0.7499998880356274  0.7500001969345538  1.0000
  Sn  Sn1       1.0  0.9999999606464663  1.8522181083616823e-08  0.9999999983170368  1.0000
  Se  Se1       1.0  0.27313101892011254  0.2731309229141136  0.7268689719148459  1.0000
  Se  Se2       1.0  0.7268690268126042  0.7268689765751415  0.2731308509661324  1.0000
  Se  Se3       1.0  0.7268692026880125  0.2731309788590717  0.27313096651379365  1.0000
  Se  Se4       1.0  0.2731310408867378  0.7268689243346154  0.7268691140161341  1.0000
  Se  Se5       1.0  0.2731309383917282  0.7268690605875079  0.273130975715955  1.0000
  Se  Se6       1.0  0.7268689673170435  0.27313103894129925  0.7268690742532956  1.0000
