data_image0
_chemical_formula_structural       Nb2SnO6
_chemical_formula_sum              "Nb2 Sn1 O6"
_cell_length_a       5.184514430065876
_cell_length_b       5.184514331283559
_cell_length_c       5.18451436269373
_cell_angle_alpha    59.99999946155888
_cell_angle_beta     60.00000054894447
_cell_angle_gamma    60.0000006258433

_space_group_name_H-M_alt    "P 1"
_space_group_IT_number       1

loop_
  _space_group_symop_operation_xyz
  'x, y, z'

loop_
  _atom_site_type_symbol
  _atom_site_label
  _atom_site_symmetry_multiplicity
  _atom_site_fract_x
  _atom_site_fract_y
  _atom_site_fract_z
  _atom_site_occupancy
  Nb  Nb1       1.0  0.25000008059865125  0.249999842499912  0.2500000146313992  1.0000
  Nb  Nb2       1.0  0.7500000111038235  0.7499999456292418  0.7500001083388278  1.0000
  Sn  Sn1       1.0  4.072292162724188e-09  0.9999999811014911  5.484287421441309e-09  1.0000
  O   O1        1.0  0.26589412075157004  0.2658941716105752  0.734105835499984  1.0000
  O   O2        1.0  0.7341057886746113  0.7341059094454645  0.2658941279886137  1.0000
  O   O3        1.0  0.7341058442721891  0.26589423997101946  0.2658940883829  1.0000
  O   O4        1.0  0.26589419379179274  0.7341058694327851  0.7341058139723036  1.0000
  O   O5        1.0  0.2658941291189803  0.7341059281331654  0.2658941214779876  1.0000
  O   O6        1.0  0.7341058269666997  0.2658941198504839  0.734105877651117  1.0000
