data_image0
_chemical_formula_structural       Nb2SbTe6
_chemical_formula_sum              "Nb2 Sb1 Te6"
_cell_length_a       7.2416290845943285
_cell_length_b       7.241629098966331
_cell_length_c       7.241629157680643
_cell_angle_alpha    59.99999854341038
_cell_angle_beta     59.999998921321634
_cell_angle_gamma    59.999999392365176

_space_group_name_H-M_alt    "P 1"
_space_group_IT_number       1

loop_
  _space_group_symop_operation_xyz
  'x, y, z'

loop_
  _atom_site_type_symbol
  _atom_site_label
  _atom_site_symmetry_multiplicity
  _atom_site_fract_x
  _atom_site_fract_y
  _atom_site_fract_z
  _atom_site_occupancy
  Nb  Nb1       1.0  0.24999992888541886  0.24999978412850687  0.25000011790615995  1.0000
  Nb  Nb2       1.0  0.7500000031777841  0.7500000948469159  0.7500001490270531  1.0000
  Sb  Sb1       1.0  3.978315759731599e-08  0.9999999763224158  0.9999999795190706  1.0000
  Te  Te1       1.0  0.2709856759155282  0.2709855635745651  0.7290143766160868  1.0000
  Te  Te2       1.0  0.7290143020159388  0.7290144743789273  0.2709855338074862  1.0000
  Te  Te3       1.0  0.729014468494871  0.27098565196758323  0.2709855758858939  1.0000
  Te  Te4       1.0  0.27098555706249566  0.7290144248847977  0.72901431336976  1.0000
  Te  Te5       1.0  0.2709856053714182  0.729014472047553  0.2709856124430779  1.0000
  Te  Te6       1.0  0.7290144189949104  0.2709855557584026  0.7290143392157361  1.0000
