data_image0
_chemical_formula_structural       Nb2SiSe6
_chemical_formula_sum              "Nb2 Si1 Se6"
_cell_length_a       6.444485186979296
_cell_length_b       6.444485164360971
_cell_length_c       6.444485195705707
_cell_angle_alpha    60.00000012864978
_cell_angle_beta     59.99999990733656
_cell_angle_gamma    59.99999900037222

_space_group_name_H-M_alt    "P 1"
_space_group_IT_number       1

loop_
  _space_group_symop_operation_xyz
  'x, y, z'

loop_
  _atom_site_type_symbol
  _atom_site_label
  _atom_site_symmetry_multiplicity
  _atom_site_fract_x
  _atom_site_fract_y
  _atom_site_fract_z
  _atom_site_occupancy
  Nb  Nb1       1.0  0.25000016924238905  0.249999835066188  0.25000000329064026  1.0000
  Nb  Nb2       1.0  0.7499999359270285  0.7500000810361861  0.7500000606114673  1.0000
  Si  Si1       1.0  1.3483260563479697e-08  1.3303179062432976e-08  0.9999999803999229  1.0000
  Se  Se1       1.0  0.25421047655361984  0.25421049442664817  0.7457894877096602  1.0000
  Se  Se2       1.0  0.7457894539977891  0.7457895585084282  0.2542104600859546  1.0000
  Se  Se3       1.0  0.7457895163196814  0.25421046715093903  0.2542104881157208  1.0000
  Se  Se4       1.0  0.2542104739034291  0.7457895572773243  0.7457895154763086  1.0000
  Se  Se5       1.0  0.25421047997464535  0.7457895612762379  0.25421044961711703  1.0000
  Se  Se6       1.0  0.745789488874618  0.25421042514294206  0.7457895603906628  1.0000
