data_image0
_chemical_formula_structural       Nb2SbO6
_chemical_formula_sum              "Nb2 Sb1 O6"
_cell_length_a       5.090858693146741
_cell_length_b       5.090858885090055
_cell_length_c       5.0908587957081295
_cell_angle_alpha    59.999999273483716
_cell_angle_beta     59.9999992719595
_cell_angle_gamma    60.00000083758102

_space_group_name_H-M_alt    "P 1"
_space_group_IT_number       1

loop_
  _space_group_symop_operation_xyz
  'x, y, z'

loop_
  _atom_site_type_symbol
  _atom_site_label
  _atom_site_symmetry_multiplicity
  _atom_site_fract_x
  _atom_site_fract_y
  _atom_site_fract_z
  _atom_site_occupancy
  Nb  Nb1       1.0  0.24999954949728206  0.25000061574832  0.24999969913875777  1.0000
  Nb  Nb2       1.0  0.7499999745709434  0.7499995497321419  0.7500006045718184  1.0000
  Sb  Sb1       1.0  9.347913576651855e-09  0.9999999855653644  1.6293496995972456e-08  1.0000
  O   O1        1.0  0.2661989094058138  0.26619871866688105  0.7338011761955016  1.0000
  O   O2        1.0  0.7338012846535457  0.7338010835419313  0.26619865790221103  1.0000
  O   O3        1.0  0.733801398683022  0.26619883644592457  0.26619870298813453  1.0000
  O   O4        1.0  0.2661988083406684  0.7338011582246917  0.7338011992910544  1.0000
  O   O5        1.0  0.2661988121319638  0.7338011000898258  0.26619879128885937  1.0000
  O   O6        1.0  0.7338012885386384  0.26619892104428844  0.7338011234348527  1.0000
