data_image0
_chemical_formula_structural       Nb2SiS6
_chemical_formula_sum              "Nb2 Si1 S6"
_cell_length_a       6.230090345779827
_cell_length_b       6.230090629667181
_cell_length_c       6.230090237624651
_cell_angle_alpha    60.00000103432765
_cell_angle_beta     60.000000176709015
_cell_angle_gamma    59.99999937335354

_space_group_name_H-M_alt    "P 1"
_space_group_IT_number       1

loop_
  _space_group_symop_operation_xyz
  'x, y, z'

loop_
  _atom_site_type_symbol
  _atom_site_label
  _atom_site_symmetry_multiplicity
  _atom_site_fract_x
  _atom_site_fract_y
  _atom_site_fract_z
  _atom_site_occupancy
  Nb  Nb1       1.0  0.250000116154984  0.24999991325369988  0.2499999249723585  1.0000
  Nb  Nb2       1.0  0.7499997517645886  0.7500003177221871  0.7499999752951804  1.0000
  Si  Si1       1.0  3.594420981498708e-09  5.89756177541371e-09  9.70002725196096e-09  1.0000
  S   S1        1.0  0.250620886641456  0.2506204809828111  0.7493793058069342  1.0000
  S   S2        1.0  0.7493793313765007  0.7493793391295817  0.25062064410452006  1.0000
  S   S3        1.0  0.7493793088817509  0.2506206122495329  0.2506207375700893  1.0000
  S   S4        1.0  0.250620726636389  0.7493793828238695  0.7493792578437107  1.0000
  S   S5        1.0  0.2506207079650148  0.7493793447472339  0.2506206741458744  1.0000
  S   S6        1.0  0.7493791717915721  0.2506205893846977  0.7493794553012493  1.0000
