data_image0
_chemical_formula_structural       Nb2SbN6
_chemical_formula_sum              "Nb2 Sb1 N6"
_cell_length_a       5.008668459630127
_cell_length_b       5.00866887196433
_cell_length_c       5.008668721479681
_cell_angle_alpha    59.99999863870908
_cell_angle_beta     59.99999902164471
_cell_angle_gamma    59.99999860511968

_space_group_name_H-M_alt    "P 1"
_space_group_IT_number       1

loop_
  _space_group_symop_operation_xyz
  'x, y, z'

loop_
  _atom_site_type_symbol
  _atom_site_label
  _atom_site_symmetry_multiplicity
  _atom_site_fract_x
  _atom_site_fract_y
  _atom_site_fract_z
  _atom_site_occupancy
  Nb  Nb1       1.0  0.2500004646440495  0.24999940007774696  0.24999964918057802  1.0000
  Nb  Nb2       1.0  0.7500001512424715  0.7499999779301928  0.7499991033042228  1.0000
  Sb  Sb1       1.0  2.428866437209037e-08  0.9999999755474971  0.9999999920957657  1.0000
  N   N1        1.0  0.28059620614127145  0.2805963120715284  0.7194036493487399  1.0000
  N   N2        1.0  0.7194031976894366  0.7194041638537566  0.2805967434603092  1.0000
  N   N3        1.0  0.7194037108965411  0.2805956512645455  0.28059680530108344  1.0000
  N   N4        1.0  0.28059657269234556  0.7194033403938132  0.7194039157173715  1.0000
  N   N5        1.0  0.28059606529741465  0.7194043339000912  0.2805965260491326  1.0000
  N   N6        1.0  0.719403685869899  0.28059678757124723  0.7194036118997372  1.0000
