data_image0
_chemical_formula_structural       Nb2TaTe6
_chemical_formula_sum              "Nb2 Ta1 Te6"
_cell_length_a       7.084832105747535
_cell_length_b       7.084832036362302
_cell_length_c       7.0848320902474295
_cell_angle_alpha    60.00000021148829
_cell_angle_beta     59.99999936021177
_cell_angle_gamma    60.000000582001796

_space_group_name_H-M_alt    "P 1"
_space_group_IT_number       1

loop_
  _space_group_symop_operation_xyz
  'x, y, z'

loop_
  _atom_site_type_symbol
  _atom_site_label
  _atom_site_symmetry_multiplicity
  _atom_site_fract_x
  _atom_site_fract_y
  _atom_site_fract_z
  _atom_site_occupancy
  Nb  Nb1       1.0  0.25000006786249146  0.24999999735719367  0.24999992949824554  1.0000
  Nb  Nb2       1.0  0.7500001015838679  0.749999985156838  0.7499999855119835  1.0000
  Ta  Ta1       1.0  0.9999999896448473  1.728686132783467e-09  5.5126011364123675e-08  1.0000
  Te  Te1       1.0  0.2640417587456419  0.26404183974571127  0.7359582143370292  1.0000
  Te  Te2       1.0  0.7359582286212095  0.7359581756133494  0.2640417908165672  1.0000
  Te  Te3       1.0  0.7359581457968893  0.26404181246926767  0.26404180330169064  1.0000
  Te  Te4       1.0  0.2640417966270417  0.73595816658739  0.735958177547129  1.0000
  Te  Te5       1.0  0.26404181110658287  0.7359582164293071  0.26404184625456917  1.0000
  Te  Te6       1.0  0.7359581071327088  0.26404180584449627  0.7359581984742323  1.0000
