data_image0
_chemical_formula_structural       Nb2TiSe6
_chemical_formula_sum              "Nb2 Ti1 Se6"
_cell_length_a       6.379739505623451
_cell_length_b       6.379739340359857
_cell_length_c       6.379739451623769
_cell_angle_alpha    59.99999812474129
_cell_angle_beta     59.999997730757904
_cell_angle_gamma    59.99999884969502

_space_group_name_H-M_alt    "P 1"
_space_group_IT_number       1

loop_
  _space_group_symop_operation_xyz
  'x, y, z'

loop_
  _atom_site_type_symbol
  _atom_site_label
  _atom_site_symmetry_multiplicity
  _atom_site_fract_x
  _atom_site_fract_y
  _atom_site_fract_z
  _atom_site_occupancy
  Nb  Nb1       1.0  0.24999994432613748  0.2499999003895977  0.2500000710290897  1.0000
  Nb  Nb2       1.0  0.7499998987700484  0.750000079357827  0.7499996352830256  1.0000
  Ti  Ti1       1.0  1.8836523135669604e-11  0.9999999673643981  5.079254990030726e-08  1.0000
  Se  Se1       1.0  0.26743682577146305  0.26743678512448693  0.7325632523543703  1.0000
  Se  Se2       1.0  0.7325632119585839  0.7325631754255236  0.2674369007441047  1.0000
  Se  Se3       1.0  0.7325631428628244  0.26743681439576783  0.267436897177965  1.0000
  Se  Se4       1.0  0.26743692493993826  0.7325632459807898  0.7325631141652329  1.0000
  Se  Se5       1.0  0.2674368085280031  0.7325631043655446  0.2674368767337607  1.0000
  Se  Se6       1.0  0.7325632356544622  0.2674369291346347  0.732563189639556  1.0000
