data_image0
_chemical_formula_structural       Nb2TiTe6
_chemical_formula_sum              "Nb2 Ti1 Te6"
_cell_length_a       7.000713684081254
_cell_length_b       7.000713553256588
_cell_length_c       7.000713830158598
_cell_angle_alpha    60.00000005305548
_cell_angle_beta     59.99999972287665
_cell_angle_gamma    60.00000075253927

_space_group_name_H-M_alt    "P 1"
_space_group_IT_number       1

loop_
  _space_group_symop_operation_xyz
  'x, y, z'

loop_
  _atom_site_type_symbol
  _atom_site_label
  _atom_site_symmetry_multiplicity
  _atom_site_fract_x
  _atom_site_fract_y
  _atom_site_fract_z
  _atom_site_occupancy
  Nb  Nb1       1.0  0.24999993329333464  0.25000020000397066  0.24999991598071644  1.0000
  Nb  Nb2       1.0  0.7500000228443177  0.7499999212225253  0.7500000772729087  1.0000
  Ti  Ti1       1.0  0.9999999839061721  0.9999999790065137  3.8541617507031906e-08  1.0000
  Te  Te1       1.0  0.26202491449973947  0.2620249279066248  0.7379750765746003  1.0000
  Te  Te2       1.0  0.7379751539832708  0.7379750393676391  0.2620248974865393  1.0000
  Te  Te3       1.0  0.7379750729393677  0.26202496018005106  0.26202489467475465  1.0000
  Te  Te4       1.0  0.2620249553919598  0.7379749791028968  0.7379750791756657  1.0000
  Te  Te5       1.0  0.2620249227892673  0.7379750214848908  0.2620249639349803  1.0000
  Te  Te6       1.0  0.7379750436136331  0.26202496503340106  0.7379750615431803  1.0000
