data_image0
_chemical_formula_structural       Nb2TaSe6
_chemical_formula_sum              "Nb2 Ta1 Se6"
_cell_length_a       6.561739367337373
_cell_length_b       6.561739314125961
_cell_length_c       6.561739450812375
_cell_angle_alpha    59.99999906093714
_cell_angle_beta     59.999999996167695
_cell_angle_gamma    59.999999529722274

_space_group_name_H-M_alt    "P 1"
_space_group_IT_number       1

loop_
  _space_group_symop_operation_xyz
  'x, y, z'

loop_
  _atom_site_type_symbol
  _atom_site_label
  _atom_site_symmetry_multiplicity
  _atom_site_fract_x
  _atom_site_fract_y
  _atom_site_fract_z
  _atom_site_occupancy
  Nb  Nb1       1.0  0.2500000308332254  0.2499998910757374  0.2500001101645086  1.0000
  Nb  Nb2       1.0  0.7500000062840687  0.7500000110626767  0.7499999486539243  1.0000
  Ta  Ta1       1.0  0.9999999985421772  1.4931954215036896e-08  0.9999999856430035  1.0000
  Se  Se1       1.0  0.26523186930618614  0.265231755110501  0.7347681529509318  1.0000
  Se  Se2       1.0  0.7347681159945698  0.7347682496850982  0.26523183472759315  1.0000
  Se  Se3       1.0  0.7347681915843076  0.2652318352518512  0.2652318080441953  1.0000
  Se  Se4       1.0  0.26523177546017723  0.7347682348710475  0.7347681621947598  1.0000
  Se  Se5       1.0  0.2652318065708495  0.7347681884126608  0.2652318124598269  1.0000
  Se  Se6       1.0  0.7347682038817916  0.265231820115927  0.7347681882080119  1.0000
