data_image0
_chemical_formula_structural       Nb2TaSe6
_chemical_formula_sum              "Nb2 Ta1 Se6"
_cell_length_a       6.561791154120721
_cell_length_b       6.561791042642667
_cell_length_c       6.56179111134841
_cell_angle_alpha    59.999999333955294
_cell_angle_beta     59.99999991638557
_cell_angle_gamma    59.99999932805782

_space_group_name_H-M_alt    "P 1"
_space_group_IT_number       1

loop_
  _space_group_symop_operation_xyz
  'x, y, z'

loop_
  _atom_site_type_symbol
  _atom_site_label
  _atom_site_symmetry_multiplicity
  _atom_site_fract_x
  _atom_site_fract_y
  _atom_site_fract_z
  _atom_site_occupancy
  Nb  Nb1       1.0  0.2500001549706895  0.2500000724049171  0.24999986141847472  1.0000
  Nb  Nb2       1.0  0.7499998894456442  0.7500000958935804  0.7499999677006288  1.0000
  Ta  Ta1       1.0  0.9999999693556205  7.465918262876348e-09  2.445385794629593e-09  1.0000
  Se  Se1       1.0  0.2652294488360238  0.2652294281745242  0.7347705432849054  1.0000
  Se  Se2       1.0  0.7347705865896083  0.734770534811222  0.26522943108527874  1.0000
  Se  Se3       1.0  0.7347705725550309  0.26522936506540873  0.26522946926308993  1.0000
  Se  Se4       1.0  0.26522944458098763  0.7347705419259507  0.7347706230197241  1.0000
  Se  Se5       1.0  0.2652294300709149  0.734770558028457  0.2652294409031428  1.0000
  Se  Se6       1.0  0.7347705110579998  0.26522939749137087  0.7347706681669373  1.0000
