data_image0
_chemical_formula_structural       Nb2TeS6
_chemical_formula_sum              "Nb2 Te1 S6"
_cell_length_a       6.476862116156965
_cell_length_b       6.4768616593746735
_cell_length_c       6.476861595857693
_cell_angle_alpha    60.00000148970741
_cell_angle_beta     59.999998671220574
_cell_angle_gamma    60.00000134589986

_space_group_name_H-M_alt    "P 1"
_space_group_IT_number       1

loop_
  _space_group_symop_operation_xyz
  'x, y, z'

loop_
  _atom_site_type_symbol
  _atom_site_label
  _atom_site_symmetry_multiplicity
  _atom_site_fract_x
  _atom_site_fract_y
  _atom_site_fract_z
  _atom_site_occupancy
  Nb  Nb1       1.0  0.24999811846288394  0.25000016106032596  0.250001184091592  1.0000
  Nb  Nb2       1.0  0.75000091331896  0.7500002562665727  0.7499984892426745  1.0000
  Te  Te1       1.0  0.9999999769316361  0.9999999943271356  0.99999996496397  1.0000
  S   S1        1.0  0.26056009442261435  0.2605602713462833  0.7394399110136545  1.0000
  S   S2        1.0  0.7394400971675983  0.7394395333115357  0.26056098330193117  1.0000
  S   S3        1.0  0.7394404712352671  0.26055998605830405  0.260560340338577  1.0000
  S   S4        1.0  0.26055981048091365  0.7394401098064353  0.739439569716333  1.0000
  S   S5        1.0  0.2605596677514977  0.7394396329834182  0.26056072110762024  1.0000
  S   S6        1.0  0.7394408297094647  0.26056005632616847  0.739438827341001  1.0000
