data_image0
_chemical_formula_structural       Nb2TaO6
_chemical_formula_sum              "Nb2 Ta1 O6"
_cell_length_a       5.079445950645468
_cell_length_b       5.0794458919962135
_cell_length_c       5.079445966109957
_cell_angle_alpha    59.999999776845385
_cell_angle_beta     59.999999548948885
_cell_angle_gamma    59.9999989905043

_space_group_name_H-M_alt    "P 1"
_space_group_IT_number       1

loop_
  _space_group_symop_operation_xyz
  'x, y, z'

loop_
  _atom_site_type_symbol
  _atom_site_label
  _atom_site_symmetry_multiplicity
  _atom_site_fract_x
  _atom_site_fract_y
  _atom_site_fract_z
  _atom_site_occupancy
  Nb  Nb1       1.0  0.2499998097274709  0.2500000787177238  0.24999995656841933  1.0000
  Nb  Nb2       1.0  0.7500001386784673  0.7500000649595205  0.7499997836448882  1.0000
  Ta  Ta1       1.0  1.9793695980428146e-08  0.9999999951776438  2.991998438747024e-08  1.0000
  O   O1        1.0  0.2654697127316254  0.26546954129135886  0.7345303696346789  1.0000
  O   O2        1.0  0.7345303628205243  0.7345304119028143  0.26546966014920087  1.0000
  O   O3        1.0  0.7345304909155659  0.265469633378695  0.26546963449062666  1.0000
  O   O4        1.0  0.2654695514789996  0.7345303101707661  0.7345304619749299  1.0000
  O   O5        1.0  0.2654695384168253  0.734530320225785  0.2654697202603519  1.0000
  O   O6        1.0  0.734530371300085  0.2654696667248831  0.734530377531619  1.0000
