data_image0
_chemical_formula_structural       Nb2TaS6
_chemical_formula_sum              "Nb2 Ta1 S6"
_cell_length_a       6.272242491082051
_cell_length_b       6.2722423370296285
_cell_length_c       6.2722423804554435
_cell_angle_alpha    59.99999942814434
_cell_angle_beta     59.99999901421682
_cell_angle_gamma    59.99999949576202

_space_group_name_H-M_alt    "P 1"
_space_group_IT_number       1

loop_
  _space_group_symop_operation_xyz
  'x, y, z'

loop_
  _atom_site_type_symbol
  _atom_site_label
  _atom_site_symmetry_multiplicity
  _atom_site_fract_x
  _atom_site_fract_y
  _atom_site_fract_z
  _atom_site_occupancy
  Nb  Nb1       1.0  0.2499999919607646  0.2499997780914193  0.2500001814753659  1.0000
  Nb  Nb2       1.0  0.7499999290248788  0.7500002149161572  0.7499999250544337  1.0000
  Ta  Ta1       1.0  0.9999999976198234  0.9999999960947143  1.5484049977880372e-09  1.0000
  S   S1        1.0  0.2671453618245296  0.2671452794645723  0.7328546610735582  1.0000
  S   S2        1.0  0.7328546578108999  0.7328547213535755  0.2671452901891884  1.0000
  S   S3        1.0  0.7328547132041179  0.26714525351129675  0.2671453849620239  1.0000
  S   S4        1.0  0.26714532973219024  0.7328547160645666  0.7328546212898621  1.0000
  S   S5        1.0  0.2671453377293105  0.7328547307341134  0.26714530014061905  1.0000
  S   S6        1.0  0.732854679934316  0.2671453091368903  0.732854632581601  1.0000
