data_image0
_chemical_formula_structural       Nb2TaS6
_chemical_formula_sum              "Nb2 Ta1 S6"
_cell_length_a       6.272288462098919
_cell_length_b       6.272288426641272
_cell_length_c       6.272288597337055
_cell_angle_alpha    60.000000369932934
_cell_angle_beta     59.99999988036707
_cell_angle_gamma    60.00000151008287

_space_group_name_H-M_alt    "P 1"
_space_group_IT_number       1

loop_
  _space_group_symop_operation_xyz
  'x, y, z'

loop_
  _atom_site_type_symbol
  _atom_site_label
  _atom_site_symmetry_multiplicity
  _atom_site_fract_x
  _atom_site_fract_y
  _atom_site_fract_z
  _atom_site_occupancy
  Nb  Nb1       1.0  0.2500000120585435  0.2500000423042557  0.2499999637977424  1.0000
  Nb  Nb2       1.0  0.7500000255415519  0.7499999765603794  0.7499999958011749  1.0000
  Ta  Ta1       1.0  0.9999999854031862  0.999999960947431  0.999999994938403  1.0000
  S   S1        1.0  0.2671440398515309  0.2671440851316908  0.7328559098095195  1.0000
  S   S2        1.0  0.732855934821052  0.7328559513065989  0.2671440613061257  1.0000
  S   S3        1.0  0.7328559097609962  0.26714402545912597  0.2671441189597256  1.0000
  S   S4        1.0  0.2671440735229678  0.7328559133477438  0.7328559492783132  1.0000
  S   S5        1.0  0.2671440839667634  0.7328559565023014  0.2671440878482871  1.0000
  S   S6        1.0  0.732855935539633  0.26714407798336126  0.7328559096561968  1.0000
