data_image0
_chemical_formula_structural       Nb2VO6
_chemical_formula_sum              "Nb2 V1 O6"
_cell_length_a       4.943664559990851
_cell_length_b       4.94366476282624
_cell_length_c       4.943664538609675
_cell_angle_alpha    60.000000430192614
_cell_angle_beta     60.0000018578602
_cell_angle_gamma    60.00000033318375

_space_group_name_H-M_alt    "P 1"
_space_group_IT_number       1

loop_
  _space_group_symop_operation_xyz
  'x, y, z'

loop_
  _atom_site_type_symbol
  _atom_site_label
  _atom_site_symmetry_multiplicity
  _atom_site_fract_x
  _atom_site_fract_y
  _atom_site_fract_z
  _atom_site_occupancy
  Nb  Nb1       1.0  0.24999990878207534  0.24999956497849946  0.25000024829603645  1.0000
  Nb  Nb2       1.0  0.7499995684598713  0.7500001566031259  0.7499997895788133  1.0000
  V   V1        1.0  2.184726128230593e-08  0.9999999975225968  4.474608082518241e-09  1.0000
  O   O1        1.0  0.2588201110760961  0.2588197064170176  0.7411800806589395  1.0000
  O   O2        1.0  0.7411799587255814  0.7411802975885063  0.2588199910343976  1.0000
  O   O3        1.0  0.741180180909148  0.258819929113578  0.25881991099560264  1.0000
  O   O4        1.0  0.2588200875216075  0.7411801516914288  0.7411800351202017  1.0000
  O   O5        1.0  0.25881993409199583  0.7411802226036392  0.2588199017804351  1.0000
  O   O6        1.0  0.7411802387847723  0.2588199696844923  0.7411800201884704  1.0000
