data_image0
_chemical_formula_structural       Nb2VS6
_chemical_formula_sum              "Nb2 V1 S6"
_cell_length_a       5.941163785753522
_cell_length_b       5.941163872808621
_cell_length_c       5.941163467936601
_cell_angle_alpha    60.0000010745297
_cell_angle_beta     59.99999969004163
_cell_angle_gamma    60.000000724705984

_space_group_name_H-M_alt    "P 1"
_space_group_IT_number       1

loop_
  _space_group_symop_operation_xyz
  'x, y, z'

loop_
  _atom_site_type_symbol
  _atom_site_label
  _atom_site_symmetry_multiplicity
  _atom_site_fract_x
  _atom_site_fract_y
  _atom_site_fract_z
  _atom_site_occupancy
  Nb  Nb1       1.0  0.2500005208231949  0.24999927476000858  0.2500006104330965  1.0000
  Nb  Nb2       1.0  0.749999680688478  0.7500003268877503  0.749999221673035  1.0000
  V   V1        1.0  0.9999999455398748  7.008950651151496e-08  1.8575008962646915e-07  1.0000
  S   S1        1.0  0.2711271922799246  0.27112701399766115  0.7288731127088146  1.0000
  S   S2        1.0  0.7288727146862402  0.728873051477717  0.2711274308966181  1.0000
  S   S3        1.0  0.7288725035663604  0.27112703791923626  0.27112740195782414  1.0000
  S   S4        1.0  0.2711273474642554  0.7288732769923347  0.728872295885745  1.0000
  S   S5        1.0  0.2711272234329615  0.728872768276121  0.2711270974833376  1.0000
  S   S6        1.0  0.7288728482069748  0.271127222986841  0.7288727057413792  1.0000
