data_image0
_chemical_formula_structural       Nb2VTe6
_chemical_formula_sum              "Nb2 V1 Te6"
_cell_length_a       6.914015217175567
_cell_length_b       6.914015291016196
_cell_length_c       6.91401518597216
_cell_angle_alpha    60.00000026733109
_cell_angle_beta     60.00000047680957
_cell_angle_gamma    59.99999991074256

_space_group_name_H-M_alt    "P 1"
_space_group_IT_number       1

loop_
  _space_group_symop_operation_xyz
  'x, y, z'

loop_
  _atom_site_type_symbol
  _atom_site_label
  _atom_site_symmetry_multiplicity
  _atom_site_fract_x
  _atom_site_fract_y
  _atom_site_fract_z
  _atom_site_occupancy
  Nb  Nb1       1.0  0.2500000984981215  0.24999974441560846  0.2500000320027813  1.0000
  Nb  Nb2       1.0  0.7499999925715006  0.7499999967178581  0.7499999510681745  1.0000
  V   V1        1.0  0.9999999801441926  1.948533966772898e-08  0.9999999972925586  1.0000
  Te  Te1       1.0  0.2608992246929694  0.26089924084496396  0.7391007853515824  1.0000
  Te  Te2       1.0  0.7391006806871332  0.7391008669671654  0.26089925619757154  1.0000
  Te  Te3       1.0  0.7391007384939223  0.26089923918166263  0.26089925103016204  1.0000
  Te  Te4       1.0  0.26089922319735503  0.739100834973971  0.7391007271234998  1.0000
  Te  Te5       1.0  0.26089924360229755  0.739100819127127  0.26089923684249583  1.0000
  Te  Te6       1.0  0.739100809657211  0.26089924085734995  0.7391007648051452  1.0000
