data_image0
_chemical_formula_structural       Nb2VSe6
_chemical_formula_sum              "Nb2 V1 Se6"
_cell_length_a       6.327461250877734
_cell_length_b       6.327461205276068
_cell_length_c       6.32746116487177
_cell_angle_alpha    59.99999937151161
_cell_angle_beta     59.99999962458508
_cell_angle_gamma    59.99999913638939

_space_group_name_H-M_alt    "P 1"
_space_group_IT_number       1

loop_
  _space_group_symop_operation_xyz
  'x, y, z'

loop_
  _atom_site_type_symbol
  _atom_site_label
  _atom_site_symmetry_multiplicity
  _atom_site_fract_x
  _atom_site_fract_y
  _atom_site_fract_z
  _atom_site_occupancy
  Nb  Nb1       1.0  0.24999994601163622  0.2500002883302561  0.24999975918734021  1.0000
  Nb  Nb2       1.0  0.75000017598717  0.7500000810718098  0.7499998893268972  1.0000
  V   V1        1.0  0.9999999717061308  0.9999999206403032  9.333710122973866e-08  1.0000
  Se  Se1       1.0  0.2695118682672794  0.2695116755491975  0.730488219189719  1.0000
  Se  Se2       1.0  0.7304881679518547  0.7304881518842082  0.269511803254371  1.0000
  Se  Se3       1.0  0.7304882622509737  0.2695117893042759  0.26951179792012947  1.0000
  Se  Se4       1.0  0.2695117132655661  0.7304881271668383  0.730488276733737  1.0000
  Se  Se5       1.0  0.26951173036248494  0.7304881804434943  0.2695119124952146  1.0000
  Se  Se6       1.0  0.7304881766363382  0.26951178828888334  0.730488225601323  1.0000
