data_image0
_chemical_formula_structural       Nb2WO6
_chemical_formula_sum              "Nb2 W1 O6"
_cell_length_a       5.118919434767411
_cell_length_b       5.1189193442482335
_cell_length_c       5.118919756345704
_cell_angle_alpha    59.99999825777883
_cell_angle_beta     59.99999803583844
_cell_angle_gamma    59.999998927361545

_space_group_name_H-M_alt    "P 1"
_space_group_IT_number       1

loop_
  _space_group_symop_operation_xyz
  'x, y, z'

loop_
  _atom_site_type_symbol
  _atom_site_label
  _atom_site_symmetry_multiplicity
  _atom_site_fract_x
  _atom_site_fract_y
  _atom_site_fract_z
  _atom_site_occupancy
  Nb  Nb1       1.0  0.24999986509632025  0.24999993753545746  0.2500001928124463  1.0000
  Nb  Nb2       1.0  0.7500000855139388  0.7499999322356158  0.750000072295901  1.0000
  W   W1        1.0  1.0711495239962115e-07  0.9999999425779623  0.999999830591792  1.0000
  O   O1        1.0  0.2627263841580104  0.26272647233203716  0.7372735159174186  1.0000
  O   O2        1.0  0.7372735903505917  0.7372736032013324  0.26272640970383604  1.0000
  O   O3        1.0  0.7372734985154102  0.26272650331124364  0.2627263844279888  1.0000
  O   O4        1.0  0.2627262997005451  0.7372737085994634  0.7372736861773002  1.0000
  O   O5        1.0  0.2627264234172655  0.7372735794355777  0.26272631452786854  1.0000
  O   O6        1.0  0.7372737480962415  0.2627263381871923  0.737273642338199  1.0000
