data_image0
_chemical_formula_structural       Nb2WTe6
_chemical_formula_sum              "Nb2 W1 Te6"
_cell_length_a       7.0377573284231225
_cell_length_b       7.037757442259532
_cell_length_c       7.03775739982672
_cell_angle_alpha    59.999999439028976
_cell_angle_beta     60.000000813541675
_cell_angle_gamma    59.99999852136357

_space_group_name_H-M_alt    "P 1"
_space_group_IT_number       1

loop_
  _space_group_symop_operation_xyz
  'x, y, z'

loop_
  _atom_site_type_symbol
  _atom_site_label
  _atom_site_symmetry_multiplicity
  _atom_site_fract_x
  _atom_site_fract_y
  _atom_site_fract_z
  _atom_site_occupancy
  Nb  Nb1       1.0  0.25000002050567827  0.2500000123250563  0.2499999687014447  1.0000
  Nb  Nb2       1.0  0.7499999241286244  0.7499999569237245  0.7500002109094511  1.0000
  W   W1        1.0  0.9999999846363399  3.132447841215074e-08  0.9999999948614049  1.0000
  Te  Te1       1.0  0.2629787158506098  0.26297873581679315  0.7370212266526863  1.0000
  Te  Te2       1.0  0.737021261996241  0.7370212125490051  0.2629786896092281  1.0000
  Te  Te3       1.0  0.7370212799561726  0.26297876682941684  0.2629786656060335  1.0000
  Te  Te4       1.0  0.262978645964717  0.7370213520807616  0.737021320649223  1.0000
  Te  Te5       1.0  0.26297882512261295  0.7370212903559237  0.2629786073674588  1.0000
  Te  Te6       1.0  0.7370213406452437  0.262978640607382  0.7370213202568888  1.0000
