data_image0
_chemical_formula_structural       Nb2WSe6
_chemical_formula_sum              "Nb2 W1 Se6"
_cell_length_a       6.585794612246704
_cell_length_b       6.58579484337854
_cell_length_c       6.585794717215493
_cell_angle_alpha    59.99999867260671
_cell_angle_beta     59.999997434865875
_cell_angle_gamma    59.99999843142325

_space_group_name_H-M_alt    "P 1"
_space_group_IT_number       1

loop_
  _space_group_symop_operation_xyz
  'x, y, z'

loop_
  _atom_site_type_symbol
  _atom_site_label
  _atom_site_symmetry_multiplicity
  _atom_site_fract_x
  _atom_site_fract_y
  _atom_site_fract_z
  _atom_site_occupancy
  Nb  Nb1       1.0  0.2500001839971439  0.2499997316663325  0.2500000606372222  1.0000
  Nb  Nb2       1.0  0.7500000464695846  0.7500001750486014  0.7499995088613468  1.0000
  W   W1        1.0  0.9999999772949475  2.6035472563273306e-08  4.844263782966539e-08  1.0000
  Se  Se1       1.0  0.26151022833700976  0.2615101352023352  0.7384898016391737  1.0000
  Se  Se2       1.0  0.738489670466518  0.7384899091286677  0.26151032496411325  1.0000
  Se  Se3       1.0  0.7384898998806854  0.26151011249147066  0.26151033309913346  1.0000
  Se  Se4       1.0  0.26151019104668066  0.7384897867847513  0.7384897897090791  1.0000
  Se  Se5       1.0  0.2615100866894053  0.7384898662430415  0.2615102795827223  1.0000
  Se  Se6       1.0  0.7384897136789913  0.2615102524750284  0.7384898484156596  1.0000
