data_image0
_chemical_formula_structural       Nb2YO6
_chemical_formula_sum              "Nb2 Y1 O6"
_cell_length_a       5.262073233844677
_cell_length_b       5.262072988071575
_cell_length_c       5.262073472358364
_cell_angle_alpha    59.99999923602207
_cell_angle_beta     60.00000118500203
_cell_angle_gamma    59.99999791642272

_space_group_name_H-M_alt    "P 1"
_space_group_IT_number       1

loop_
  _space_group_symop_operation_xyz
  'x, y, z'

loop_
  _atom_site_type_symbol
  _atom_site_label
  _atom_site_symmetry_multiplicity
  _atom_site_fract_x
  _atom_site_fract_y
  _atom_site_fract_z
  _atom_site_occupancy
  Nb  Nb1       1.0  0.25000009236741777  0.24999965807665656  0.2500003439276318  1.0000
  Nb  Nb2       1.0  0.7499998806939806  0.7500003148671266  0.7499998527228091  1.0000
  Y   Y1        1.0  3.2117076492333977e-08  4.189491057436557e-08  0.9999999401893092  1.0000
  O   O1        1.0  0.27390142013362573  0.2739013293327528  0.7260986236936039  1.0000
  O   O2        1.0  0.7260986948553677  0.7260985272362724  0.27390141955144387  1.0000
  O   O3        1.0  0.726098471562334  0.2739013456085514  0.2739012662547873  1.0000
  O   O4        1.0  0.2739013228411436  0.7260988670672209  0.7260985349834409  1.0000
  O   O5        1.0  0.2739012999020755  0.7260987016943447  0.2739014292144236  1.0000
  O   O6        1.0  0.7260988066858803  0.2739011734946408  0.7260985747141152  1.0000
