data_image0
_chemical_formula_structural       Nb2YS6
_chemical_formula_sum              "Nb2 Y1 S6"
_cell_length_a       6.344951414091202
_cell_length_b       6.344951109538655
_cell_length_c       6.3449514126285
_cell_angle_alpha    59.99999925120053
_cell_angle_beta     59.999998505474146
_cell_angle_gamma    59.99999797388912

_space_group_name_H-M_alt    "P 1"
_space_group_IT_number       1

loop_
  _space_group_symop_operation_xyz
  'x, y, z'

loop_
  _atom_site_type_symbol
  _atom_site_label
  _atom_site_symmetry_multiplicity
  _atom_site_fract_x
  _atom_site_fract_y
  _atom_site_fract_z
  _atom_site_occupancy
  Nb  Nb1       1.0  0.2500001381931117  0.25000008449003225  0.24999988481986152  1.0000
  Nb  Nb2       1.0  0.7499997913407558  0.7500000430710185  0.7500004621403559  1.0000
  Y   Y1        1.0  0.9999999890807635  0.999999999999999  0.9999999376892024  1.0000
  S   S1        1.0  0.272140870681419  0.2721408917651142  0.7278591406237214  1.0000
  S   S2        1.0  0.7278591305466937  0.7278591026075133  0.2721406539427901  1.0000
  S   S3        1.0  0.7278592250586668  0.27214087745841353  0.27214075641883534  1.0000
  S   S4        1.0  0.27214092664798767  0.7278591786827556  0.7278591195748209  1.0000
  S   S5        1.0  0.27214095216525974  0.7278590791481748  0.27214075750401706  1.0000
  S   S6        1.0  0.7278589918962256  0.27214073184910315  0.7278593007545964  1.0000
