data_image0
_chemical_formula_structural       Nb2YTe6
_chemical_formula_sum              "Nb2 Y1 Te6"
_cell_length_a       7.177114296527529
_cell_length_b       7.177114250717109
_cell_length_c       7.177114210110515
_cell_angle_alpha    60.00000014916704
_cell_angle_beta     59.999999771578636
_cell_angle_gamma    60.00000024181469

_space_group_name_H-M_alt    "P 1"
_space_group_IT_number       1

loop_
  _space_group_symop_operation_xyz
  'x, y, z'

loop_
  _atom_site_type_symbol
  _atom_site_label
  _atom_site_symmetry_multiplicity
  _atom_site_fract_x
  _atom_site_fract_y
  _atom_site_fract_z
  _atom_site_occupancy
  Nb  Nb1       1.0  0.25000002630866214  0.2500001886881745  0.24999985710170652  1.0000
  Nb  Nb2       1.0  0.749999995505191  0.7499998220485526  0.7500001368951285  1.0000
  Y   Y1        1.0  0.9999999879098347  0.9999999590449924  5.299562212567535e-08  1.0000
  Te  Te1       1.0  0.2724636226108166  0.2724637776013403  0.7275362734300646  1.0000
  Te  Te2       1.0  0.7275363925556463  0.7275362723839356  0.2724636234537667  1.0000
  Te  Te3       1.0  0.7275362639747193  0.2724637070929487  0.2724636749854059  1.0000
  Te  Te4       1.0  0.272463732894796  0.7275362336789738  0.727536359499412  1.0000
  Te  Te5       1.0  0.2724637429358066  0.7275362942297582  0.272463673220898  1.0000
  Te  Te6       1.0  0.727536233813092  0.272463745516766  0.7275363580631867  1.0000
