data_image0
_chemical_formula_structural       Nb2YSe6
_chemical_formula_sum              "Nb2 Y1 Se6"
_cell_length_a       6.618323611473011
_cell_length_b       6.618323402267796
_cell_length_c       6.618323345669821
_cell_angle_alpha    59.999999949405485
_cell_angle_beta     59.99999966654166
_cell_angle_gamma    59.99999899488041

_space_group_name_H-M_alt    "P 1"
_space_group_IT_number       1

loop_
  _space_group_symop_operation_xyz
  'x, y, z'

loop_
  _atom_site_type_symbol
  _atom_site_label
  _atom_site_symmetry_multiplicity
  _atom_site_fract_x
  _atom_site_fract_y
  _atom_site_fract_z
  _atom_site_occupancy
  Nb  Nb1       1.0  0.25000033254534154  0.24999997239829574  0.24999984332962766  1.0000
  Nb  Nb2       1.0  0.7499998675554547  0.7500003187613047  0.7499996963106447  1.0000
  Y   Y1        1.0  0.9999999925101792  0.999999996298927  0.9999999738653562  1.0000
  Se  Se1       1.0  0.2735608697528537  0.2735608668538741  0.7264391236925131  1.0000
  Se  Se2       1.0  0.7264390259111162  0.7264391337715035  0.2735609929602778  1.0000
  Se  Se3       1.0  0.7264389693137047  0.27356066807008184  0.27356116007140524  1.0000
  Se  Se4       1.0  0.2735608936455298  0.7264390956866288  0.726439206200797  1.0000
  Se  Se5       1.0  0.27356096624909604  0.7264391204620231  0.2735608583630813  1.0000
  Se  Se6       1.0  0.7264390849232201  0.27356083760101496  0.7264391474222633  1.0000
