data_image0
_chemical_formula_structural       Nb2ZrSe6
_chemical_formula_sum              "Nb2 Zr1 Se6"
_cell_length_a       6.570632403962775
_cell_length_b       6.570632491368346
_cell_length_c       6.570632368231451
_cell_angle_alpha    59.999999769429
_cell_angle_beta     59.999998981471364
_cell_angle_gamma    59.99999935573838

_space_group_name_H-M_alt    "P 1"
_space_group_IT_number       1

loop_
  _space_group_symop_operation_xyz
  'x, y, z'

loop_
  _atom_site_type_symbol
  _atom_site_label
  _atom_site_symmetry_multiplicity
  _atom_site_fract_x
  _atom_site_fract_y
  _atom_site_fract_z
  _atom_site_occupancy
  Nb  Nb1       1.0  0.2500000688979536  0.2499999215333638  0.24999991201521948  1.0000
  Nb  Nb2       1.0  0.7500000016087763  0.750000105706235  0.7500002098399049  1.0000
  Zr  Zr1       1.0  1.3242690827111922e-08  0.99999998136032  0.9999999737819475  1.0000
  Se  Se1       1.0  0.2700527543573276  0.27005265999223443  0.7299473056538521  1.0000
  Se  Se2       1.0  0.7299471854129815  0.7299473113283266  0.27005262645122674  1.0000
  Se  Se3       1.0  0.7299472800262929  0.27005274948251523  0.27005268057193943  1.0000
  Se  Se4       1.0  0.27005259456000313  0.7299473224923176  0.7299473905561334  1.0000
  Se  Se5       1.0  0.2700527825223678  0.729947302476131  0.2700526220759341  1.0000
  Se  Se6       1.0  0.7299473281388446  0.27005264647681254  0.7299472753375122  1.0000
