data_image0
_chemical_formula_structural       Nb2ZrS6
_chemical_formula_sum              "Nb2 Zr1 S6"
_cell_length_a       6.2744096989585
_cell_length_b       6.2744098306581355
_cell_length_c       6.274409792520357
_cell_angle_alpha    60.00000144372141
_cell_angle_beta     60.000001207690616
_cell_angle_gamma    60.0000006067711

_space_group_name_H-M_alt    "P 1"
_space_group_IT_number       1

loop_
  _space_group_symop_operation_xyz
  'x, y, z'

loop_
  _atom_site_type_symbol
  _atom_site_label
  _atom_site_symmetry_multiplicity
  _atom_site_fract_x
  _atom_site_fract_y
  _atom_site_fract_z
  _atom_site_occupancy
  Nb  Nb1       1.0  0.2500000770388924  0.2499999682426251  0.24999995801647332  1.0000
  Nb  Nb2       1.0  0.7500000547412766  0.7499999535270826  0.7500000127449588  1.0000
  Zr  Zr1       1.0  0.9999999912257207  9.759841705722232e-09  7.600843814711053e-08  1.0000
  S   S1        1.0  0.2711801309344683  0.2711801836176239  0.7288198196670844  1.0000
  S   S2        1.0  0.7288198150645154  0.7288197654796397  0.271180177726572  1.0000
  S   S3        1.0  0.7288198755643981  0.27118011791155977  0.27118009904289403  1.0000
  S   S4        1.0  0.271180177824574  0.7288198292337347  0.7288198041935935  1.0000
  S   S5        1.0  0.27118011997048025  0.7288199682221227  0.2711801202255678  1.0000
  S   S6        1.0  0.7288197484887959  0.271180219015264  0.7288198956819568  1.0000
