data_image0
_chemical_formula_structural       Nb2ZrO6
_chemical_formula_sum              "Nb2 Zr1 O6"
_cell_length_a       5.173610460750543
_cell_length_b       5.173610542213215
_cell_length_c       5.173610361799633
_cell_angle_alpha    60.0000013311463
_cell_angle_beta     60.000000221885514
_cell_angle_gamma    60.00000115711528

_space_group_name_H-M_alt    "P 1"
_space_group_IT_number       1

loop_
  _space_group_symop_operation_xyz
  'x, y, z'

loop_
  _atom_site_type_symbol
  _atom_site_label
  _atom_site_symmetry_multiplicity
  _atom_site_fract_x
  _atom_site_fract_y
  _atom_site_fract_z
  _atom_site_occupancy
  Nb  Nb1       1.0  0.25000018275203234  0.25000043834406155  0.2499997197635927  1.0000
  Nb  Nb2       1.0  0.7500000113386817  0.7499998591474063  0.7499999218126461  1.0000
  Zr  Zr1       1.0  0.999999989877121  2.3672923163447403e-08  0.9999999912920918  1.0000
  O   O1        1.0  0.2682708141649855  0.26827109812624483  0.731729073959899  1.0000
  O   O2        1.0  0.7317291594237672  0.7317288632097139  0.2682710759585314  1.0000
  O   O3        1.0  0.7317288786139065  0.26827098232260155  0.268271010354416  1.0000
  O   O4        1.0  0.2682710910525879  0.7317289506058491  0.7317290900107672  1.0000
  O   O5        1.0  0.26827094835916393  0.7317288755673026  0.2682710270545622  1.0000
  O   O6        1.0  0.7317289065132332  0.26827091295631617  0.7317291371919553  1.0000
