data_image0
_chemical_formula_structural       Nb2ZrTe6
_chemical_formula_sum              "Nb2 Zr1 Te6"
_cell_length_a       7.118264060870192
_cell_length_b       7.118264116078717
_cell_length_c       7.118263915837663
_cell_angle_alpha    60.000000746305524
_cell_angle_beta     60.000000665179456
_cell_angle_gamma    59.99999984209214

_space_group_name_H-M_alt    "P 1"
_space_group_IT_number       1

loop_
  _space_group_symop_operation_xyz
  'x, y, z'

loop_
  _atom_site_type_symbol
  _atom_site_label
  _atom_site_symmetry_multiplicity
  _atom_site_fract_x
  _atom_site_fract_y
  _atom_site_fract_z
  _atom_site_occupancy
  Nb  Nb1       1.0  0.24999987708526017  0.25000000771767883  0.25000006455032686  1.0000
  Nb  Nb2       1.0  0.7499999785454392  0.7500001005785375  0.7500000445110624  1.0000
  Zr  Zr1       1.0  8.782752716854295e-09  0.9999999931177329  0.9999999597143232  1.0000
  Te  Te1       1.0  0.2672327436767624  0.26723263716557066  0.7327673139881832  1.0000
  Te  Te2       1.0  0.7327673126302865  0.7327672973534011  0.26723268890441637  1.0000
  Te  Te3       1.0  0.732767377607922  0.2672326697112039  0.2672326487414641  1.0000
  Te  Te4       1.0  0.2672326402085003  0.7327673267481718  0.7327673396165731  1.0000
  Te  Te5       1.0  0.267232688694258  0.7327673225433212  0.26723266476016466  1.0000
  Te  Te6       1.0  0.7327673702667173  0.2672326429458522  0.7327672805801001  1.0000
