data_image0
_chemical_formula_structural       Ni2AsSe6
_chemical_formula_sum              "Ni2 As1 Se6"
_cell_length_a       6.331364584251227
_cell_length_b       6.331363811207293
_cell_length_c       6.3313644017869555
_cell_angle_alpha    59.999997735934954
_cell_angle_beta     59.999995307527094
_cell_angle_gamma    59.99999313791451

_space_group_name_H-M_alt    "P 1"
_space_group_IT_number       1

loop_
  _space_group_symop_operation_xyz
  'x, y, z'

loop_
  _atom_site_type_symbol
  _atom_site_label
  _atom_site_symmetry_multiplicity
  _atom_site_fract_x
  _atom_site_fract_y
  _atom_site_fract_z
  _atom_site_occupancy
  Ni  Ni1       1.0  0.2499997937191359  0.2499994351050106  0.250000155210644  1.0000
  Ni  Ni2       1.0  0.7500000769392652  0.7499993092734996  0.750001068845065  1.0000
  As  As1       1.0  0.9999999125882488  0.999999961311817  9.305929998934936e-08  1.0000
  Se  Se1       1.0  0.2893043237397377  0.28930462734761014  0.7106956336636103  1.0000
  Se  Se2       1.0  0.7106956393141264  0.7106957438691287  0.2893040326634903  1.0000
  Se  Se3       1.0  0.7106956104559727  0.2893049937827684  0.28930405982350726  1.0000
  Se  Se4       1.0  0.2893045470718652  0.7106957952663763  0.7106951455654354  1.0000
  Se  Se5       1.0  0.2893046009745489  0.710695809433536  0.28930429105475475  1.0000
  Se  Se6       1.0  0.7106955424913131  0.2893042503432965  0.7106955434497859  1.0000
