data_image0
_chemical_formula_structural       Ni2AsO6
_chemical_formula_sum              "Ni2 As1 O6"
_cell_length_a       5.036287284173429
_cell_length_b       5.036288099249071
_cell_length_c       5.036287997337791
_cell_angle_alpha    60.00000011561055
_cell_angle_beta     59.99999989010076
_cell_angle_gamma    60.00000470027812

_space_group_name_H-M_alt    "P 1"
_space_group_IT_number       1

loop_
  _space_group_symop_operation_xyz
  'x, y, z'

loop_
  _atom_site_type_symbol
  _atom_site_label
  _atom_site_symmetry_multiplicity
  _atom_site_fract_x
  _atom_site_fract_y
  _atom_site_fract_z
  _atom_site_occupancy
  Ni  Ni1       1.0  0.2500001872227189  0.2500000878573973  0.24999990606126316  1.0000
  Ni  Ni2       1.0  0.7499998208123237  0.7499998380001307  0.7499999678186955  1.0000
  As  As1       1.0  3.3163570295267904e-08  2.4318404576951935e-08  0.9999999355184046  1.0000
  O   O1        1.0  0.25148559590041486  0.25148563384738587  0.7485144230800903  1.0000
  O   O2        1.0  0.7485141553651408  0.7485144914210365  0.2514856700957361  1.0000
  O   O3        1.0  0.7485146464032679  0.251485283673813  0.25148576354220037  1.0000
  O   O4        1.0  0.2514856577477519  0.7485145035688171  0.7485143512671207  1.0000
  O   O5        1.0  0.2514856362384796  0.7485144374614462  0.25148544412521884  1.0000
  O   O6        1.0  0.7485142976135215  0.25148573158010473  0.7485145716114356  1.0000
