data_image0
_chemical_formula_structural       Ni2AsS6
_chemical_formula_sum              "Ni2 As1 S6"
_cell_length_a       6.289043461523738
_cell_length_b       6.289044044560302
_cell_length_c       6.2890436832673045
_cell_angle_alpha    60.00000116097733
_cell_angle_beta     60.00000105170798
_cell_angle_gamma    60.00000200791694

_space_group_name_H-M_alt    "P 1"
_space_group_IT_number       1

loop_
  _space_group_symop_operation_xyz
  'x, y, z'

loop_
  _atom_site_type_symbol
  _atom_site_label
  _atom_site_symmetry_multiplicity
  _atom_site_fract_x
  _atom_site_fract_y
  _atom_site_fract_z
  _atom_site_occupancy
  Ni  Ni1       1.0  0.2500000766267809  0.2499998197148238  0.2500000162015937  1.0000
  Ni  Ni2       1.0  0.7499999389789926  0.7499999187370269  0.7500001025949886  1.0000
  As  As1       1.0  4.3473409810593156e-08  0.9999999026286946  7.465095511036626e-08  1.0000
  S   S1        1.0  0.2609738402051217  0.2609736313054092  0.7390263063932776  1.0000
  S   S2        1.0  0.7390262016398657  0.7390263038364739  0.2609738376844315  1.0000
  S   S3        1.0  0.739026212854711  0.2609738772165705  0.26097365776629167  1.0000
  S   S4        1.0  0.26097368963164547  0.7390263052484309  0.7390261492972674  1.0000
  S   S5        1.0  0.2609737049459801  0.7390264145283486  0.26097368326201664  1.0000
  S   S6        1.0  0.7390262691081576  0.2609738341491376  0.7390261773465593  1.0000
