data_image0
_chemical_formula_structural       Ni2BSe6
_chemical_formula_sum              "Ni2 B1 Se6"
_cell_length_a       6.2775560389243745
_cell_length_b       6.277556098058155
_cell_length_c       6.277555787310004
_cell_angle_alpha    60.00000027315288
_cell_angle_beta     60.00000016141573
_cell_angle_gamma    60.00000117057966

_space_group_name_H-M_alt    "P 1"
_space_group_IT_number       1

loop_
  _space_group_symop_operation_xyz
  'x, y, z'

loop_
  _atom_site_type_symbol
  _atom_site_label
  _atom_site_symmetry_multiplicity
  _atom_site_fract_x
  _atom_site_fract_y
  _atom_site_fract_z
  _atom_site_occupancy
  Ni  Ni1       1.0  0.2499999427609122  0.24999996332249078  0.2500000240754463  1.0000
  Ni  Ni2       1.0  0.7500000886821755  0.7499997709570867  0.7500003201271479  1.0000
  B   B1        1.0  4.7285933786288376e-08  0.9999999960980207  0.9999999671571855  1.0000
  Se  Se1       1.0  0.2357123666106647  0.2357124273509002  0.7642875877920722  1.0000
  Se  Se2       1.0  0.7642875552231139  0.7642876854207235  0.23571223646879297  1.0000
  Se  Se3       1.0  0.7642877259840892  0.23571253877906823  0.23571220678320617  1.0000
  Se  Se4       1.0  0.23571237512689483  0.7642875935024552  0.7642876232205658  1.0000
  Se  Se5       1.0  0.23571234745909259  0.7642876013028024  0.23571237195030412  1.0000
  Se  Se6       1.0  0.7642875658853904  0.23571241001734425  0.7642876538348035  1.0000
