data_image0
_chemical_formula_structural       Ni2BO6
_chemical_formula_sum              "Ni2 B1 O6"
_cell_length_a       4.495332316919768
_cell_length_b       4.495332202408032
_cell_length_c       4.4953320191241
_cell_angle_alpha    60.00000191227602
_cell_angle_beta     60.00000220112547
_cell_angle_gamma    59.99999877149233

_space_group_name_H-M_alt    "P 1"
_space_group_IT_number       1

loop_
  _space_group_symop_operation_xyz
  'x, y, z'

loop_
  _atom_site_type_symbol
  _atom_site_label
  _atom_site_symmetry_multiplicity
  _atom_site_fract_x
  _atom_site_fract_y
  _atom_site_fract_z
  _atom_site_occupancy
  Ni  Ni1       1.0  0.24999984950740836  0.24999885547490297  0.250000791059326  1.0000
  Ni  Ni2       1.0  0.7500001498999113  0.7499996941292488  0.7500000637309199  1.0000
  B   B1        1.0  1.3383336538484016e-07  0.9999998065618235  1.2323265598064784e-07  1.0000
  O   O1        1.0  0.24771559453769898  0.24771600763308174  0.7522842379997234  1.0000
  O   O2        1.0  0.7522838657514549  0.7522846370972197  0.24771589884884357  1.0000
  O   O3        1.0  0.7522843904777029  0.24771586307114055  0.2477156549948119  1.0000
  O   O4        1.0  0.24771573353766718  0.752284863393582  0.7522837042590149  1.0000
  O   O5        1.0  0.24771584119845147  0.7522846558526125  0.24771543747620717  1.0000
  O   O6        1.0  0.7522842967822896  0.24771569735816917  0.7522841726068562  1.0000
