data_image0
_chemical_formula_structural       Ni2BTe6
_chemical_formula_sum              "Ni2 B1 Te6"
_cell_length_a       6.895031946606487
_cell_length_b       6.895032733497274
_cell_length_c       6.89503215717746
_cell_angle_alpha    59.99999944895391
_cell_angle_beta     59.99999798613674
_cell_angle_gamma    60.00000338376577

_space_group_name_H-M_alt    "P 1"
_space_group_IT_number       1

loop_
  _space_group_symop_operation_xyz
  'x, y, z'

loop_
  _atom_site_type_symbol
  _atom_site_label
  _atom_site_symmetry_multiplicity
  _atom_site_fract_x
  _atom_site_fract_y
  _atom_site_fract_z
  _atom_site_occupancy
  Ni  Ni1       1.0  0.2500002538974175  0.2500000656063109  0.24999977862958433  1.0000
  Ni  Ni2       1.0  0.7499999477983945  0.7500000209680503  0.7500000700638612  1.0000
  B   B1        1.0  0.9999999898677321  0.999999975132197  1.6978358988398526e-07  1.0000
  Te  Te1       1.0  0.2357689054247445  0.23576892893698717  0.7642310204195285  1.0000
  Te  Te2       1.0  0.764231088256083  0.7642310883627959  0.235768791430035  1.0000
  Te  Te3       1.0  0.7642310292532861  0.23576895937354442  0.23576888444542915  1.0000
  Te  Te4       1.0  0.2357689982289753  0.7642308660889352  0.7642312384732032  1.0000
  Te  Te5       1.0  0.2357689464966972  0.7642310473671982  0.2357688276316702  1.0000
  Te  Te6       1.0  0.7642308295244045  0.23576905519359412  0.7642312244555982  1.0000
