data_image0
_chemical_formula_structural       Ni2IrS6
_chemical_formula_sum              "Ni2 Ir1 S6"
_cell_length_a       5.870187663048497
_cell_length_b       5.870188023774058
_cell_length_c       5.870187509794536
_cell_angle_alpha    60.0000006428758
_cell_angle_beta     60.000000842584335
_cell_angle_gamma    60.00000001940953

_space_group_name_H-M_alt    "P 1"
_space_group_IT_number       1

loop_
  _space_group_symop_operation_xyz
  'x, y, z'

loop_
  _atom_site_type_symbol
  _atom_site_label
  _atom_site_symmetry_multiplicity
  _atom_site_fract_x
  _atom_site_fract_y
  _atom_site_fract_z
  _atom_site_occupancy
  Ni  Ni1       1.0  0.2500001428804989  0.24999997421012526  0.24999996017229406  1.0000
  Ni  Ni2       1.0  0.750000122056372  0.7500000457268624  0.7499998138335513  1.0000
  Ir  Ir1       1.0  0.9999999600826812  0.9999999958272417  0.999999904501945  1.0000
  S   S1        1.0  0.2776291919406339  0.27762919907183636  0.7223708951536617  1.0000
  S   S2        1.0  0.7223707256620547  0.7223707770511485  0.2776293929850957  1.0000
  S   S3        1.0  0.7223706890665103  0.27762915773864094  0.2776292092194425  1.0000
  S   S4        1.0  0.2776290693202096  0.7223710186769274  0.722370772189124  1.0000
  S   S5        1.0  0.2776291447033975  0.7223707692054566  0.2776292805964778  1.0000
  S   S6        1.0  0.7223709339015761  0.27762911928953005  0.7223707528041813  1.0000
