data_image0
_chemical_formula_structural       Ni2IrO6
_chemical_formula_sum              "Ni2 Ir1 O6"
_cell_length_a       5.507180693037911
_cell_length_b       5.507181932432131
_cell_length_c       5.5071823582034
_cell_angle_alpha    59.99999221586659
_cell_angle_beta     59.999987445396755
_cell_angle_gamma    59.99999209721171

_space_group_name_H-M_alt    "P 1"
_space_group_IT_number       1

loop_
  _space_group_symop_operation_xyz
  'x, y, z'

loop_
  _atom_site_type_symbol
  _atom_site_label
  _atom_site_symmetry_multiplicity
  _atom_site_fract_x
  _atom_site_fract_y
  _atom_site_fract_z
  _atom_site_occupancy
  Ni  Ni1       1.0  0.25000544047172046  0.2499984756804896  0.24999763154243618  1.0000
  Ni  Ni2       1.0  0.7500016602361672  0.7499974552437129  0.7500005638947695  1.0000
  Ir  Ir1       1.0  0.999999755570521  1.734646075123478e-07  2.0955948924267627e-08  1.0000
  O   O1        1.0  0.23751653093717714  0.23751890860947728  0.7624821394821647  1.0000
  O   O2        1.0  0.7624815002473797  0.7624825487192731  0.23751770767089053  1.0000
  O   O3        1.0  0.7624805986462417  0.2375183120707969  0.23751787621791345  1.0000
  O   O4        1.0  0.2375171491508837  0.7624826493271623  0.762482180829031  1.0000
  O   O5        1.0  0.2375174680993017  0.7624826953833888  0.2375178838383703  1.0000
  O   O6        1.0  0.7624798670800965  0.23751879307998722  0.762484091586629  1.0000
