data_image0
_chemical_formula_structural       Ni2MoO6
_chemical_formula_sum              "Ni2 Mo1 O6"
_cell_length_a       5.234124917304966
_cell_length_b       5.234124911615738
_cell_length_c       5.234125098728197
_cell_angle_alpha    60.000000157340494
_cell_angle_beta     59.99999980619739
_cell_angle_gamma    60.00000090452742

_space_group_name_H-M_alt    "P 1"
_space_group_IT_number       1

loop_
  _space_group_symop_operation_xyz
  'x, y, z'

loop_
  _atom_site_type_symbol
  _atom_site_label
  _atom_site_symmetry_multiplicity
  _atom_site_fract_x
  _atom_site_fract_y
  _atom_site_fract_z
  _atom_site_occupancy
  Ni  Ni1       1.0  0.25000012658431015  0.2500000833471066  0.24999987656106232  1.0000
  Ni  Ni2       1.0  0.7499999331268132  0.7499997235586685  0.750000255706908  1.0000
  Mo  Mo1       1.0  0.9999999797665886  0.9999999812806166  6.1026242412117795e-09  1.0000
  O   O1        1.0  0.2553465855972879  0.2553466234473073  0.7446533409183629  1.0000
  O   O2        1.0  0.7446533437931884  0.7446534619092875  0.2553465415149372  1.0000
  O   O3        1.0  0.7446533656337538  0.25534669566954704  0.25534653004866725  1.0000
  O   O4        1.0  0.2553466669311151  0.7446533779874355  0.7446533945320362  1.0000
  O   O5        1.0  0.25534665893129976  0.7446533746567852  0.25534654342720375  1.0000
  O   O6        1.0  0.7446532755175305  0.2553467153796574  0.7446535079960422  1.0000
