data_image0
_chemical_formula_structural       Ni2MoSe6
_chemical_formula_sum              "Ni2 Mo1 Se6"
_cell_length_a       6.753479375708402
_cell_length_b       6.753479531697846
_cell_length_c       6.753479766546745
_cell_angle_alpha    59.99999874888447
_cell_angle_beta     59.99999814896492
_cell_angle_gamma    60.000001085654816

_space_group_name_H-M_alt    "P 1"
_space_group_IT_number       1

loop_
  _space_group_symop_operation_xyz
  'x, y, z'

loop_
  _atom_site_type_symbol
  _atom_site_label
  _atom_site_symmetry_multiplicity
  _atom_site_fract_x
  _atom_site_fract_y
  _atom_site_fract_z
  _atom_site_occupancy
  Ni  Ni1       1.0  0.2500000875527179  0.24999999616631974  0.24999997239226018  1.0000
  Ni  Ni2       1.0  0.7499998643461079  0.7500000447175142  0.7500001474522513  1.0000
  Mo  Mo1       1.0  0.9999999474292861  0.9999999474084406  9.64031056582676e-09  1.0000
  Se  Se1       1.0  0.2539913611188732  0.25399130493464  0.7460086022611379  1.0000
  Se  Se2       1.0  0.7460086956992021  0.74600870330616  0.25399122972318205  1.0000
  Se  Se3       1.0  0.74600867102081  0.25399134523855094  0.2539913633007088  1.0000
  Se  Se4       1.0  0.2539913749340481  0.7460086648157508  0.7460086360874644  1.0000
  Se  Se5       1.0  0.2539913578999091  0.7460086636821849  0.25399136002898476  1.0000
  Se  Se6       1.0  0.7460086462259431  0.2539913282370959  0.7460086856291013  1.0000
