data_image0
_chemical_formula_structural       Ni2NO6
_chemical_formula_sum              "Ni2 N1 O6"
_cell_length_a       4.240006111940109
_cell_length_b       6.394432705054696
_cell_length_c       3.8453338640270935
_cell_angle_alpha    38.21191319914477
_cell_angle_beta     27.564882452869753
_cell_angle_gamma    22.9497868485513

_space_group_name_H-M_alt    "P 1"
_space_group_IT_number       1

loop_
  _space_group_symop_operation_xyz
  'x, y, z'

loop_
  _atom_site_type_symbol
  _atom_site_label
  _atom_site_symmetry_multiplicity
  _atom_site_fract_x
  _atom_site_fract_y
  _atom_site_fract_z
  _atom_site_occupancy
  Ni  Ni1       1.0  0.500334775906981  0.17710894876958583  0.2717832376298635  1.0000
  Ni  Ni2       1.0  0.15916462785339403  0.31643820151329205  0.3938903537566595  1.0000
  N   N1        1.0  0.8955767827012519  0.12381908267243746  0.7109128540789339  1.0000
  O   O1        1.0  0.45689322862571763  0.24883280887604586  0.9952493556618964  1.0000
  O   O2        1.0  0.17624885749858976  0.6451937848146598  0.1060479220914217  1.0000
  O   O3        1.0  0.9387692188772576  0.22976536897530386  0.7687217268049175  1.0000
  O   O4        1.0  0.3822878813868994  0.1303241633383485  0.02277022650538499  1.0000
  O   O5        1.0  0.024775801157432165  0.9260921214795745  0.682974121976909  1.0000
  O   O6        1.0  0.5598989684026675  0.46405385353893225  0.7244511489635197  1.0000
