data_image0
_chemical_formula_structural       Ni2NO6
_chemical_formula_sum              "Ni2 N1 O6"
_cell_length_a       4.830289802230165
_cell_length_b       3.3552758723319767
_cell_length_c       2.5089809848516884
_cell_angle_alpha    65.82184387270449
_cell_angle_beta     72.78887032045134
_cell_angle_gamma    22.612859931217436

_space_group_name_H-M_alt    "P 1"
_space_group_IT_number       1

loop_
  _space_group_symop_operation_xyz
  'x, y, z'

loop_
  _atom_site_type_symbol
  _atom_site_label
  _atom_site_symmetry_multiplicity
  _atom_site_fract_x
  _atom_site_fract_y
  _atom_site_fract_z
  _atom_site_occupancy
  Ni  Ni1       1.0  0.8254372421695749  0.4122720935818528  0.5675732056184803  1.0000
  Ni  Ni2       1.0  0.3195655035422003  0.10343441548736143  0.433384461003329  1.0000
  N   N1        1.0  0.6807762911940338  0.773602316396564  0.6563453097636964  1.0000
  O   O1        1.0  0.26765539690501444  0.44832819265960544  0.5170803752189083  1.0000
  O   O2        1.0  0.34371322851992026  0.6142485750353203  0.5146908981387559  1.0000
  O   O3        1.0  0.18392157158542122  0.55001573248065  0.5387257196872343  1.0000
  O   O4        1.0  0.9555987566627306  0.12770999750943313  0.5931320071269902  1.0000
  O   O5        1.0  0.38104895514698295  0.23453478947605727  0.5195736230731971  1.0000
  O   O6        1.0  0.7117968442813138  0.5195657323732882  0.4761848646808189  1.0000
