data_image0
_chemical_formula_structural       Ni2PS6
_chemical_formula_sum              "Ni2 P1 S6"
_cell_length_a       6.309817104227615
_cell_length_b       6.309817130304373
_cell_length_c       6.309817110815904
_cell_angle_alpha    59.999999733760944
_cell_angle_beta     60.00000000365057
_cell_angle_gamma    60.00000018370755

_space_group_name_H-M_alt    "P 1"
_space_group_IT_number       1

loop_
  _space_group_symop_operation_xyz
  'x, y, z'

loop_
  _atom_site_type_symbol
  _atom_site_label
  _atom_site_symmetry_multiplicity
  _atom_site_fract_x
  _atom_site_fract_y
  _atom_site_fract_z
  _atom_site_occupancy
  Ni  Ni1       1.0  0.24999999716511578  0.24999999344275645  0.25000000163025543  1.0000
  Ni  Ni2       1.0  0.75000000214236  0.7499999977974029  0.7500000050961808  1.0000
  P   P1        1.0  0.9999999762099174  0.9999999999999999  1.1895041306169336e-08  1.0000
  S   S1        1.0  0.24236359405763006  0.24236358271351974  0.7576364077106047  1.0000
  S   S2        1.0  0.7576364231058753  0.7576364318188179  0.24236356417823976  1.0000
  S   S3        1.0  0.7576364105035236  0.2423636008026414  0.242363583474179  1.0000
  S   S4        1.0  0.24236360268598958  0.7576363982015775  0.7576364060898809  1.0000
  S   S5        1.0  0.24236359808557373  0.7576364004279091  0.24236359938097649  1.0000
  S   S6        1.0  0.7576363931438631  0.24236359857630962  0.7576364154266095  1.0000
