data_image0
_chemical_formula_structural       Ni2PSe6
_chemical_formula_sum              "Ni2 P1 Se6"
_cell_length_a       6.461669986898234
_cell_length_b       6.4616699657236225
_cell_length_c       6.461669932976845
_cell_angle_alpha    59.99999889560166
_cell_angle_beta     59.999999620111595
_cell_angle_gamma    60.000000674247616

_space_group_name_H-M_alt    "P 1"
_space_group_IT_number       1

loop_
  _space_group_symop_operation_xyz
  'x, y, z'

loop_
  _atom_site_type_symbol
  _atom_site_label
  _atom_site_symmetry_multiplicity
  _atom_site_fract_x
  _atom_site_fract_y
  _atom_site_fract_z
  _atom_site_occupancy
  Ni  Ni1       1.0  0.2500000289423064  0.25000005492749905  0.2500000029410942  1.0000
  Ni  Ni2       1.0  0.7500000335081062  0.7500000245229032  0.7499999663296073  1.0000
  P   P1        1.0  2.671520090089393e-08  0.9999999734644011  2.9314362783060125e-08  1.0000
  Se  Se1       1.0  0.2521125645021555  0.25211257077228355  0.7478874297762297  1.0000
  Se  Se2       1.0  0.7478873942496418  0.747887417698921  0.2521125811202277  1.0000
  Se  Se3       1.0  0.7478873927399262  0.25211254716861914  0.25211255061576376  1.0000
  Se  Se4       1.0  0.2521125735934706  0.7478874185577868  0.7478874260774291  1.0000
  Se  Se5       1.0  0.2521125402037036  0.7478874320597169  0.25211255998645316  1.0000
  Se  Se6       1.0  0.7478874447212964  0.25211255830688795  0.7478874492564032  1.0000
