data_image0
_chemical_formula_structural       Ni2PO6
_chemical_formula_sum              "Ni2 P1 O6"
_cell_length_a       4.402981945341
_cell_length_b       4.402980592275528
_cell_length_c       4.402982126274621
_cell_angle_alpha    59.999978525285336
_cell_angle_beta     59.99998619294717
_cell_angle_gamma    59.99997530697631

_space_group_name_H-M_alt    "P 1"
_space_group_IT_number       1

loop_
  _space_group_symop_operation_xyz
  'x, y, z'

loop_
  _atom_site_type_symbol
  _atom_site_label
  _atom_site_symmetry_multiplicity
  _atom_site_fract_x
  _atom_site_fract_y
  _atom_site_fract_z
  _atom_site_occupancy
  Ni  Ni1       1.0  0.25000024453219133  0.24999919471438722  0.2500001941945336  1.0000
  Ni  Ni2       1.0  0.7499991835030762  0.7500013532486507  0.7499994662639037  1.0000
  P   P1        1.0  1.7711480552840127e-07  0.9999999721837056  7.1134964744748185e-09  1.0000
  O   O1        1.0  0.26433625590454424  0.2643369878158656  0.735663306987815  1.0000
  O   O2        1.0  0.7356638841717437  0.7356631234315664  0.264336558757263  1.0000
  O   O3        1.0  0.7356633327692552  0.26433673732402563  0.2643363740624947  1.0000
  O   O4        1.0  0.2643367312806056  0.7356633266357434  0.735663548797263  1.0000
  O   O5        1.0  0.2643366586317423  0.7356636747338356  0.26433646254470367  1.0000
  O   O6        1.0  0.735663465391118  0.2643364532033624  0.7356634142381452  1.0000
