data_image0
_chemical_formula_structural       Ni2RuO6
_chemical_formula_sum              "Ni2 Ru1 O6"
_cell_length_a       5.349659618097936
_cell_length_b       5.3496593135805455
_cell_length_c       5.349659078602239
_cell_angle_alpha    60.00000156217865
_cell_angle_beta     60.000002231289024
_cell_angle_gamma    59.999998193144

_space_group_name_H-M_alt    "P 1"
_space_group_IT_number       1

loop_
  _space_group_symop_operation_xyz
  'x, y, z'

loop_
  _atom_site_type_symbol
  _atom_site_label
  _atom_site_symmetry_multiplicity
  _atom_site_fract_x
  _atom_site_fract_y
  _atom_site_fract_z
  _atom_site_occupancy
  Ni  Ni1       1.0  0.24999938129628071  0.25000182738928023  0.24999856020899103  1.0000
  Ni  Ni2       1.0  0.7499999735039091  0.7499986529218001  0.7499998179299627  1.0000
  Ru  Ru1       1.0  3.987720456313763e-08  0.999999983974279  0.999999935734474  1.0000
  O   O1        1.0  0.2431493148594659  0.24314994906026693  0.7568507029421059  1.0000
  O   O2        1.0  0.756850820961649  0.7568500207171652  0.24315002983149298  1.0000
  O   O3        1.0  0.756850656681369  0.24314964745356288  0.2431495998806541  1.0000
  O   O4        1.0  0.24314989023805564  0.756849704188954  0.7568511186467299  1.0000
  O   O5        1.0  0.24314974748559637  0.7568500654215241  0.2431495847697192  1.0000
  O   O6        1.0  0.7568501790698887  0.24315016305681497  0.7568506466203542  1.0000
