data_image0
_chemical_formula_structural       Ni2RhO6
_chemical_formula_sum              "Ni2 Rh1 O6"
_cell_length_a       5.124016871685729
_cell_length_b       5.124017004187454
_cell_length_c       5.1240169910775135
_cell_angle_alpha    60.000001575891474
_cell_angle_beta     60.000002092477544
_cell_angle_gamma    60.00000119336917

_space_group_name_H-M_alt    "P 1"
_space_group_IT_number       1

loop_
  _space_group_symop_operation_xyz
  'x, y, z'

loop_
  _atom_site_type_symbol
  _atom_site_label
  _atom_site_symmetry_multiplicity
  _atom_site_fract_x
  _atom_site_fract_y
  _atom_site_fract_z
  _atom_site_occupancy
  Ni  Ni1       1.0  0.24999995292700083  0.25000024842702373  0.2500008959274184  1.0000
  Ni  Ni2       1.0  0.7500000257400722  0.7499997103224973  0.7499991366273765  1.0000
  Rh  Rh1       1.0  5.50175908861067e-08  0.9999999904391824  8.070608800505654e-08  1.0000
  O   O1        1.0  0.2588931527807942  0.2588934566357155  0.7411062469284615  1.0000
  O   O2        1.0  0.7411067271380697  0.741106717232212  0.2588938835687424  1.0000
  O   O3        1.0  0.7411062499626491  0.25889316392544826  0.25889343566159523  1.0000
  O   O4        1.0  0.25889362959704465  0.7411067135571199  0.7411066187745783  1.0000
  O   O5        1.0  0.2588931803063871  0.7411064309685682  0.258893476386125  1.0000
  O   O6        1.0  0.7411070052497291  0.2588935899262681  0.7411062674755823  1.0000
