data_image0
_chemical_formula_structural       Ni2RuS6
_chemical_formula_sum              "Ni2 Ru1 S6"
_cell_length_a       5.797033173793924
_cell_length_b       5.797033523956498
_cell_length_c       5.797033282852796
_cell_angle_alpha    59.9999982957115
_cell_angle_beta     59.99999777239606
_cell_angle_gamma    59.99999848639173

_space_group_name_H-M_alt    "P 1"
_space_group_IT_number       1

loop_
  _space_group_symop_operation_xyz
  'x, y, z'

loop_
  _atom_site_type_symbol
  _atom_site_label
  _atom_site_symmetry_multiplicity
  _atom_site_fract_x
  _atom_site_fract_y
  _atom_site_fract_z
  _atom_site_occupancy
  Ni  Ni1       1.0  0.25000028596775487  0.25000018123659445  0.24999965034806287  1.0000
  Ni  Ni2       1.0  0.7499999040992166  0.750000214127089  0.7499994892363621  1.0000
  Ru  Ru1       1.0  0.9999999849107397  0.9999999556330986  0.9999999641773112  1.0000
  S   S1        1.0  0.2733563934324329  0.2733560600887174  0.7266437389175507  1.0000
  S   S2        1.0  0.7266435904940036  0.7266437944212638  0.27335665047431207  1.0000
  S   S3        1.0  0.7266434988356958  0.2733561318347218  0.2733563848559161  1.0000
  S   S4        1.0  0.27335643281850025  0.7266437480277824  0.7266438092683508  1.0000
  S   S5        1.0  0.27335629664294847  0.7266436765971391  0.27335630856991877  1.0000
  S   S6        1.0  0.7266436254936876  0.27335624974497524  0.7266439791996407  1.0000
