data_image0
_chemical_formula_structural       Ni2RhSe6
_chemical_formula_sum              "Ni2 Rh1 Se6"
_cell_length_a       6.234313508585075
_cell_length_b       6.234313046057719
_cell_length_c       6.234313138187571
_cell_angle_alpha    60.00000030663152
_cell_angle_beta     60.00000236663979
_cell_angle_gamma    59.99999994646655

_space_group_name_H-M_alt    "P 1"
_space_group_IT_number       1

loop_
  _space_group_symop_operation_xyz
  'x, y, z'

loop_
  _atom_site_type_symbol
  _atom_site_label
  _atom_site_symmetry_multiplicity
  _atom_site_fract_x
  _atom_site_fract_y
  _atom_site_fract_z
  _atom_site_occupancy
  Ni  Ni1       1.0  0.2499998946916628  0.25000015218128924  0.2500001602249488  1.0000
  Ni  Ni2       1.0  0.7499999267929236  0.7499999339808592  0.7500003511210224  1.0000
  Rh  Rh1       1.0  0.9999999400950143  0.9999999685676387  1.1143373677600103e-07  1.0000
  Se  Se1       1.0  0.2806691492961478  0.28066942624360963  0.7193307070392335  1.0000
  Se  Se2       1.0  0.7193309379667728  0.7193305793731105  0.2806691502812057  1.0000
  Se  Se3       1.0  0.7193306914616692  0.28066934127135673  0.28066927570156697  1.0000
  Se  Se4       1.0  0.28066931901799896  0.7193308057909886  0.7193304867306748  1.0000
  Se  Se5       1.0  0.2806694714196251  0.7193306099772036  0.2806690457571547  1.0000
  Se  Se6       1.0  0.719330654199679  0.28066919722273415  0.7193307039224477  1.0000
