data_image0
_chemical_formula_structural       Ni2RuSe6
_chemical_formula_sum              "Ni2 Ru1 Se6"
_cell_length_a       6.531527482991679
_cell_length_b       6.531527545729022
_cell_length_c       6.531527851714993
_cell_angle_alpha    59.99999854890851
_cell_angle_beta     59.999998377094556
_cell_angle_gamma    59.999998494964714

_space_group_name_H-M_alt    "P 1"
_space_group_IT_number       1

loop_
  _space_group_symop_operation_xyz
  'x, y, z'

loop_
  _atom_site_type_symbol
  _atom_site_label
  _atom_site_symmetry_multiplicity
  _atom_site_fract_x
  _atom_site_fract_y
  _atom_site_fract_z
  _atom_site_occupancy
  Ni  Ni1       1.0  0.24999997613695374  0.2500000307637595  0.25000008203916313  1.0000
  Ni  Ni2       1.0  0.7499999904493615  0.7499999910343766  0.7500000161679291  1.0000
  Ru  Ru1       1.0  0.9999999583918244  1.8751278359861054e-08  1.2959483886134258e-08  1.0000
  Se  Se1       1.0  0.2618735263247356  0.26187354254238987  0.7381264368933306  1.0000
  Se  Se2       1.0  0.7381264462791249  0.7381265036324077  0.26187357722006754  1.0000
  Se  Se3       1.0  0.7381264038905947  0.26187357076759377  0.2618734966640935  1.0000
  Se  Se4       1.0  0.26187354687357345  0.7381264772823317  0.7381264371005015  1.0000
  Se  Se5       1.0  0.261873544303026  0.7381264284366903  0.2618735384360497  1.0000
  Se  Se6       1.0  0.7381266044676965  0.26187343397558116  0.7381264075165195  1.0000
