data_image0
_chemical_formula_structural       Ni2SbS6
_chemical_formula_sum              "Ni2 Sb1 S6"
_cell_length_a       6.432353466192492
_cell_length_b       6.432353229647725
_cell_length_c       6.432353030421147
_cell_angle_alpha    60.000001311397334
_cell_angle_beta     60.00000026016339
_cell_angle_gamma    59.999998525601804

_space_group_name_H-M_alt    "P 1"
_space_group_IT_number       1

loop_
  _space_group_symop_operation_xyz
  'x, y, z'

loop_
  _atom_site_type_symbol
  _atom_site_label
  _atom_site_symmetry_multiplicity
  _atom_site_fract_x
  _atom_site_fract_y
  _atom_site_fract_z
  _atom_site_occupancy
  Ni  Ni1       1.0  0.2499999852452605  0.25000005231879463  0.24999997720722103  1.0000
  Ni  Ni2       1.0  0.749999967001487  0.7499998485021355  0.7500001455108574  1.0000
  Sb  Sb1       1.0  6.810660653674586e-08  5.712114160091275e-09  0.9999999304431768  1.0000
  S   S1        1.0  0.26788603394263577  0.26788594644773456  0.7321140078642969  1.0000
  S   S2        1.0  0.7321139484575252  0.7321140362468522  0.2678859298050396  1.0000
  S   S3        1.0  0.7321140547510082  0.26788600616787006  0.2678859126590343  1.0000
  S   S4        1.0  0.2678859123266303  0.7321139955671041  0.7321141552958583  1.0000
  S   S5        1.0  0.2678860201922087  0.732113990582749  0.2678859581241811  1.0000
  S   S6        1.0  0.7321140303673974  0.26788608921780477  0.7321139917455521  1.0000
