data_image0
_chemical_formula_structural       Ni2SbSe6
_chemical_formula_sum              "Ni2 Sb1 Se6"
_cell_length_a       6.532157370872848
_cell_length_b       6.532157369760895
_cell_length_c       6.532157128305742
_cell_angle_alpha    60.000004047888545
_cell_angle_beta     60.00000163730779
_cell_angle_gamma    59.99999938971209

_space_group_name_H-M_alt    "P 1"
_space_group_IT_number       1

loop_
  _space_group_symop_operation_xyz
  'x, y, z'

loop_
  _atom_site_type_symbol
  _atom_site_label
  _atom_site_symmetry_multiplicity
  _atom_site_fract_x
  _atom_site_fract_y
  _atom_site_fract_z
  _atom_site_occupancy
  Ni  Ni1       1.0  0.250000060604553  0.25000006262108726  0.24999976321697284  1.0000
  Ni  Ni2       1.0  0.7500001287700715  0.7499998484978844  0.7499998930715623  1.0000
  Sb  Sb1       1.0  0.9999999578780848  1.49995780638574e-08  5.7956916489463223e-08  1.0000
  Se  Se1       1.0  0.29348427145832834  0.293484345904543  0.7065157630483543  1.0000
  Se  Se2       1.0  0.7065156985937622  0.706515602713389  0.2934844679125293  1.0000
  Se  Se3       1.0  0.7065157063142162  0.2934843747597291  0.2934841995670554  1.0000
  Se  Se4       1.0  0.29348428982470953  0.7065155963575568  0.7065157422571356  1.0000
  Se  Se5       1.0  0.2934843088506455  0.7065157675126859  0.29348430131779946  1.0000
  Se  Se6       1.0  0.706515582989818  0.2934843892243543  0.7065158034538335  1.0000
