data_image0
_chemical_formula_structural       Ni2SbO6
_chemical_formula_sum              "Ni2 Sb1 O6"
_cell_length_a       5.372947931588577
_cell_length_b       5.372947921737987
_cell_length_c       5.372948226375945
_cell_angle_alpha    59.99999824453851
_cell_angle_beta     59.999999243775015
_cell_angle_gamma    59.999999676738746

_space_group_name_H-M_alt    "P 1"
_space_group_IT_number       1

loop_
  _space_group_symop_operation_xyz
  'x, y, z'

loop_
  _atom_site_type_symbol
  _atom_site_label
  _atom_site_symmetry_multiplicity
  _atom_site_fract_x
  _atom_site_fract_y
  _atom_site_fract_z
  _atom_site_occupancy
  Ni  Ni1       1.0  0.2500000187012113  0.24999989724971272  0.2500000399360568  1.0000
  Ni  Ni2       1.0  0.7499997099195078  0.7500000017564304  0.7500001732589209  1.0000
  Sb  Sb1       1.0  0.9999999725384183  5.0148238627403766e-08  2.029665612456715e-08  1.0000
  O   O1        1.0  0.2574871201622689  0.25748691864879764  0.7425129872852271  1.0000
  O   O2        1.0  0.7425128827163996  0.742513098889549  0.25748698670763825  1.0000
  O   O3        1.0  0.7425129056900674  0.2574871329080093  0.2574868746182819  1.0000
  O   O4        1.0  0.2574871252125396  0.742512955293765  0.7425130667814807  1.0000
  O   O5        1.0  0.2574870451304902  0.7425129930451788  0.2574870556453921  1.0000
  O   O6        1.0  0.7425131820144587  0.25748702221370423  0.742512779436433  1.0000
