data_image0
_chemical_formula_structural       Ni2TaTe6
_chemical_formula_sum              "Ni2 Ta1 Te6"
_cell_length_a       7.249153086948347
_cell_length_b       7.249153130954288
_cell_length_c       7.249153131051075
_cell_angle_alpha    59.999999751268874
_cell_angle_beta     59.99999924753886
_cell_angle_gamma    60.00000083285722

_space_group_name_H-M_alt    "P 1"
_space_group_IT_number       1

loop_
  _space_group_symop_operation_xyz
  'x, y, z'

loop_
  _atom_site_type_symbol
  _atom_site_label
  _atom_site_symmetry_multiplicity
  _atom_site_fract_x
  _atom_site_fract_y
  _atom_site_fract_z
  _atom_site_occupancy
  Ni  Ni1       1.0  0.25000000075602385  0.25000001249456927  0.2499999855840334  1.0000
  Ni  Ni2       1.0  0.7499999730497054  0.7500000104516974  0.750000041435619  1.0000
  Ta  Ta1       1.0  0.9999999755602635  0.9999999729679898  5.056636011713507e-08  1.0000
  Te  Te1       1.0  0.2649439357031155  0.2649439273924704  0.7350560708447823  1.0000
  Te  Te2       1.0  0.7350561147539331  0.7350560854167935  0.2649438829130389  1.0000
  Te  Te3       1.0  0.7350560264137271  0.26494395983108404  0.26494395604681925  1.0000
  Te  Te4       1.0  0.26494397468072817  0.7350560242566687  0.7350560367530542  1.0000
  Te  Te5       1.0  0.26494396882634197  0.7350560448746992  0.26494394477441  1.0000
  Te  Te6       1.0  0.735056032444784  0.2649439577975604  0.7350560317475172  1.0000
