data_image0
_chemical_formula_structural       Ni2TaSe6
_chemical_formula_sum              "Ni2 Ta1 Se6"
_cell_length_a       6.59992461697076
_cell_length_b       6.599924359804233
_cell_length_c       6.5999245572584755
_cell_angle_alpha    59.9999994635415
_cell_angle_beta     60.000000268848304
_cell_angle_gamma    59.99999931283911

_space_group_name_H-M_alt    "P 1"
_space_group_IT_number       1

loop_
  _space_group_symop_operation_xyz
  'x, y, z'

loop_
  _atom_site_type_symbol
  _atom_site_label
  _atom_site_symmetry_multiplicity
  _atom_site_fract_x
  _atom_site_fract_y
  _atom_site_fract_z
  _atom_site_occupancy
  Ni  Ni1       1.0  0.25000004722506414  0.2499999262664598  0.25000006426127674  1.0000
  Ni  Ni2       1.0  0.750000037316656  0.7499999606575208  0.7499999449407293  1.0000
  Ta  Ta1       1.0  0.9999999969950945  3.525821063677578e-08  0.9999998475081524  1.0000
  Se  Se1       1.0  0.26635582009576225  0.2663558735836212  0.7336441483660525  1.0000
  Se  Se2       1.0  0.7336440290822105  0.7336441840643303  0.2663559825508035  1.0000
  Se  Se3       1.0  0.7336441540174351  0.2663559104276819  0.2663558451858781  1.0000
  Se  Se4       1.0  0.26635581193875074  0.7336442010354343  0.7336441519488865  1.0000
  Se  Se5       1.0  0.2663558600173274  0.7336440519809732  0.266355947360003  1.0000
  Se  Se6       1.0  0.7336442399521017  0.26635585164426573  0.7336440730505582  1.0000
