data_image0
_chemical_formula_structural       Os2AsN6
_chemical_formula_sum              "Os2 As1 N6"
_cell_length_a       5.00316683701407
_cell_length_b       5.003166897358457
_cell_length_c       5.003166823271471
_cell_angle_alpha    59.999999547460014
_cell_angle_beta     59.99999932151822
_cell_angle_gamma    60.0000008454164

_space_group_name_H-M_alt    "P 1"
_space_group_IT_number       1

loop_
  _space_group_symop_operation_xyz
  'x, y, z'

loop_
  _atom_site_type_symbol
  _atom_site_label
  _atom_site_symmetry_multiplicity
  _atom_site_fract_x
  _atom_site_fract_y
  _atom_site_fract_z
  _atom_site_occupancy
  Os  Os1       1.0  0.25000104313657007  0.2500011451882673  0.24999822670441224  1.0000
  Os  Os2       1.0  0.7499984165715262  0.7499994821427948  0.7500041619823586  1.0000
  As  As1       1.0  7.739797875848174e-09  0.9999999975520611  0.9999999553806549  1.0000
  N   N1        1.0  0.2588584540904584  0.25885788358104433  0.7411419290971156  1.0000
  N   N2        1.0  0.7411415937345339  0.7411420387435452  0.2588567044498348  1.0000
  N   N3        1.0  0.7411418057901613  0.25885908054141976  0.25885726102998663  1.0000
  N   N4        1.0  0.2588580336401901  0.7411410792332678  0.7411424632891768  1.0000
  N   N5        1.0  0.2588594457398123  0.741141313089799  0.25885692240471836  1.0000
  N   N6        1.0  0.7411412022296898  0.25885799969791484  0.7411424074004048  1.0000
