data_image0
_chemical_formula_structural       Os2GaN6
_chemical_formula_sum              "Os2 Ga1 N6"
_cell_length_a       4.613933410732135
_cell_length_b       4.613933220735576
_cell_length_c       4.6139332242204745
_cell_angle_alpha    60.00000083284839
_cell_angle_beta     60.00000274322845
_cell_angle_gamma    60.000000999514555

_space_group_name_H-M_alt    "P 1"
_space_group_IT_number       1

loop_
  _space_group_symop_operation_xyz
  'x, y, z'

loop_
  _atom_site_type_symbol
  _atom_site_label
  _atom_site_symmetry_multiplicity
  _atom_site_fract_x
  _atom_site_fract_y
  _atom_site_fract_z
  _atom_site_occupancy
  Os  Os1       1.0  0.25000095633145536  0.25000022520977905  0.24999888638369402  1.0000
  Os  Os2       1.0  0.7500008996527058  0.7500002694986846  0.749998804855132  1.0000
  Ga  Ga1       1.0  1.1766387085339845e-06  3.291516357432879e-07  0.999998388834944  1.0000
  N   N1        1.0  0.282234971064689  0.28223519874617203  0.7177650988985433  1.0000
  N   N2        1.0  0.7177635357357854  0.7177636236596373  0.2822365530393717  1.0000
  N   N3        1.0  0.7177636225269411  0.2822360326121688  0.28223649624342845  1.0000
  N   N4        1.0  0.282235092516338  0.717764687724409  0.7177649695470059  1.0000
  N   N5        1.0  0.28223563305169946  0.7177640912065494  0.28223608926293037  1.0000
  N   N6        1.0  0.7177641408031881  0.2822355248794094  0.7177647403731519  1.0000
