data_image0
_chemical_formula_structural       P2BO6
_chemical_formula_sum              "P2 B1 O6"
_cell_length_a       4.5358263181408764
_cell_length_b       2.735753332077631
_cell_length_c       4.534408486148227
_cell_angle_alpha    48.73123028029185
_cell_angle_beta     19.798444176797844
_cell_angle_gamma    52.86862817199671

_space_group_name_H-M_alt    "P 1"
_space_group_IT_number       1

loop_
  _space_group_symop_operation_xyz
  'x, y, z'

loop_
  _atom_site_type_symbol
  _atom_site_label
  _atom_site_symmetry_multiplicity
  _atom_site_fract_x
  _atom_site_fract_y
  _atom_site_fract_z
  _atom_site_occupancy
  P   P1        1.0  0.4065711106319836  0.1788962050887743  0.058393152070122564  1.0000
  P   P2        1.0  0.1146307112667675  0.11590542141589683  0.9794105572406331  1.0000
  B   B1        1.0  0.029644039226042702  0.4816635685262264  0.19475808625591018  1.0000
  O   O1        1.0  0.6287352516817881  0.4120567727202992  0.20216221469558726  1.0000
  O   O2        1.0  0.5791136885660033  0.06506145653760731  0.8030156851704491  1.0000
  O   O3        1.0  0.46102232537459165  0.6132857448221555  0.8200528556133793  1.0000
  O   O4        1.0  0.9958819954432356  0.908548896920161  0.022204870635233576  1.0000
  O   O5        1.0  0.028641477967492536  0.4506591021497147  0.41672946213151774  1.0000
  O   O6        1.0  0.2167956232169781  0.26318777507582913  0.29832288987757444  1.0000
