data_image0
_chemical_formula_structural       P2BS6
_chemical_formula_sum              "P2 B1 S6"
_cell_length_a       5.688855281509321
_cell_length_b       5.688854997713096
_cell_length_c       5.688854977749745
_cell_angle_alpha    59.99999919437669
_cell_angle_beta     60.00000096858408
_cell_angle_gamma    59.99999884392502

_space_group_name_H-M_alt    "P 1"
_space_group_IT_number       1

loop_
  _space_group_symop_operation_xyz
  'x, y, z'

loop_
  _atom_site_type_symbol
  _atom_site_label
  _atom_site_symmetry_multiplicity
  _atom_site_fract_x
  _atom_site_fract_y
  _atom_site_fract_z
  _atom_site_occupancy
  P   P1        1.0  0.24999998443372684  0.25000003389814823  0.24999996141584183  1.0000
  P   P2        1.0  0.7499999590844578  0.7500000112732864  0.7500000074263234  1.0000
  B   B1        1.0  0.9999999708446194  3.87519245348479e-08  2.3326895555413613e-08  1.0000
  S   S1        1.0  0.2459512771676715  0.24595132166500458  0.7540487083301127  1.0000
  S   S2        1.0  0.7540488771605768  0.7540485964862316  0.24595129068786153  1.0000
  S   S3        1.0  0.7540486831509047  0.24595131227327588  0.2459513564689424  1.0000
  S   S4        1.0  0.24595137444541323  0.7540486403241156  0.7540486877545038  1.0000
  S   S5        1.0  0.24595125556593334  0.7540487108408842  0.2459512878838671  1.0000
  S   S6        1.0  0.754048619411822  0.2459513450949745  0.7540486588694346  1.0000
