data_image0
_chemical_formula_structural       P2CO6
_chemical_formula_sum              "P2 C1 O6"
_cell_length_a       4.597652949479682
_cell_length_b       2.753765883682016
_cell_length_c       3.8498069092298683
_cell_angle_alpha    82.69315977283162
_cell_angle_beta     29.0531948562885
_cell_angle_gamma    65.84530871165593

_space_group_name_H-M_alt    "P 1"
_space_group_IT_number       1

loop_
  _space_group_symop_operation_xyz
  'x, y, z'

loop_
  _atom_site_type_symbol
  _atom_site_label
  _atom_site_symmetry_multiplicity
  _atom_site_fract_x
  _atom_site_fract_y
  _atom_site_fract_z
  _atom_site_occupancy
  P   P1        1.0  0.43458288639531273  0.21476629710904968  0.593028352303954  1.0000
  P   P2        1.0  0.08731713355111337  0.22257267500494476  0.34951195865729834  1.0000
  C   C1        1.0  0.05636913876457639  0.6615939492362175  0.213081016598766  1.0000
  O   O1        1.0  0.33970390777657616  0.48525281911078644  0.14980487355861377  1.0000
  O   O2        1.0  0.5490387241524344  0.42548396863278726  0.9043331612465539  1.0000
  O   O3        1.0  0.3810801481767505  0.48681196653460357  0.11186426867023087  1.0000
  O   O4        1.0  0.9851842691058605  0.5001691299009429  0.6301608588544536  1.0000
  O   O5        1.0  0.7385991970432917  0.6352032834405508  0.7201065411079082  1.0000
  O   O6        1.0  0.8815311228958327  0.6865449726044885  0.5311925998298112  1.0000
