data_image0
_chemical_formula_structural       P2CS6
_chemical_formula_sum              "P2 C1 S6"
_cell_length_a       5.5072306862262606
_cell_length_b       5.507230993543992
_cell_length_c       5.507230713894547
_cell_angle_alpha    60.00000048585919
_cell_angle_beta     59.99999983683036
_cell_angle_gamma    60.00000122509383

_space_group_name_H-M_alt    "P 1"
_space_group_IT_number       1

loop_
  _space_group_symop_operation_xyz
  'x, y, z'

loop_
  _atom_site_type_symbol
  _atom_site_label
  _atom_site_symmetry_multiplicity
  _atom_site_fract_x
  _atom_site_fract_y
  _atom_site_fract_z
  _atom_site_occupancy
  P   P1        1.0  0.24999999900250988  0.24999999930240505  0.25000000641505254  1.0000
  P   P2        1.0  0.7499999485072583  0.7500000490565716  0.7499999434730342  1.0000
  C   C1        1.0  0.9999989979374564  5.782101207927298e-07  0.999999149686343  1.0000
  S   S1        1.0  0.2541609078250271  0.2541604989136132  0.7458393916889954  1.0000
  S   S2        1.0  0.7458395351634709  0.7458394782810396  0.25416059298995997  1.0000
  S   S3        1.0  0.7458395182720065  0.2541605138446038  0.254160777856821  1.0000
  S   S4        1.0  0.2541606909473264  0.7458393343647155  0.7458395171208039  1.0000
  S   S5        1.0  0.2541608240893827  0.7458392053677978  0.2541609599500539  1.0000
  S   S6        1.0  0.7458395822670432  0.2541603470648094  0.7458396476376059  1.0000
