data_image0
_chemical_formula_structural       P2NO6
_chemical_formula_sum              "P2 N1 O6"
_cell_length_a       4.4170651558624865
_cell_length_b       2.4889993331676448
_cell_length_c       2.400374476981256
_cell_angle_alpha    65.66814480469819
_cell_angle_beta     39.94629276121183
_cell_angle_gamma    70.35319442017148

_space_group_name_H-M_alt    "P 1"
_space_group_IT_number       1

loop_
  _space_group_symop_operation_xyz
  'x, y, z'

loop_
  _atom_site_type_symbol
  _atom_site_label
  _atom_site_symmetry_multiplicity
  _atom_site_fract_x
  _atom_site_fract_y
  _atom_site_fract_z
  _atom_site_occupancy
  P   P1        1.0  0.4072194472908562  0.3463071705443087  0.28445375527123523  1.0000
  P   P2        1.0  0.43631862709630176  0.11960440628187219  0.8507435728915398  1.0000
  N   N1        1.0  0.28887405978355135  0.8962166327083281  0.7760767605460206  1.0000
  O   O1        1.0  0.7970575467956826  0.39155257804255494  0.5770508201383135  1.0000
  O   O2        1.0  0.5160455877175869  0.29078788939031025  0.6694603701588346  1.0000
  O   O3        1.0  0.8646134608265743  0.16160514087238007  0.9838842276307762  1.0000
  O   O4        1.0  0.49547898670128654  0.8108221242792653  0.37026630771077557  1.0000
  O   O5        1.0  0.7735773792251934  0.413592522985182  0.31544712912222983  1.0000
  O   O6        1.0  0.10540837066964737  0.8358580734200983  0.7751051661832687  1.0000
