data_image0
_chemical_formula_structural       Pb2AsSe6
_chemical_formula_sum              "Pb2 As1 Se6"
_cell_length_a       6.852616724939064
_cell_length_b       6.852616403996784
_cell_length_c       6.852616462036744
_cell_angle_alpha    59.999999710940585
_cell_angle_beta     59.99999966803382
_cell_angle_gamma    59.99999896879669

_space_group_name_H-M_alt    "P 1"
_space_group_IT_number       1

loop_
  _space_group_symop_operation_xyz
  'x, y, z'

loop_
  _atom_site_type_symbol
  _atom_site_label
  _atom_site_symmetry_multiplicity
  _atom_site_fract_x
  _atom_site_fract_y
  _atom_site_fract_z
  _atom_site_occupancy
  Pb  Pb1       1.0  0.24999997251356695  0.2500000432811426  0.25000006479564174  1.0000
  Pb  Pb2       1.0  0.7499999857429139  0.7500001173325637  0.7499998703040375  1.0000
  As  As1       1.0  0.9999999833363867  1.9659927216753477e-08  6.271089424749789e-08  1.0000
  Se  Se1       1.0  0.26280262318265896  0.2628025673609557  0.7371973822625253  1.0000
  Se  Se2       1.0  0.7371974522827976  0.7371973376737022  0.2628026512081209  1.0000
  Se  Se3       1.0  0.7371974023302468  0.26280254241038964  0.26280261372375446  1.0000
  Se  Se4       1.0  0.2628025842013192  0.7371974019441215  0.7371973978564201  1.0000
  Se  Se5       1.0  0.2628025474016165  0.7371973937599703  0.2628025934950466  1.0000
  Se  Se6       1.0  0.7371974475376646  0.26280258097806397  0.737197366584983  1.0000
