data_image0
_chemical_formula_structural       Pb2AsN6
_chemical_formula_sum              "Pb2 As1 N6"
_cell_length_a       5.512805944771417
_cell_length_b       5.512806265522729
_cell_length_c       5.512805940081994
_cell_angle_alpha    60.00000210505941
_cell_angle_beta     60.00000055889813
_cell_angle_gamma    60.00000063854627

_space_group_name_H-M_alt    "P 1"
_space_group_IT_number       1

loop_
  _space_group_symop_operation_xyz
  'x, y, z'

loop_
  _atom_site_type_symbol
  _atom_site_label
  _atom_site_symmetry_multiplicity
  _atom_site_fract_x
  _atom_site_fract_y
  _atom_site_fract_z
  _atom_site_occupancy
  Pb  Pb1       1.0  0.2500000026244308  0.249999965753242  0.25000001709417585  1.0000
  Pb  Pb2       1.0  0.7499998726549455  0.7499999950117087  0.7500000246667521  1.0000
  As  As1       1.0  7.430491113392258e-08  0.9999999844485473  0.9999999307161888  1.0000
  N   N1        1.0  0.24946566188812555  0.24946556443198453  0.7505344479733855  1.0000
  N   N2        1.0  0.7505344286900156  0.7505343096891616  0.24946565280922614  1.0000
  N   N3        1.0  0.7505343623497791  0.24946564057728632  0.2494656686662378  1.0000
  N   N4        1.0  0.24946559207701494  0.7505344534858182  0.7505344065466926  1.0000
  N   N5        1.0  0.2494656437478186  0.7505343469874589  0.24946552095626734  1.0000
  N   N6        1.0  0.7505343254680819  0.2494657404107375  0.750534299868321  1.0000
