data_image0
_chemical_formula_structural       Pb2BiTe6
_chemical_formula_sum              "Pb2 Bi1 Te6"
_cell_length_a       7.690600774085644
_cell_length_b       7.690600715880665
_cell_length_c       7.690600822482882
_cell_angle_alpha    60.00000125580661
_cell_angle_beta     59.999999908309526
_cell_angle_gamma    60.00000110979771

_space_group_name_H-M_alt    "P 1"
_space_group_IT_number       1

loop_
  _space_group_symop_operation_xyz
  'x, y, z'

loop_
  _atom_site_type_symbol
  _atom_site_label
  _atom_site_symmetry_multiplicity
  _atom_site_fract_x
  _atom_site_fract_y
  _atom_site_fract_z
  _atom_site_occupancy
  Pb  Pb1       1.0  0.2500000077681316  0.24999995995202984  0.2500000311401933  1.0000
  Pb  Pb2       1.0  0.749999927224934  0.7500000104428677  0.7500000410591325  1.0000
  Bi  Bi1       1.0  2.620628932979204e-08  4.2998086412589385e-08  0.999999983601852  1.0000
  Te  Te1       1.0  0.27897216789802487  0.2789721372514575  0.7210278535629608  1.0000
  Te  Te2       1.0  0.7210277537043761  0.7210277742201368  0.27897224829190564  1.0000
  Te  Te3       1.0  0.721027865730231  0.2789721759850782  0.27897217922907064  1.0000
  Te  Te4       1.0  0.27897227371680794  0.7210278071499931  0.7210277297610638  1.0000
  Te  Te5       1.0  0.27897219073188073  0.7210278608619373  0.278972143219906  1.0000
  Te  Te6       1.0  0.7210277905612844  0.27897222737956506  0.7210277883930855  1.0000
