data_image0
_chemical_formula_structural       Pb2BiO6
_chemical_formula_sum              "Pb2 Bi1 O6"
_cell_length_a       5.834896568525485
_cell_length_b       5.834896563797154
_cell_length_c       5.83489675429643
_cell_angle_alpha    59.999998802094886
_cell_angle_beta     59.99999875793907
_cell_angle_gamma    59.99999871198981

_space_group_name_H-M_alt    "P 1"
_space_group_IT_number       1

loop_
  _space_group_symop_operation_xyz
  'x, y, z'

loop_
  _atom_site_type_symbol
  _atom_site_label
  _atom_site_symmetry_multiplicity
  _atom_site_fract_x
  _atom_site_fract_y
  _atom_site_fract_z
  _atom_site_occupancy
  Pb  Pb1       1.0  0.24999993686680538  0.24999998638319543  0.24999999543846435  1.0000
  Pb  Pb2       1.0  0.7500000391784039  0.750000045208592  0.7500000209454509  1.0000
  Bi  Bi1       1.0  3.08847837785995e-08  0.9999999370299947  0.999999990335215  1.0000
  O   O1        1.0  0.24878886970375177  0.24878888396960408  0.7512111252778272  1.0000
  O   O2        1.0  0.7512111660702789  0.7512111287311817  0.24878888097013652  1.0000
  O   O3        1.0  0.751211159967444  0.2487888688628935  0.24878888904446975  1.0000
  O   O4        1.0  0.24878880676260634  0.7512111669268944  0.7512111213288928  1.0000
  O   O5        1.0  0.24878883999804785  0.7512111294578762  0.24878891557347196  1.0000
  O   O6        1.0  0.7512111358276701  0.2487888790449093  0.7512111141785164  1.0000
