data_image0
_chemical_formula_structural       Pb2BiSe6
_chemical_formula_sum              "Pb2 Bi1 Se6"
_cell_length_a       7.137933728316793
_cell_length_b       7.137933568292951
_cell_length_c       7.137933443334577
_cell_angle_alpha    60.000002253616174
_cell_angle_beta     60.00000031683796
_cell_angle_gamma    59.999997624846

_space_group_name_H-M_alt    "P 1"
_space_group_IT_number       1

loop_
  _space_group_symop_operation_xyz
  'x, y, z'

loop_
  _atom_site_type_symbol
  _atom_site_label
  _atom_site_symmetry_multiplicity
  _atom_site_fract_x
  _atom_site_fract_y
  _atom_site_fract_z
  _atom_site_occupancy
  Pb  Pb1       1.0  0.25000003293618894  0.2499999074143217  0.24999998602735585  1.0000
  Pb  Pb2       1.0  0.7499999492094522  0.74999990412048  0.750000125469379  1.0000
  Bi  Bi1       1.0  0.9999999431843913  1.0294949404558797e-08  0.9999997696855365  1.0000
  Se  Se1       1.0  0.27881525545963354  0.2788152702296775  0.7211848193573369  1.0000
  Se  Se2       1.0  0.7211847139854217  0.7211847832365254  0.27881527138869605  1.0000
  Se  Se3       1.0  0.7211848797528078  0.27881522005593573  0.2788151380296205  1.0000
  Se  Se4       1.0  0.2788152772805073  0.721184780219668  0.72118483648378  1.0000
  Se  Se5       1.0  0.27881522646745105  0.7211848199031633  0.2788152157320565  1.0000
  Se  Se6       1.0  0.7211847183841026  0.2788153073435375  0.721184833608891  1.0000
