data_image0
_chemical_formula_structural       Pb2BiN6
_chemical_formula_sum              "Pb2 Bi1 N6"
_cell_length_a       5.831241711252673
_cell_length_b       5.831241528630684
_cell_length_c       5.831241760409555
_cell_angle_alpha    59.99999781919707
_cell_angle_beta     59.9999992142356
_cell_angle_gamma    59.99999790564541

_space_group_name_H-M_alt    "P 1"
_space_group_IT_number       1

loop_
  _space_group_symop_operation_xyz
  'x, y, z'

loop_
  _atom_site_type_symbol
  _atom_site_label
  _atom_site_symmetry_multiplicity
  _atom_site_fract_x
  _atom_site_fract_y
  _atom_site_fract_z
  _atom_site_occupancy
  Pb  Pb1       1.0  0.2500000394212085  0.2499999471208756  0.24999998352118283  1.0000
  Pb  Pb2       1.0  0.7499999800066749  0.7500000303910541  0.7500000006334359  1.0000
  Bi  Bi1       1.0  6.160218587859458e-09  2.3103474630336234e-08  0.9999999613595448  1.0000
  N   N1        1.0  0.2587483346666523  0.2587482774720245  0.7412517271887217  1.0000
  N   N2        1.0  0.7412516917416738  0.7412517147421162  0.2587482752778803  1.0000
  N   N3        1.0  0.7412516703255206  0.2587482312294961  0.25874833566910044  1.0000
  N   N4        1.0  0.25874823097005706  0.7412517798874878  0.7412517078981503  1.0000
  N   N5        1.0  0.2587483190934858  0.7412517248910164  0.2587482785791718  1.0000
  N   N6        1.0  0.7412516902926849  0.2587482946272302  0.7412517444699637  1.0000
