data_image0
_chemical_formula_structural       Pb2BO6
_chemical_formula_sum              "Pb2 B1 O6"
_cell_length_a       5.11378809263919
_cell_length_b       5.113788390894674
_cell_length_c       5.113788737576309
_cell_angle_alpha    60.000001532846966
_cell_angle_beta     60.00000121058342
_cell_angle_gamma    60.00000310439975

_space_group_name_H-M_alt    "P 1"
_space_group_IT_number       1

loop_
  _space_group_symop_operation_xyz
  'x, y, z'

loop_
  _atom_site_type_symbol
  _atom_site_label
  _atom_site_symmetry_multiplicity
  _atom_site_fract_x
  _atom_site_fract_y
  _atom_site_fract_z
  _atom_site_occupancy
  Pb  Pb1       1.0  0.2500001157331723  0.24999993001533394  0.2500000533304348  1.0000
  Pb  Pb2       1.0  0.7500000548629008  0.7500000031996898  0.749999929724137  1.0000
  B   B1        1.0  7.864709352240735e-08  0.9999997437365638  0.9999999636563409  1.0000
  O   O1        1.0  0.22440234351482188  0.22440242110625253  0.775597545697187  1.0000
  O   O2        1.0  0.7755976480992299  0.775597859381644  0.22440220068317315  1.0000
  O   O3        1.0  0.7755974787486637  0.2244024246316514  0.22440234261316264  1.0000
  O   O4        1.0  0.22440211016004574  0.7755980546400281  0.7755976211023066  1.0000
  O   O5        1.0  0.22440240310005763  0.7755974722535846  0.22440236753146697  1.0000
  O   O6        1.0  0.7755976405033784  0.224402252597715  0.7755979865729922  1.0000
