data_image0
_chemical_formula_structural       Pb2GaN6
_chemical_formula_sum              "Pb2 Ga1 N6"
_cell_length_a       5.729996770050897
_cell_length_b       5.729996225459669
_cell_length_c       5.729996613884119
_cell_angle_alpha    59.99999420457415
_cell_angle_beta     60.000000144377
_cell_angle_gamma    59.99999538068015

_space_group_name_H-M_alt    "P 1"
_space_group_IT_number       1

loop_
  _space_group_symop_operation_xyz
  'x, y, z'

loop_
  _atom_site_type_symbol
  _atom_site_label
  _atom_site_symmetry_multiplicity
  _atom_site_fract_x
  _atom_site_fract_y
  _atom_site_fract_z
  _atom_site_occupancy
  Pb  Pb1       1.0  0.2500006832103143  0.24999905529656982  0.24999989975083917  1.0000
  Pb  Pb2       1.0  0.7499999155128901  0.7500005152380723  0.7499999642381496  1.0000
  Ga  Ga1       1.0  5.6833865834335935e-08  0.9999999080906292  6.814860475363952e-08  1.0000
  N   N1        1.0  0.24016327661096276  0.24016216068950683  0.7598370180493196  1.0000
  N   N2        1.0  0.7598362069075449  0.7598381921435133  0.24016226893687692  1.0000
  N   N3        1.0  0.759837606212572  0.24016239595581063  0.24016300143086328  1.0000
  N   N4        1.0  0.24016299287013682  0.7598375785525602  0.7598368820321176  1.0000
  N   N5        1.0  0.24016263414765943  0.7598379955584915  0.24016300303420743  1.0000
  N   N6        1.0  0.7598366324259521  0.24016217986801827  0.7598379418615461  1.0000
