data_image0
_chemical_formula_structural       Pb2GaS6
_chemical_formula_sum              "Pb2 Ga1 S6"
_cell_length_a       6.439599602731759
_cell_length_b       6.439599086629677
_cell_length_c       6.439599214927515
_cell_angle_alpha    60.00000194010128
_cell_angle_beta     60.00000392721494
_cell_angle_gamma    60.00000308188097

_space_group_name_H-M_alt    "P 1"
_space_group_IT_number       1

loop_
  _space_group_symop_operation_xyz
  'x, y, z'

loop_
  _atom_site_type_symbol
  _atom_site_label
  _atom_site_symmetry_multiplicity
  _atom_site_fract_x
  _atom_site_fract_y
  _atom_site_fract_z
  _atom_site_occupancy
  Pb  Pb1       1.0  0.2500000617211785  0.24999994816377996  0.24999999625381417  1.0000
  Pb  Pb2       1.0  0.7500000675755061  0.7499999928392366  0.7500001178004356  1.0000
  Ga  Ga1       1.0  4.964497208644182e-08  6.08606784166629e-08  0.9999999944397102  1.0000
  S   S1        1.0  0.2585203965471835  0.2585204065663544  0.7414796189600497  1.0000
  S   S2        1.0  0.7414794516080262  0.7414796086105979  0.25852042154831645  1.0000
  S   S3        1.0  0.741479632674319  0.25852038221899004  0.2585203894761578  1.0000
  S   S4        1.0  0.2585204092844483  0.7414795625878109  0.7414795287527314  1.0000
  S   S5        1.0  0.25852043219477616  0.7414796108478613  0.25852037316662446  1.0000
  S   S6        1.0  0.7414795042399639  0.2585204138385733  0.7414795734133783  1.0000
