data_image0
_chemical_formula_structural       Pb2IrSe6
_chemical_formula_sum              "Pb2 Ir1 Se6"
_cell_length_a       6.799093580318669
_cell_length_b       6.799093565037827
_cell_length_c       6.799093441602266
_cell_angle_alpha    60.000000142891196
_cell_angle_beta     59.999999039437824
_cell_angle_gamma    60.00000034001909

_space_group_name_H-M_alt    "P 1"
_space_group_IT_number       1

loop_
  _space_group_symop_operation_xyz
  'x, y, z'

loop_
  _atom_site_type_symbol
  _atom_site_label
  _atom_site_symmetry_multiplicity
  _atom_site_fract_x
  _atom_site_fract_y
  _atom_site_fract_z
  _atom_site_occupancy
  Pb  Pb1       1.0  0.250000000414444  0.24999996969909616  0.2500000167538454  1.0000
  Pb  Pb2       1.0  0.7500000274891974  0.7499999577333474  0.7500000775350838  1.0000
  Ir  Ir1       1.0  0.9999999962443151  0.9999999297479152  1.705061581978566e-09  1.0000
  Se  Se1       1.0  0.2571234884160514  0.2571234775926323  0.7428765244588967  1.0000
  Se  Se2       1.0  0.7428765347340245  0.7428765507145995  0.257123430580793  1.0000
  Se  Se3       1.0  0.7428765468894497  0.2571234961289631  0.2571234208642087  1.0000
  Se  Se4       1.0  0.25712342519046766  0.7428765682049787  0.7428765755252452  1.0000
  Se  Se5       1.0  0.2571234705308459  0.7428765479085023  0.25712344483145466  1.0000
  Se  Se6       1.0  0.7428765040538731  0.2571235038160908  0.7428765110159586  1.0000
