data_image0
_chemical_formula_structural       Pb2IrO6
_chemical_formula_sum              "Pb2 Ir1 O6"
_cell_length_a       5.732605697987364
_cell_length_b       5.7326054874928545
_cell_length_c       5.732606044376687
_cell_angle_alpha    59.99999856418093
_cell_angle_beta     59.99999848120144
_cell_angle_gamma    60.00000005191646

_space_group_name_H-M_alt    "P 1"
_space_group_IT_number       1

loop_
  _space_group_symop_operation_xyz
  'x, y, z'

loop_
  _atom_site_type_symbol
  _atom_site_label
  _atom_site_symmetry_multiplicity
  _atom_site_fract_x
  _atom_site_fract_y
  _atom_site_fract_z
  _atom_site_occupancy
  Pb  Pb1       1.0  0.2500000122004661  0.2500000094915857  0.2499999773381716  1.0000
  Pb  Pb2       1.0  0.749999969907139  0.750000004973761  0.7500000224667326  1.0000
  Ir  Ir1       1.0  4.55147955731962e-08  0.9999999722260963  0.999999964963444  1.0000
  O   O1        1.0  0.23339798690548672  0.23339807314637603  0.7666019766817415  1.0000
  O   O2        1.0  0.7666020954477499  0.7666019306367019  0.23339800974081354  1.0000
  O   O3        1.0  0.7666019148530229  0.23339806315654285  0.23339808359469918  1.0000
  O   O4        1.0  0.23339804357210703  0.7666019256713539  0.7666019792471285  1.0000
  O   O5        1.0  0.23339802162754578  0.7666019052111775  0.23339807428778667  1.0000
  O   O6        1.0  0.7666019089643864  0.2333980643886305  0.7666019771965372  1.0000
