data_image0
_chemical_formula_structural       Pb2MoSe6
_chemical_formula_sum              "Pb2 Mo1 Se6"
_cell_length_a       6.917830329611487
_cell_length_b       6.917830134569469
_cell_length_c       6.917830137228036
_cell_angle_alpha    59.99999998204903
_cell_angle_beta     59.999999633008414
_cell_angle_gamma    59.99999871472798

_space_group_name_H-M_alt    "P 1"
_space_group_IT_number       1

loop_
  _space_group_symop_operation_xyz
  'x, y, z'

loop_
  _atom_site_type_symbol
  _atom_site_label
  _atom_site_symmetry_multiplicity
  _atom_site_fract_x
  _atom_site_fract_y
  _atom_site_fract_z
  _atom_site_occupancy
  Pb  Pb1       1.0  0.24999999591769098  0.25000001011044004  0.24999997017071088  1.0000
  Pb  Pb2       1.0  0.7500000276452917  0.749999980759625  0.74999994281713  1.0000
  Mo  Mo1       1.0  5.466008883696269e-08  5.134211244830418e-08  0.9999999773552383  1.0000
  Se  Se1       1.0  0.2526194561927927  0.2526194322004075  0.7473805840934641  1.0000
  Se  Se2       1.0  0.7473805501896431  0.747380555128823  0.2526194722447454  1.0000
  Se  Se3       1.0  0.7473806146918692  0.2526193347505211  0.25261942852585395  1.0000
  Se  Se4       1.0  0.25261939437225306  0.7473805994661786  0.747380577859699  1.0000
  Se  Se5       1.0  0.25261937898747033  0.7473806147937156  0.2526194588517306  1.0000
  Se  Se6       1.0  0.7473805267213883  0.2526194291888814  0.7473805920313256  1.0000
