data_image0
_chemical_formula_structural       Pb2MoS6
_chemical_formula_sum              "Pb2 Mo1 S6"
_cell_length_a       6.567187988257421
_cell_length_b       6.567188020716099
_cell_length_c       6.567187917797212
_cell_angle_alpha    60.00000042865289
_cell_angle_beta     60.000000526679536
_cell_angle_gamma    60.00000039231302

_space_group_name_H-M_alt    "P 1"
_space_group_IT_number       1

loop_
  _space_group_symop_operation_xyz
  'x, y, z'

loop_
  _atom_site_type_symbol
  _atom_site_label
  _atom_site_symmetry_multiplicity
  _atom_site_fract_x
  _atom_site_fract_y
  _atom_site_fract_z
  _atom_site_occupancy
  Pb  Pb1       1.0  0.2499999908054891  0.24999995297697397  0.25000004670407056  1.0000
  Pb  Pb2       1.0  0.7499999850413154  0.7500000267760294  0.7500000316045726  1.0000
  Mo  Mo1       1.0  0.999999958511104  2.424429342731204e-08  0.9999999279180475  1.0000
  S   S1        1.0  0.25132065622764055  0.25132063950673666  0.7486793206468252  1.0000
  S   S2        1.0  0.7486794328412785  0.7486793961946363  0.2513205238498428  1.0000
  S   S3        1.0  0.7486793156989905  0.25132063437403696  0.2513205775384054  1.0000
  S   S4        1.0  0.2513205650204263  0.7486794777901066  0.7486795004010225  1.0000
  S   S5        1.0  0.25132070268450246  0.7486792995842283  0.25132059918463134  1.0000
  S   S6        1.0  0.7486794012888218  0.2513205384329065  0.7486794828832428  1.0000
