data_image0
_chemical_formula_structural       Pb2MoO6
_chemical_formula_sum              "Pb2 Mo1 O6"
_cell_length_a       5.7824023120332555
_cell_length_b       5.782401630497849
_cell_length_c       5.782402138036689
_cell_angle_alpha    59.99999933553808
_cell_angle_beta     59.999999781889464
_cell_angle_gamma    60.000000314740234

_space_group_name_H-M_alt    "P 1"
_space_group_IT_number       1

loop_
  _space_group_symop_operation_xyz
  'x, y, z'

loop_
  _atom_site_type_symbol
  _atom_site_label
  _atom_site_symmetry_multiplicity
  _atom_site_fract_x
  _atom_site_fract_y
  _atom_site_fract_z
  _atom_site_occupancy
  Pb  Pb1       1.0  0.25000005423433264  0.24999984961217261  0.2500000225139829  1.0000
  Pb  Pb2       1.0  0.7499999735731706  0.749999972447659  0.7500000263942445  1.0000
  Mo  Mo1       1.0  3.3989237153525734e-08  0.9999999279861082  7.608203353844349e-08  1.0000
  O   O1        1.0  0.2366201030925366  0.23661999394284544  0.7633799467382316  1.0000
  O   O2        1.0  0.7633798709952067  0.7633800971100635  0.23662006370874544  1.0000
  O   O3        1.0  0.7633799537232745  0.23662015215340979  0.23662001100558805  1.0000
  O   O4        1.0  0.23662006038247244  0.7633800045592259  0.763379891262202  1.0000
  O   O5        1.0  0.23662002724668632  0.7633799315858325  0.2366201311305371  1.0000
  O   O6        1.0  0.7633799289898946  0.23662015311290843  0.7633798879603352  1.0000
