data_image0
_chemical_formula_structural       Pb2NO6
_chemical_formula_sum              "Pb2 N1 O6"
_cell_length_a       5.510674197611946
_cell_length_b       5.510675087969517
_cell_length_c       5.5106751367648235
_cell_angle_alpha    59.99999649766638
_cell_angle_beta     59.99999518749673
_cell_angle_gamma    59.999997237187586

_space_group_name_H-M_alt    "P 1"
_space_group_IT_number       1

loop_
  _space_group_symop_operation_xyz
  'x, y, z'

loop_
  _atom_site_type_symbol
  _atom_site_label
  _atom_site_symmetry_multiplicity
  _atom_site_fract_x
  _atom_site_fract_y
  _atom_site_fract_z
  _atom_site_occupancy
  Pb  Pb1       1.0  0.2500000643332649  0.24999988660309697  0.2499999967298828  1.0000
  Pb  Pb2       1.0  0.7500000425928632  0.7499999287312198  0.7499998547164357  1.0000
  N   N1        1.0  2.6355973607187803e-06  0.9999974930254382  0.9999967382583154  1.0000
  O   O1        1.0  0.20794890236481262  0.20794740508345153  0.7920512007262943  1.0000
  O   O2        1.0  0.7920520952910053  0.7920512278834287  0.20794761338081805  1.0000
  O   O3        1.0  0.7920491066354736  0.20795094019440244  0.2079508124806032  1.0000
  O   O4        1.0  0.20794547207089129  0.7920545847300795  0.792054559208083  1.0000
  O   O5        1.0  0.20794914429414688  0.7920510340302296  0.20794765670482726  1.0000
  O   O6        1.0  0.7920524771339976  0.20794745002943082  0.7920514280744505  1.0000
