data_image0
_chemical_formula_structural       Pb2PS6
_chemical_formula_sum              "Pb2 P1 S6"
_cell_length_a       6.531248936439619
_cell_length_b       6.531248563174703
_cell_length_c       6.531249366649297
_cell_angle_alpha    59.99999982527374
_cell_angle_beta     59.99999914889191
_cell_angle_gamma    60.00000380385944

_space_group_name_H-M_alt    "P 1"
_space_group_IT_number       1

loop_
  _space_group_symop_operation_xyz
  'x, y, z'

loop_
  _atom_site_type_symbol
  _atom_site_label
  _atom_site_symmetry_multiplicity
  _atom_site_fract_x
  _atom_site_fract_y
  _atom_site_fract_z
  _atom_site_occupancy
  Pb  Pb1       1.0  0.24999999360870748  0.25000000281019  0.2499999483737964  1.0000
  Pb  Pb2       1.0  0.7500000337577625  0.7500000140562052  0.7500000363212428  1.0000
  P   P1        1.0  0.9999998816505861  1.8001995306339487e-07  1.238058978840993e-07  1.0000
  S   S1        1.0  0.23708449657746936  0.2370845106981544  0.762915518481658  1.0000
  S   S2        1.0  0.7629154504463126  0.7629154236590899  0.23708452314168738  1.0000
  S   S3        1.0  0.762915417231679  0.23708459196663603  0.23708458141638838  1.0000
  S   S4        1.0  0.23708467021187832  0.7629153030112479  0.7629153224140142  1.0000
  S   S5        1.0  0.23708461935285693  0.7629153443151265  0.23708462816226616  1.0000
  S   S6        1.0  0.7629154465350133  0.23708459941816398  0.7629153554654157  1.0000
