data_image0
_chemical_formula_structural       Pb2PSe6
_chemical_formula_sum              "Pb2 P1 Se6"
_cell_length_a       6.68964769168957
_cell_length_b       6.689647740089651
_cell_length_c       6.68964767714944
_cell_angle_alpha    59.999999621306
_cell_angle_beta     59.99999916945755
_cell_angle_gamma    60.000000829216276

_space_group_name_H-M_alt    "P 1"
_space_group_IT_number       1

loop_
  _space_group_symop_operation_xyz
  'x, y, z'

loop_
  _atom_site_type_symbol
  _atom_site_label
  _atom_site_symmetry_multiplicity
  _atom_site_fract_x
  _atom_site_fract_y
  _atom_site_fract_z
  _atom_site_occupancy
  Pb  Pb1       1.0  0.24999993389209804  0.25000004668708725  0.25000000840972764  1.0000
  Pb  Pb2       1.0  0.7500000411018048  0.7499999551498363  0.7499999934875984  1.0000
  P   P1        1.0  0.9999999841689415  0.9999999853535501  2.271298959293981e-08  1.0000
  Se  Se1       1.0  0.24656993455668128  0.2465699539243064  0.753430051723468  1.0000
  Se  Se2       1.0  0.7534301122184761  0.7534300552358429  0.2465699031473821  1.0000
  Se  Se3       1.0  0.7534300570036419  0.24656998480301554  0.2465699403345314  1.0000
  Se  Se4       1.0  0.24656994712456182  0.7534300280187456  0.753430041503225  1.0000
  Se  Se5       1.0  0.2465699719111003  0.7534300192697087  0.24657000682237742  1.0000
  Se  Se6       1.0  0.7534300308051187  0.24656997707479616  0.7534300213311755  1.0000
