data_image0
_chemical_formula_structural       Pb2RhSe6
_chemical_formula_sum              "Pb2 Rh1 Se6"
_cell_length_a       6.779964301728604
_cell_length_b       6.779964370897316
_cell_length_c       6.7799646302896965
_cell_angle_alpha    59.99999986323841
_cell_angle_beta     59.999998847248065
_cell_angle_gamma    60.00000060825539

_space_group_name_H-M_alt    "P 1"
_space_group_IT_number       1

loop_
  _space_group_symop_operation_xyz
  'x, y, z'

loop_
  _atom_site_type_symbol
  _atom_site_label
  _atom_site_symmetry_multiplicity
  _atom_site_fract_x
  _atom_site_fract_y
  _atom_site_fract_z
  _atom_site_occupancy
  Pb  Pb1       1.0  0.2500000285402746  0.2499999701020891  0.24999999405396284  1.0000
  Pb  Pb2       1.0  0.7500000121274217  0.7500000132720842  0.7499999703755496  1.0000
  Rh  Rh1       1.0  0.9999999803537504  1.80641783680583e-08  2.265969683873295e-09  1.0000
  Se  Se1       1.0  0.256171244156274  0.25617125003421204  0.7438287337952488  1.0000
  Se  Se2       1.0  0.7438287499076658  0.7438287658554821  0.256171230303712  1.0000
  Se  Se3       1.0  0.7438287300724762  0.2561712421667077  0.2561712509803484  1.0000
  Se  Se4       1.0  0.25617127894163483  0.7438287339817943  0.7438287756618768  1.0000
  Se  Se5       1.0  0.256171248564141  0.7438287520546558  0.2561712525655888  1.0000
  Se  Se6       1.0  0.7438287269722421  0.25617125299653165  0.7438287866886956  1.0000
