data_image0
_chemical_formula_structural       Pb2RhS6
_chemical_formula_sum              "Pb2 Rh1 S6"
_cell_length_a       6.421267034055498
_cell_length_b       6.42126674299731
_cell_length_c       6.421266696352751
_cell_angle_alpha    59.99999975553203
_cell_angle_beta     60.00000067643987
_cell_angle_gamma    59.9999998640409

_space_group_name_H-M_alt    "P 1"
_space_group_IT_number       1

loop_
  _space_group_symop_operation_xyz
  'x, y, z'

loop_
  _atom_site_type_symbol
  _atom_site_label
  _atom_site_symmetry_multiplicity
  _atom_site_fract_x
  _atom_site_fract_y
  _atom_site_fract_z
  _atom_site_occupancy
  Pb  Pb1       1.0  0.2500000050199638  0.24999993691626207  0.2500000622095598  1.0000
  Pb  Pb2       1.0  0.7500000482415791  0.7500000510718584  0.7499999346342384  1.0000
  Rh  Rh1       1.0  0.9999999933150017  3.623919337770985e-08  0.9999999478470992  1.0000
  S   S1        1.0  0.2545490097383603  0.25454897158225936  0.7454510038150123  1.0000
  S   S2        1.0  0.7454510511337704  0.7454510259424911  0.25454898289785177  1.0000
  S   S3        1.0  0.7454510242128138  0.25454894298871616  0.25454895115993154  1.0000
  S   S4        1.0  0.2545488869500174  0.7454511098484863  0.74545105316218  1.0000
  S   S5        1.0  0.25454893846981247  0.7454509980415941  0.25454897488054146  1.0000
  S   S6        1.0  0.7454510396114415  0.2545489403560508  0.7454510936925905  1.0000
