data_image0
_chemical_formula_structural       Pb2RuSe6
_chemical_formula_sum              "Pb2 Ru1 Se6"
_cell_length_a       6.787276143637128
_cell_length_b       6.7872759584554805
_cell_length_c       6.787276021229415
_cell_angle_alpha    59.99999927916425
_cell_angle_beta     60.000000047104045
_cell_angle_gamma    59.99999964117429

_space_group_name_H-M_alt    "P 1"
_space_group_IT_number       1

loop_
  _space_group_symop_operation_xyz
  'x, y, z'

loop_
  _atom_site_type_symbol
  _atom_site_label
  _atom_site_symmetry_multiplicity
  _atom_site_fract_x
  _atom_site_fract_y
  _atom_site_fract_z
  _atom_site_occupancy
  Pb  Pb1       1.0  0.25000000096695546  0.24999999459309186  0.25000001356745105  1.0000
  Pb  Pb2       1.0  0.7500000301212244  0.7499999837792758  0.7499999843651655  1.0000
  Ru  Ru1       1.0  4.1432028078094074e-08  0.9999999981955286  0.9999998490585058  1.0000
  Se  Se1       1.0  0.25598899331427066  0.2559890355905988  0.7440110056008936  1.0000
  Se  Se2       1.0  0.7440109782116696  0.7440109734577908  0.2559890671819816  1.0000
  Se  Se3       1.0  0.7440109311166638  0.2559890603471992  0.2559890044991505  1.0000
  Se  Se4       1.0  0.25598895360897306  0.7440110100532354  0.744011007340598  1.0000
  Se  Se5       1.0  0.2559889704227791  0.7440109626144898  0.2559890459956315  1.0000
  Se  Se6       1.0  0.7440110960147353  0.25598897605949583  0.7440110204120391  1.0000
