data_image0
_chemical_formula_structural       Pb2SbO6
_chemical_formula_sum              "Pb2 Sb1 O6"
_cell_length_a       5.757775613400838
_cell_length_b       5.757775571855929
_cell_length_c       5.757775636445611
_cell_angle_alpha    60.00000009772114
_cell_angle_beta     60.00000014569725
_cell_angle_gamma    60.00000030338186

_space_group_name_H-M_alt    "P 1"
_space_group_IT_number       1

loop_
  _space_group_symop_operation_xyz
  'x, y, z'

loop_
  _atom_site_type_symbol
  _atom_site_label
  _atom_site_symmetry_multiplicity
  _atom_site_fract_x
  _atom_site_fract_y
  _atom_site_fract_z
  _atom_site_occupancy
  Pb  Pb1       1.0  0.2500000033351611  0.2500000012887188  0.24999999593432676  1.0000
  Pb  Pb2       1.0  0.7499999946708182  0.7500000017390417  0.7499999982706518  1.0000
  Sb  Sb1       1.0  8.14350329287503e-09  0.9999999936186561  0.9999999956453567  1.0000
  O   O1        1.0  0.24535625030841338  0.24535624200523634  0.7546437523718892  1.0000
  O   O2        1.0  0.754643749237294  0.754643750386951  0.24535625680170262  1.0000
  O   O3        1.0  0.7546437378711809  0.24535625144626327  0.24535626357618728  1.0000
  O   O4        1.0  0.24535625482744786  0.7546437494543826  0.7546437551874053  1.0000
  O   O5        1.0  0.24535625282766702  0.7546437451558579  0.24535625650360987  1.0000
  O   O6        1.0  0.7546437411673868  0.24535625787190263  0.7546437431803952  1.0000
