data_image0
_chemical_formula_structural       Pb2SbTe6
_chemical_formula_sum              "Pb2 Sb1 Te6"
_cell_length_a       7.588260505681073
_cell_length_b       7.588260414340024
_cell_length_c       7.588260692635875
_cell_angle_alpha    59.99999902667089
_cell_angle_beta     59.99999849291691
_cell_angle_gamma    59.99999831189361

_space_group_name_H-M_alt    "P 1"
_space_group_IT_number       1

loop_
  _space_group_symop_operation_xyz
  'x, y, z'

loop_
  _atom_site_type_symbol
  _atom_site_label
  _atom_site_symmetry_multiplicity
  _atom_site_fract_x
  _atom_site_fract_y
  _atom_site_fract_z
  _atom_site_occupancy
  Pb  Pb1       1.0  0.2500000835508107  0.2500000392748072  0.24999996062101437  1.0000
  Pb  Pb2       1.0  0.7499999300077096  0.7499999887044602  0.7500000645749851  1.0000
  Sb  Sb1       1.0  0.9999999992932261  0.999999983860004  0.9999999003617311  1.0000
  Te  Te1       1.0  0.2723414971485416  0.2723414431352562  0.7276585378047232  1.0000
  Te  Te2       1.0  0.7276584946605783  0.7276585816160122  0.2723414656165247  1.0000
  Te  Te3       1.0  0.7276584480811874  0.2723415413396147  0.2723414788176575  1.0000
  Te  Te4       1.0  0.2723414799697487  0.7276585286036417  0.7276585589253646  1.0000
  Te  Te5       1.0  0.27234156242347674  0.7276584277208856  0.2723414539884082  1.0000
  Te  Te6       1.0  0.7276585079625792  0.27234146629641875  0.7276585847361284  1.0000
