data_image0
_chemical_formula_structural       Pb2SbN6
_chemical_formula_sum              "Pb2 Sb1 N6"
_cell_length_a       5.707579653279501
_cell_length_b       5.707579601953955
_cell_length_c       5.707579798440632
_cell_angle_alpha    59.999996857487155
_cell_angle_beta     59.99999639668224
_cell_angle_gamma    59.99999828887286

_space_group_name_H-M_alt    "P 1"
_space_group_IT_number       1

loop_
  _space_group_symop_operation_xyz
  'x, y, z'

loop_
  _atom_site_type_symbol
  _atom_site_label
  _atom_site_symmetry_multiplicity
  _atom_site_fract_x
  _atom_site_fract_y
  _atom_site_fract_z
  _atom_site_occupancy
  Pb  Pb1       1.0  0.2500000317620426  0.24999997997759474  0.25000003432012136  1.0000
  Pb  Pb2       1.0  0.7500000096812581  0.7500000085990852  0.7499999502404882  1.0000
  Sb  Sb1       1.0  3.012211665022918e-08  0.99999997639596  0.9999999687080637  1.0000
  N   N1        1.0  0.2586968276576079  0.2586968160876534  0.7413031568187187  1.0000
  N   N2        1.0  0.7413031604487578  0.7413032111138202  0.25869680706506454  1.0000
  N   N3        1.0  0.7413032040946126  0.25869679234290954  0.25869684391837466  1.0000
  N   N4        1.0  0.25869680534724804  0.741303176921373  0.7413032065964448  1.0000
  N   N5        1.0  0.25869677715884093  0.7413032107424063  0.2586968316795504  1.0000
  N   N6        1.0  0.741303167501701  0.25869683147981914  0.7413032129949011  1.0000
