data_image0
_chemical_formula_structural       Pb2SbSe6
_chemical_formula_sum              "Pb2 Sb1 Se6"
_cell_length_a       6.995986532338921
_cell_length_b       6.995986526848255
_cell_length_c       6.995986437081611
_cell_angle_alpha    60.00000019736811
_cell_angle_beta     60.00000147536233
_cell_angle_gamma    60.00000006696618

_space_group_name_H-M_alt    "P 1"
_space_group_IT_number       1

loop_
  _space_group_symop_operation_xyz
  'x, y, z'

loop_
  _atom_site_type_symbol
  _atom_site_label
  _atom_site_symmetry_multiplicity
  _atom_site_fract_x
  _atom_site_fract_y
  _atom_site_fract_z
  _atom_site_occupancy
  Pb  Pb1       1.0  0.2500001198009408  0.24999995421756852  0.24999993183079458  1.0000
  Pb  Pb2       1.0  0.7499999372676214  0.750000014958322  0.7500000619111437  1.0000
  Sb  Sb1       1.0  8.484242751367864e-09  1.0328771625420684e-07  1.4154179040467397e-08  1.0000
  Se  Se1       1.0  0.26613190974780554  0.26613190446913204  0.7338681077779403  1.0000
  Se  Se2       1.0  0.7338680302340636  0.733868059454841  0.2661319385569562  1.0000
  Se  Se3       1.0  0.7338681018437536  0.26613189056866543  0.2661319116780774  1.0000
  Se  Se4       1.0  0.26613197788299775  0.7338680155842119  0.733868056505761  1.0000
  Se  Se5       1.0  0.2661319009230262  0.7338681131343633  0.2661318849946352  1.0000
  Se  Se6       1.0  0.7338680124988909  0.26613194532413065  0.7338680887594199  1.0000
