data_image0
_chemical_formula_structural       Pb2TlTe6
_chemical_formula_sum              "Pb2 Tl1 Te6"
_cell_length_a       7.633939968443794
_cell_length_b       7.633939989346242
_cell_length_c       7.633939842931024
_cell_angle_alpha    59.99999969792951
_cell_angle_beta     59.99999997304629
_cell_angle_gamma    60.00002237016505

_space_group_name_H-M_alt    "P 1"
_space_group_IT_number       1

loop_
  _space_group_symop_operation_xyz
  'x, y, z'

loop_
  _atom_site_type_symbol
  _atom_site_label
  _atom_site_symmetry_multiplicity
  _atom_site_fract_x
  _atom_site_fract_y
  _atom_site_fract_z
  _atom_site_occupancy
  Pb  Pb1       1.0  0.24999970542740144  0.24999917666004143  0.25000070393952767  1.0000
  Pb  Pb2       1.0  0.7500003648820783  0.7500004546952386  0.7499990597355876  1.0000
  Tl  Tl1       1.0  6.031734590136573e-08  1.684558860827835e-07  0.9999999131221139  1.0000
  Te  Te1       1.0  0.28437227939289367  0.2843723898828799  0.7156277639139326  1.0000
  Te  Te2       1.0  0.7156273598368161  0.7156276906879375  0.284373003276598  1.0000
  Te  Te3       1.0  0.7156278940287905  0.28437169623015474  0.2843729657604075  1.0000
  Te  Te4       1.0  0.2843720472754528  0.7156283811320632  0.7156268529340073  1.0000
  Te  Te5       1.0  0.2843718872462572  0.7156281970723054  0.2843727895854043  1.0000
  Te  Te6       1.0  0.7156283783940418  0.28437184659882003  0.7156269833419362  1.0000
