data_image0
_chemical_formula_structural       Pb2TlSe6
_chemical_formula_sum              "Pb2 Tl1 Se6"
_cell_length_a       7.045480932144097
_cell_length_b       7.045480834347138
_cell_length_c       7.0454808761004575
_cell_angle_alpha    60.00000080387166
_cell_angle_beta     60.00000021932466
_cell_angle_gamma    59.99999969971393

_space_group_name_H-M_alt    "P 1"
_space_group_IT_number       1

loop_
  _space_group_symop_operation_xyz
  'x, y, z'

loop_
  _atom_site_type_symbol
  _atom_site_label
  _atom_site_symmetry_multiplicity
  _atom_site_fract_x
  _atom_site_fract_y
  _atom_site_fract_z
  _atom_site_occupancy
  Pb  Pb1       1.0  0.24999992264813745  0.25000011895004126  0.24999987767156825  1.0000
  Pb  Pb2       1.0  0.7499999784284173  0.7499999761534335  0.7500000587649327  1.0000
  Tl  Tl1       1.0  2.9435323766099696e-08  0.9999999461114263  0.9999999682267889  1.0000
  Se  Se1       1.0  0.2740306575567148  0.27403068720366514  0.7259693656371009  1.0000
  Se  Se2       1.0  0.7259693699840264  0.7259692792625709  0.27403062298250813  1.0000
  Se  Se3       1.0  0.72596940020838  0.2740306715660726  0.2740306667430644  1.0000
  Se  Se4       1.0  0.27403068547297077  0.7259692827317771  0.7259694195351434  1.0000
  Se  Se5       1.0  0.2740306566119792  0.7259693453294298  0.2740306342569622  1.0000
  Se  Se6       1.0  0.7259692962653828  0.27403069762381377  0.7259693761604259  1.0000
