data_image0
_chemical_formula_structural       Pb2TaTe6
_chemical_formula_sum              "Pb2 Ta1 Te6"
_cell_length_a       7.431591053451989
_cell_length_b       7.431591003671887
_cell_length_c       7.431590825735069
_cell_angle_alpha    60.00000133204997
_cell_angle_beta     60.00000159849554
_cell_angle_gamma    59.99999871691242

_space_group_name_H-M_alt    "P 1"
_space_group_IT_number       1

loop_
  _space_group_symop_operation_xyz
  'x, y, z'

loop_
  _atom_site_type_symbol
  _atom_site_label
  _atom_site_symmetry_multiplicity
  _atom_site_fract_x
  _atom_site_fract_y
  _atom_site_fract_z
  _atom_site_occupancy
  Pb  Pb1       1.0  0.25000007458365625  0.24999997327193837  0.249999975120464  1.0000
  Pb  Pb2       1.0  0.749999942313385  0.7499999577203995  0.7500000444366769  1.0000
  Ta  Ta1       1.0  0.999999979706699  4.944075693845321e-09  0.9999999686520121  1.0000
  Te  Te1       1.0  0.26209320199757996  0.26209324919637705  0.7379067718226267  1.0000
  Te  Te2       1.0  0.7379067846856652  0.7379067724373433  0.2620932229031487  1.0000
  Te  Te3       1.0  0.7379067756005369  0.26209320724850077  0.2620931599605294  1.0000
  Te  Te4       1.0  0.2620932109884559  0.7379068193292948  0.7379068296491208  1.0000
  Te  Te5       1.0  0.26209324427480074  0.737906804283894  0.26209316327576276  1.0000
  Te  Te6       1.0  0.7379067930555304  0.26209319592549885  0.7379068693173033  1.0000
