data_image0
_chemical_formula_structural       Pb2YN6
_chemical_formula_sum              "Pb2 Y1 N6"
_cell_length_a       9.359391217767394
_cell_length_b       6.207086979309134
_cell_length_c       7.209730736675167
_cell_angle_alpha    67.78740229644905
_cell_angle_beta     45.14416578164952
_cell_angle_gamma    47.92538662334362

_space_group_name_H-M_alt    "P 1"
_space_group_IT_number       1

loop_
  _space_group_symop_operation_xyz
  'x, y, z'

loop_
  _atom_site_type_symbol
  _atom_site_label
  _atom_site_symmetry_multiplicity
  _atom_site_fract_x
  _atom_site_fract_y
  _atom_site_fract_z
  _atom_site_occupancy
  Pb  Pb1       1.0  0.0807218489088588  0.6168048047452134  0.16559392781412596  1.0000
  Pb  Pb2       1.0  0.4983054462311621  0.8865052649798355  0.8191547860682276  1.0000
  Y   Y1        1.0  0.0003605998067208972  0.2589298868291241  0.8368590583756479  1.0000
  N   N1        1.0  0.2723053664672122  0.3642817989184355  0.5165386414496828  1.0000
  N   N2        1.0  0.9432563009375358  0.05892955791459227  0.5281856430156767  1.0000
  N   N3        1.0  0.5832188926156949  0.4396268864577871  0.2021738994039547  1.0000
  N   N4        1.0  0.2174788390714601  0.8733571319077627  0.9405954164710543  1.0000
  N   N5        1.0  0.4272218314013585  0.4034276556344244  0.3586541774875732  1.0000
  N   N6        1.0  0.9771313264892324  0.09813596879631271  0.632246347251585  1.0000
