data_image0
_chemical_formula_structural       Pd2AsN6
_chemical_formula_sum              "Pd2 As1 N6"
_cell_length_a       4.991273844243564
_cell_length_b       4.991273769493209
_cell_length_c       4.991273942223927
_cell_angle_alpha    60.00000188826269
_cell_angle_beta     60.00000187161272
_cell_angle_gamma    60.000000775516426

_space_group_name_H-M_alt    "P 1"
_space_group_IT_number       1

loop_
  _space_group_symop_operation_xyz
  'x, y, z'

loop_
  _atom_site_type_symbol
  _atom_site_label
  _atom_site_symmetry_multiplicity
  _atom_site_fract_x
  _atom_site_fract_y
  _atom_site_fract_z
  _atom_site_occupancy
  Pd  Pd1       1.0  0.24999987217975167  0.24999986738383706  0.2500001224575667  1.0000
  Pd  Pd2       1.0  0.7500004995669715  0.749999881881537  0.7499999582945531  1.0000
  As  As1       1.0  8.660781669457463e-10  0.9999999141179731  0.9999999583611184  1.0000
  N   N1        1.0  0.28256640977570896  0.28256683676510014  0.7174335764732901  1.0000
  N   N2        1.0  0.7174336786487291  0.7174333738094283  0.28256607068399786  1.0000
  N   N3        1.0  0.7174336406303929  0.2825667173389371  0.28256654561647543  1.0000
  N   N4        1.0  0.2825658573980716  0.7174335987478029  0.7174336725561148  1.0000
  N   N5        1.0  0.282566381483832  0.7174336173835335  0.28256668076991476  1.0000
  N   N6        1.0  0.717433636679641  0.28256619322614207  0.7174334359093653  1.0000
