data_image0
_chemical_formula_structural       Pd2AsO6
_chemical_formula_sum              "Pd2 As1 O6"
_cell_length_a       5.315326260520959
_cell_length_b       5.315326520331695
_cell_length_c       5.315326632881293
_cell_angle_alpha    60.00000455090292
_cell_angle_beta     60.00000221893254
_cell_angle_gamma    60.00000206432183

_space_group_name_H-M_alt    "P 1"
_space_group_IT_number       1

loop_
  _space_group_symop_operation_xyz
  'x, y, z'

loop_
  _atom_site_type_symbol
  _atom_site_label
  _atom_site_symmetry_multiplicity
  _atom_site_fract_x
  _atom_site_fract_y
  _atom_site_fract_z
  _atom_site_occupancy
  Pd  Pd1       1.0  0.24999897966750934  0.2499998682995808  0.2499987194707262  1.0000
  Pd  Pd2       1.0  0.7499965494174697  0.7499984274651667  0.7500059893428495  1.0000
  As  As1       1.0  8.790493244846539e-08  2.3041757834378918e-08  0.999999912543676  1.0000
  O   O1        1.0  0.24300526580392712  0.2430045677778668  0.7569955578106622  1.0000
  O   O2        1.0  0.7569957251486732  0.7569951473591373  0.2430031479818943  1.0000
  O   O3        1.0  0.7569961578484479  0.24300587599372508  0.24300341572757905  1.0000
  O   O4        1.0  0.24300537780314443  0.7569952746449883  0.7569950976579193  1.0000
  O   O5        1.0  0.24300656478540808  0.7569957620802658  0.2430028618587059  1.0000
  O   O6        1.0  0.7569952530634764  0.24300509592806704  0.7569952616594301  1.0000
