data_image0
_chemical_formula_structural       Pd2AsS6
_chemical_formula_sum              "Pd2 As1 S6"
_cell_length_a       6.156300048534199
_cell_length_b       6.156300246719689
_cell_length_c       6.156299931861962
_cell_angle_alpha    60.00000145466511
_cell_angle_beta     60.000000714020146
_cell_angle_gamma    60.00000084750209

_space_group_name_H-M_alt    "P 1"
_space_group_IT_number       1

loop_
  _space_group_symop_operation_xyz
  'x, y, z'

loop_
  _atom_site_type_symbol
  _atom_site_label
  _atom_site_symmetry_multiplicity
  _atom_site_fract_x
  _atom_site_fract_y
  _atom_site_fract_z
  _atom_site_occupancy
  Pd  Pd1       1.0  0.2500000376426875  0.2500007633527964  0.2500004266750113  1.0000
  Pd  Pd2       1.0  0.7500009307770261  0.7499993019540208  0.7500016325698519  1.0000
  As  As1       1.0  7.580253372454431e-08  0.9999999920423306  2.519635740243781e-07  1.0000
  S   S1        1.0  0.2651861102621518  0.26518715960997175  0.7348130444633393  1.0000
  S   S2        1.0  0.7348135975710142  0.7348131762575796  0.26518563246547117  1.0000
  S   S3        1.0  0.7348128606542017  0.26518717937366965  0.2651860401504482  1.0000
  S   S4        1.0  0.26518580580197726  0.7348130789066231  0.7348135844806862  1.0000
  S   S5        1.0  0.26518694856724895  0.7348129748847033  0.26518633606730685  1.0000
  S   S6        1.0  0.734813613475971  0.26518636826374753  0.7348129965072122  1.0000
