data_image0
_chemical_formula_structural       Pd2AsO6
_chemical_formula_sum              "Pd2 As1 O6"
_cell_length_a       5.314046272628645
_cell_length_b       5.314046843936367
_cell_length_c       5.3140463974609
_cell_angle_alpha    60.00000313459088
_cell_angle_beta     60.00000419088753
_cell_angle_gamma    60.000003756565626

_space_group_name_H-M_alt    "P 1"
_space_group_IT_number       1

loop_
  _space_group_symop_operation_xyz
  'x, y, z'

loop_
  _atom_site_type_symbol
  _atom_site_label
  _atom_site_symmetry_multiplicity
  _atom_site_fract_x
  _atom_site_fract_y
  _atom_site_fract_z
  _atom_site_occupancy
  Pd  Pd1       1.0  0.2500005034466959  0.25000023935051113  0.25000007735856256  1.0000
  Pd  Pd2       1.0  0.7500000272368325  0.7499998676058365  0.7500003205757418  1.0000
  As  As1       1.0  0.9999999590873121  1.843784664809231e-08  8.086421055836083e-08  1.0000
  O   O1        1.0  0.2430805727822252  0.2430808143475109  0.7569191642659877  1.0000
  O   O2        1.0  0.7569192057842078  0.7569193456176658  0.24308057645665423  1.0000
  O   O3        1.0  0.7569191081843392  0.2430808049380357  0.2430806658387576  1.0000
  O   O4        1.0  0.24308070407561772  0.7569192213527466  0.7569191079380738  1.0000
  O   O5        1.0  0.24308072440348993  0.7569189984561671  0.24308064896734777  1.0000
  O   O6        1.0  0.7569191856870331  0.2430807213053987  0.7569192762039411  1.0000
