data_image0
_chemical_formula_structural       Pd2BiS6
_chemical_formula_sum              "Pd2 Bi1 S6"
_cell_length_a       6.4232666081578245
_cell_length_b       6.423266469803213
_cell_length_c       6.423266667810295
_cell_angle_alpha    59.99999931792926
_cell_angle_beta     59.99999996633059
_cell_angle_gamma    60.00000026964039

_space_group_name_H-M_alt    "P 1"
_space_group_IT_number       1

loop_
  _space_group_symop_operation_xyz
  'x, y, z'

loop_
  _atom_site_type_symbol
  _atom_site_label
  _atom_site_symmetry_multiplicity
  _atom_site_fract_x
  _atom_site_fract_y
  _atom_site_fract_z
  _atom_site_occupancy
  Pd  Pd1       1.0  0.25000083212089086  0.24999927216814147  0.24999949380495648  1.0000
  Pd  Pd2       1.0  0.7500002338714119  0.7500002895360233  0.7499994939559919  1.0000
  Bi  Bi1       1.0  0.9999999731437839  0.9999999942798034  6.455025366744953e-08  1.0000
  S   S1        1.0  0.2683079410625566  0.26830814886411986  0.7316920033221299  1.0000
  S   S2        1.0  0.7316915055086041  0.7316923719263091  0.2683080338664459  1.0000
  S   S3        1.0  0.7316919656988569  0.26830781774070306  0.2683082993203748  1.0000
  S   S4        1.0  0.268308125798896  0.7316920032790283  0.7316919692363241  1.0000
  S   S5        1.0  0.26830789598983357  0.7316922250719059  0.2683081961211364  1.0000
  S   S6        1.0  0.7316915243858184  0.26830787814417933  0.7316924412645419  1.0000
