data_image0
_chemical_formula_structural       Pd2BiO6
_chemical_formula_sum              "Pd2 Bi1 O6"
_cell_length_a       5.734251191225648
_cell_length_b       5.734251358435979
_cell_length_c       5.734250984354689
_cell_angle_alpha    60.00000174795454
_cell_angle_beta     60.00000312200807
_cell_angle_gamma    60.00000173471691

_space_group_name_H-M_alt    "P 1"
_space_group_IT_number       1

loop_
  _space_group_symop_operation_xyz
  'x, y, z'

loop_
  _atom_site_type_symbol
  _atom_site_label
  _atom_site_symmetry_multiplicity
  _atom_site_fract_x
  _atom_site_fract_y
  _atom_site_fract_z
  _atom_site_occupancy
  Pd  Pd1       1.0  0.24999996329657045  0.2500002671636425  0.25000006165001826  1.0000
  Pd  Pd2       1.0  0.749999801664572  0.750000147923623  0.75000010068657  1.0000
  Bi  Bi1       1.0  7.220661894814056e-09  8.543363975933355e-09  0.9999999537520348  1.0000
  O   O1        1.0  0.2526941867594253  0.2526939409953262  0.7473058528118307  1.0000
  O   O2        1.0  0.7473059733634055  0.7473058504264047  0.25269411859297636  1.0000
  O   O3        1.0  0.7473058285130639  0.2526941845015982  0.2526939390045032  1.0000
  O   O4        1.0  0.25269416375794307  0.7473058205042219  0.7473059502413328  1.0000
  O   O5        1.0  0.2526940453090735  0.7473058691247801  0.25269408069955007  1.0000
  O   O6        1.0  0.7473060448022468  0.25269393297615605  0.7473058558468522  1.0000
