data_image0
_chemical_formula_structural       Pd2BS6
_chemical_formula_sum              "Pd2 B1 S6"
_cell_length_a       5.924447758475367
_cell_length_b       5.924447131275732
_cell_length_c       5.92444780523842
_cell_angle_alpha    60.00000305515107
_cell_angle_beta     60.00000488389023
_cell_angle_gamma    60.00000285817985

_space_group_name_H-M_alt    "P 1"
_space_group_IT_number       1

loop_
  _space_group_symop_operation_xyz
  'x, y, z'

loop_
  _atom_site_type_symbol
  _atom_site_label
  _atom_site_symmetry_multiplicity
  _atom_site_fract_x
  _atom_site_fract_y
  _atom_site_fract_z
  _atom_site_occupancy
  Pd  Pd1       1.0  0.24999869619807047  0.2500003236448217  0.2500002084137563  1.0000
  Pd  Pd2       1.0  0.7499998392628128  0.7500009337237857  0.7500010978434635  1.0000
  B   B1        1.0  8.280565474270755e-08  0.9999999503854624  1.1337436086299155e-07  1.0000
  S   S1        1.0  0.24061952266532782  0.2406188430209575  0.7593809156719968  1.0000
  S   S2        1.0  0.7593810902907453  0.7593805496675157  0.24061820803482187  1.0000
  S   S3        1.0  0.7593814578261174  0.2406189777907796  0.2406190859028016  1.0000
  S   S4        1.0  0.2406188184757955  0.759380489319552  0.7593809689947234  1.0000
  S   S5        1.0  0.24061921398093142  0.7593812510735866  0.24061896971726068  1.0000
  S   S6        1.0  0.7593812401092819  0.24061867083674948  0.7593804785637263  1.0000
