data_image0
_chemical_formula_structural       Pd2GaSe6
_chemical_formula_sum              "Pd2 Ga1 Se6"
_cell_length_a       6.370787270443731
_cell_length_b       6.370787330517838
_cell_length_c       6.370787149890852
_cell_angle_alpha    60.000002929914054
_cell_angle_beta     60.0000029185473
_cell_angle_gamma    60.00000267461021

_space_group_name_H-M_alt    "P 1"
_space_group_IT_number       1

loop_
  _space_group_symop_operation_xyz
  'x, y, z'

loop_
  _atom_site_type_symbol
  _atom_site_label
  _atom_site_symmetry_multiplicity
  _atom_site_fract_x
  _atom_site_fract_y
  _atom_site_fract_z
  _atom_site_occupancy
  Pd  Pd1       1.0  0.24999988992591843  0.25000007180980627  0.24999976274743085  1.0000
  Pd  Pd2       1.0  0.7499998641607377  0.7499998117172991  0.7500002970337528  1.0000
  Ga  Ga1       1.0  1.874687527330358e-08  3.07590194022169e-08  0.9999999454234233  1.0000
  Se  Se1       1.0  0.2847260864493851  0.2847262355650202  0.7152738937499112  1.0000
  Se  Se2       1.0  0.7152739365048967  0.7152738690425415  0.28472595558986385  1.0000
  Se  Se3       1.0  0.7152741008250573  0.2847261795866083  0.28472599624137723  1.0000
  Se  Se4       1.0  0.2847262022081155  0.7152737481565941  0.71527395217895  1.0000
  Se  Se5       1.0  0.28472613914944506  0.7152739074935436  0.2847261388320234  1.0000
  Se  Se6       1.0  0.7152737629364283  0.2847261355959813  0.715274044999007  1.0000
