data_image0
_chemical_formula_structural       Pd2GaO6
_chemical_formula_sum              "Pd2 Ga1 O6"
_cell_length_a       5.2649041916152
_cell_length_b       5.264904570571872
_cell_length_c       5.2649042947256905
_cell_angle_alpha    59.999998107200824
_cell_angle_beta     59.99999886148333
_cell_angle_gamma    60.00000079889228

_space_group_name_H-M_alt    "P 1"
_space_group_IT_number       1

loop_
  _space_group_symop_operation_xyz
  'x, y, z'

loop_
  _atom_site_type_symbol
  _atom_site_label
  _atom_site_symmetry_multiplicity
  _atom_site_fract_x
  _atom_site_fract_y
  _atom_site_fract_z
  _atom_site_occupancy
  Pd  Pd1       1.0  0.2499995742544433  0.25000080914558864  0.24999999475872442  1.0000
  Pd  Pd2       1.0  0.7500001227430797  0.7499993986680344  0.7500010076014153  1.0000
  Ga  Ga1       1.0  3.099375157200095e-08  0.999999946496404  3.9745469957683134e-08  1.0000
  O   O1        1.0  0.25535888116968575  0.2553592769761279  0.7446408285126599  1.0000
  O   O2        1.0  0.7446411948567944  0.7446407214756567  0.2553587537569844  1.0000
  O   O3        1.0  0.7446409839814658  0.2553594093465352  0.25535866761850384  1.0000
  O   O4        1.0  0.2553589469362157  0.7446407612472442  0.7446410511847492  1.0000
  O   O5        1.0  0.2553592957745617  0.7446406036573967  0.25535884029382533  1.0000
  O   O6        1.0  0.7446409949921498  0.25535905981535906  0.7446408058939658  1.0000
