data_image0
_chemical_formula_structural       Pd2GaS6
_chemical_formula_sum              "Pd2 Ga1 S6"
_cell_length_a       6.050298487423807
_cell_length_b       6.050298361905162
_cell_length_c       6.050298192461472
_cell_angle_alpha    60.00000076694388
_cell_angle_beta     60.00000117713615
_cell_angle_gamma    59.999998789803634

_space_group_name_H-M_alt    "P 1"
_space_group_IT_number       1

loop_
  _space_group_symop_operation_xyz
  'x, y, z'

loop_
  _atom_site_type_symbol
  _atom_site_label
  _atom_site_symmetry_multiplicity
  _atom_site_fract_x
  _atom_site_fract_y
  _atom_site_fract_z
  _atom_site_occupancy
  Pd  Pd1       1.0  0.2499996222257079  0.25000041677142965  0.24999972381444974  1.0000
  Pd  Pd2       1.0  0.7500001332351076  0.7499997179404693  0.7500003257885235  1.0000
  Ga  Ga1       1.0  0.999999963834373  2.833980664765745e-08  0.9999999956488548  1.0000
  S   S1        1.0  0.2652105557357423  0.2652104004710339  0.734789664091691  1.0000
  S   S2        1.0  0.7347896131424325  0.7347894386971667  0.26521022905859637  1.0000
  S   S3        1.0  0.7347896976656678  0.2652107450310962  0.2652102469886289  1.0000
  S   S4        1.0  0.2652102844074612  0.7347892823943905  0.734789820633515  1.0000
  S   S5        1.0  0.2652104587076128  0.7347893897569006  0.2652105682238592  1.0000
  S   S6        1.0  0.7347896727115985  0.2652105789646997  0.7347894243265868  1.0000
