data_image0
_chemical_formula_structural       Pd2GaS6
_chemical_formula_sum              "Pd2 Ga1 S6"
_cell_length_a       6.050484563185771
_cell_length_b       6.05048448757453
_cell_length_c       6.050484397906522
_cell_angle_alpha    59.99999923839312
_cell_angle_beta     60.00000135025028
_cell_angle_gamma    60.000001489480226

_space_group_name_H-M_alt    "P 1"
_space_group_IT_number       1

loop_
  _space_group_symop_operation_xyz
  'x, y, z'

loop_
  _atom_site_type_symbol
  _atom_site_label
  _atom_site_symmetry_multiplicity
  _atom_site_fract_x
  _atom_site_fract_y
  _atom_site_fract_z
  _atom_site_occupancy
  Pd  Pd1       1.0  0.2500001063499036  0.25000003410609456  0.25000001932544136  1.0000
  Pd  Pd2       1.0  0.75000012177243  0.7499997723721143  0.7500003761291393  1.0000
  Ga  Ga1       1.0  3.876473337673745e-09  0.999999896765309  1.4719196352557834e-07  1.0000
  S   S1        1.0  0.2652482650264114  0.2652484075115441  0.7347516426297335  1.0000
  S   S2        1.0  0.7347517627820332  0.7347516621139178  0.26524812971999856  1.0000
  S   S3        1.0  0.7347515437345122  0.26524851016112555  0.2652481259808837  1.0000
  S   S4        1.0  0.2652482435703848  0.7347516282874583  0.7347516842790129  1.0000
  S   S5        1.0  0.26524834773372985  0.7347516701542323  0.26524823547095167  1.0000
  S   S6        1.0  0.7347516033896947  0.2652484176891133  0.7347516371810383  1.0000
