data_image0
_chemical_formula_structural       Pd2IrS6
_chemical_formula_sum              "Pd2 Ir1 S6"
_cell_length_a       6.049026139765158
_cell_length_b       6.049026153191267
_cell_length_c       6.049027024010891
_cell_angle_alpha    59.999996108965036
_cell_angle_beta     59.999995602317746
_cell_angle_gamma    59.99999840319286

_space_group_name_H-M_alt    "P 1"
_space_group_IT_number       1

loop_
  _space_group_symop_operation_xyz
  'x, y, z'

loop_
  _atom_site_type_symbol
  _atom_site_label
  _atom_site_symmetry_multiplicity
  _atom_site_fract_x
  _atom_site_fract_y
  _atom_site_fract_z
  _atom_site_occupancy
  Pd  Pd1       1.0  0.2499996207998021  0.24999989356743496  0.25000042515238674  1.0000
  Pd  Pd2       1.0  0.7500001740804707  0.7500000006045475  0.7499999521458761  1.0000
  Ir  Ir1       1.0  0.9999999539547327  1.2148185899632411e-08  7.150276871768145e-08  1.0000
  S   S1        1.0  0.2650388153922248  0.26503881557481607  0.7349611120833374  1.0000
  S   S2        1.0  0.7349612086126353  0.7349611757826549  0.2650388044913721  1.0000
  S   S3        1.0  0.7349613640806106  0.26503879693820637  0.2650387260456074  1.0000
  S   S4        1.0  0.2650387374349182  0.7349613341234039  0.7349610356332633  1.0000
  S   S5        1.0  0.2650386988977844  0.7349611743586227  0.26503887146538363  1.0000
  S   S6        1.0  0.7349614127049048  0.2650387947271748  0.7349610256715157  1.0000
