data_image0
_chemical_formula_structural       Pd2IrO6
_chemical_formula_sum              "Pd2 Ir1 O6"
_cell_length_a       5.3099499140068565
_cell_length_b       5.309949928856117
_cell_length_c       5.309949974823205
_cell_angle_alpha    60.00000211973481
_cell_angle_beta     60.00000113530577
_cell_angle_gamma    59.99999985215746

_space_group_name_H-M_alt    "P 1"
_space_group_IT_number       1

loop_
  _space_group_symop_operation_xyz
  'x, y, z'

loop_
  _atom_site_type_symbol
  _atom_site_label
  _atom_site_symmetry_multiplicity
  _atom_site_fract_x
  _atom_site_fract_y
  _atom_site_fract_z
  _atom_site_occupancy
  Pd  Pd1       1.0  0.25000005525228697  0.24999962855439153  0.2500002676868578  1.0000
  Pd  Pd2       1.0  0.7499999678037591  0.7500001058065346  0.7499991977931973  1.0000
  Ir  Ir1       1.0  0.9999999827124963  3.229112932275727e-08  0.9999999868484168  1.0000
  O   O1        1.0  0.2512435365121235  0.2512431107260423  0.748756660317204  1.0000
  O   O2        1.0  0.7487563523932872  0.7487570065154384  0.25124364879195044  1.0000
  O   O3        1.0  0.7487568785096742  0.25124305340111514  0.2512435558612713  1.0000
  O   O4        1.0  0.251243338895798  0.7487568285764165  0.7487565842181271  1.0000
  O   O5        1.0  0.2512430413351706  0.7487565502977314  0.2512435975258123  1.0000
  O   O6        1.0  0.7487568567510101  0.2512436176869484  0.7487565083617225  1.0000
