data_image0
_chemical_formula_structural       Pd2IrSe6
_chemical_formula_sum              "Pd2 Ir1 Se6"
_cell_length_a       6.322326884078204
_cell_length_b       6.32232612831845
_cell_length_c       6.322325831208004
_cell_angle_alpha    59.99999615778932
_cell_angle_beta     60.00000038080763
_cell_angle_gamma    59.99999624535153

_space_group_name_H-M_alt    "P 1"
_space_group_IT_number       1

loop_
  _space_group_symop_operation_xyz
  'x, y, z'

loop_
  _atom_site_type_symbol
  _atom_site_label
  _atom_site_symmetry_multiplicity
  _atom_site_fract_x
  _atom_site_fract_y
  _atom_site_fract_z
  _atom_site_occupancy
  Pd  Pd1       1.0  0.24999953722054077  0.2499999190613603  0.25000029853832406  1.0000
  Pd  Pd2       1.0  0.7500002045987647  0.7499999315297979  0.7499999218167791  1.0000
  Ir  Ir1       1.0  5.68014983419722e-08  5.42408816144311e-08  1.0106674910094387e-07  1.0000
  Se  Se1       1.0  0.277451859108672  0.27745191485164017  0.722548133465771  1.0000
  Se  Se2       1.0  0.7225481157504566  0.7225479105562482  0.27745199877801147  1.0000
  Se  Se3       1.0  0.7225483068017584  0.2774519536164199  0.27745187600555155  1.0000
  Se  Se4       1.0  0.277451896646622  0.7225481120011228  0.7225478589240303  1.0000
  Se  Se5       1.0  0.2774518572695787  0.7225481073606631  0.2774520008518406  1.0000
  Se  Se6       1.0  0.7225481571177611  0.27745210354496963  0.722547823977163  1.0000
