data_image0
_chemical_formula_structural       Pd2MoS6
_chemical_formula_sum              "Pd2 Mo1 S6"
_cell_length_a       6.145078720032241
_cell_length_b       6.145079054488621
_cell_length_c       6.145079251020711
_cell_angle_alpha    59.999998390501304
_cell_angle_beta     60.00000214736847
_cell_angle_gamma    59.99999576643082

_space_group_name_H-M_alt    "P 1"
_space_group_IT_number       1

loop_
  _space_group_symop_operation_xyz
  'x, y, z'

loop_
  _atom_site_type_symbol
  _atom_site_label
  _atom_site_symmetry_multiplicity
  _atom_site_fract_x
  _atom_site_fract_y
  _atom_site_fract_z
  _atom_site_occupancy
  Pd  Pd1       1.0  0.24999964624066678  0.24999959357633433  0.25000013700341794  1.0000
  Pd  Pd2       1.0  0.7499999619980222  0.749999809142669  0.7500001939426458  1.0000
  Mo  Mo1       1.0  2.087812725475075e-08  2.1923549470926883e-08  0.9999999053698383  1.0000
  S   S1        1.0  0.26344017329450925  0.2634399094910505  0.7365600112468064  1.0000
  S   S2        1.0  0.736559885151042  0.7365600592540896  0.26344008009029385  1.0000
  S   S3        1.0  0.7365600710840907  0.2634401892643848  0.2634399220763396  1.0000
  S   S4        1.0  0.26343986595468694  0.736560233896138  0.7365599034900326  1.0000
  S   S5        1.0  0.26344011054618555  0.7365603135672406  0.2634399505086742  1.0000
  S   S6        1.0  0.7365602475401767  0.2634398724203201  0.7365599165605052  1.0000
