data_image0
_chemical_formula_structural       Pd2NO6
_chemical_formula_sum              "Pd2 N1 O6"
_cell_length_a       2.7966322039985743
_cell_length_b       3.1745651961029457
_cell_length_c       3.155989087839429
_cell_angle_alpha    63.77764546120252
_cell_angle_beta     51.2816504432631
_cell_angle_gamma    63.1499171898256

_space_group_name_H-M_alt    "P 1"
_space_group_IT_number       1

loop_
  _space_group_symop_operation_xyz
  'x, y, z'

loop_
  _atom_site_type_symbol
  _atom_site_label
  _atom_site_symmetry_multiplicity
  _atom_site_fract_x
  _atom_site_fract_y
  _atom_site_fract_z
  _atom_site_occupancy
  Pd  Pd1       1.0  0.14489795471693395  0.05296434850090481  0.864510958905401  1.0000
  Pd  Pd2       1.0  0.12438573665847663  0.37061378544702817  0.8918222647873129  1.0000
  N   N1        1.0  0.25130302912225866  0.05285623238716447  0.3921634566484056  1.0000
  O   O1        1.0  0.5000324488268618  0.5898466919691694  0.43503704824733125  1.0000
  O   O2        1.0  0.1655821150019925  0.7295654120412421  0.3262909694399249  1.0000
  O   O3        1.0  0.9366231656799493  0.667036971470997  0.08667565157014039  1.0000
  O   O4        1.0  0.4253370008173311  0.3385837992482732  0.23173238382274253  1.0000
  O   O5        1.0  0.25249476551544126  0.39344503365303823  0.7421833498715591  1.0000
  O   O6        1.0  0.7645397758808362  0.6409526799394599  0.4862181693882968  1.0000
