data_image0
_chemical_formula_structural       Pd2NO6
_chemical_formula_sum              "Pd2 N1 O6"
_cell_length_a       5.061063467973532
_cell_length_b       5.061062559939292
_cell_length_c       5.061062896666954
_cell_angle_alpha    60.000016869506965
_cell_angle_beta     60.00001643758762
_cell_angle_gamma    60.00001935426711

_space_group_name_H-M_alt    "P 1"
_space_group_IT_number       1

loop_
  _space_group_symop_operation_xyz
  'x, y, z'

loop_
  _atom_site_type_symbol
  _atom_site_label
  _atom_site_symmetry_multiplicity
  _atom_site_fract_x
  _atom_site_fract_y
  _atom_site_fract_z
  _atom_site_occupancy
  Pd  Pd1       1.0  0.24999504246590082  0.24999910523405208  0.2500217908618049  1.0000
  Pd  Pd2       1.0  0.7499979659141808  0.7500007302274305  0.750023136630454  1.0000
  N   N1        1.0  1.0463745769879258e-06  0.9999998451224131  0.999988679065654  1.0000
  O   O1        1.0  0.2243171769513493  0.22431578811755823  0.7756746410591007  1.0000
  O   O2        1.0  0.7756844555591706  0.7756830140223441  0.22430648979919243  1.0000
  O   O3        1.0  0.7756786973204731  0.22432312205477892  0.22431330560073054  1.0000
  O   O4        1.0  0.2243106393259136  0.7756903158574479  0.7756801425898523  1.0000
  O   O5        1.0  0.22432400320890544  0.775677562024228  0.22431257006062721  1.0000
  O   O6        1.0  0.7756909123161188  0.2243104738250951  0.7756794125398163  1.0000
