data_image0
_chemical_formula_structural       Pd2PO6
_chemical_formula_sum              "Pd2 P1 O6"
_cell_length_a       5.18906111467487
_cell_length_b       5.189060760895584
_cell_length_c       5.189061079872883
_cell_angle_alpha    59.99999838707838
_cell_angle_beta     60.000004913235095
_cell_angle_gamma    59.999997020237956

_space_group_name_H-M_alt    "P 1"
_space_group_IT_number       1

loop_
  _space_group_symop_operation_xyz
  'x, y, z'

loop_
  _atom_site_type_symbol
  _atom_site_label
  _atom_site_symmetry_multiplicity
  _atom_site_fract_x
  _atom_site_fract_y
  _atom_site_fract_z
  _atom_site_occupancy
  Pd  Pd1       1.0  0.2500000853423741  0.25000064203206634  0.24999932415247064  1.0000
  Pd  Pd2       1.0  0.7499999164203126  0.7499990796420114  0.7499999990923443  1.0000
  P   P1        1.0  5.0957304425010734e-08  0.9999999339131704  0.9999998668842077  1.0000
  O   O1        1.0  0.23170180374347252  0.23170239400345594  0.7682981702650893  1.0000
  O   O2        1.0  0.7682980000095775  0.7682977147506146  0.23170238816486946  1.0000
  O   O3        1.0  0.7682978072412908  0.23170248054860815  0.23170177996531127  1.0000
  O   O4        1.0  0.23170240584756843  0.7682975951620442  0.7682981567140118  1.0000
  O   O5        1.0  0.23170198620079768  0.7682976965262913  0.23170216346072744  1.0000
  O   O6        1.0  0.7682976922164859  0.23170252787973786  0.7682981569926365  1.0000
