data_image0
_chemical_formula_structural       Pd2PS6
_chemical_formula_sum              "Pd2 P1 S6"
_cell_length_a       6.112682565830487
_cell_length_b       6.112682234849831
_cell_length_c       6.1126826011509445
_cell_angle_alpha    60.00000023735539
_cell_angle_beta     60.0000023250096
_cell_angle_gamma    60.00000083154763

_space_group_name_H-M_alt    "P 1"
_space_group_IT_number       1

loop_
  _space_group_symop_operation_xyz
  'x, y, z'

loop_
  _atom_site_type_symbol
  _atom_site_label
  _atom_site_symmetry_multiplicity
  _atom_site_fract_x
  _atom_site_fract_y
  _atom_site_fract_z
  _atom_site_occupancy
  Pd  Pd1       1.0  0.24999977268802065  0.2500006137182318  0.2499994606508219  1.0000
  Pd  Pd2       1.0  0.7500000457260508  0.7499992444724627  0.750000940953906  1.0000
  P   P1        1.0  0.9999999652347665  0.9999999739530324  3.858581418021953e-08  1.0000
  S   S1        1.0  0.24999933064127627  0.2499999944147091  0.7500004623833622  1.0000
  S   S2        1.0  0.7500006834651186  0.7500000360866826  0.24999902558930717  1.0000
  S   S3        1.0  0.7500003770710956  0.25000002346849654  0.24999932726172436  1.0000
  S   S4        1.0  0.24999987934774062  0.7499998808052978  0.7500007014236445  1.0000
  S   S5        1.0  0.2499997973753604  0.7500002757041658  0.24999962892649827  1.0000
  S   S6        1.0  0.7500001461659064  0.24999995515852125  0.7500004321658393  1.0000
