data_image0
_chemical_formula_structural       Pd2PSe6
_chemical_formula_sum              "Pd2 P1 Se6"
_cell_length_a       6.272092091159756
_cell_length_b       6.2720918015992755
_cell_length_c       6.272091989246562
_cell_angle_alpha    59.99999797357471
_cell_angle_beta     59.999998431060654
_cell_angle_gamma    59.99999929372378

_space_group_name_H-M_alt    "P 1"
_space_group_IT_number       1

loop_
  _space_group_symop_operation_xyz
  'x, y, z'

loop_
  _atom_site_type_symbol
  _atom_site_label
  _atom_site_symmetry_multiplicity
  _atom_site_fract_x
  _atom_site_fract_y
  _atom_site_fract_z
  _atom_site_occupancy
  Pd  Pd1       1.0  0.24999981423030207  0.24999993353569205  0.2500001290074028  1.0000
  Pd  Pd2       1.0  0.7500000630133211  0.750000159901987  0.7500001491231034  1.0000
  P   P1        1.0  0.9999999684794191  1.1716137467662505e-08  5.773315329316932e-08  1.0000
  Se  Se1       1.0  0.25883665045939597  0.2588365633875747  0.7411633583495001  1.0000
  Se  Se2       1.0  0.7411633808359469  0.7411634324156242  0.25883641007434466  1.0000
  Se  Se3       1.0  0.7411634994918582  0.2588365911123967  0.2588366891456781  1.0000
  Se  Se4       1.0  0.25883647246350605  0.7411633949273516  0.7411634199478414  1.0000
  Se  Se5       1.0  0.25883668880503435  0.741163433858001  0.2588365191734289  1.0000
  Se  Se6       1.0  0.741163471846271  0.2588364721214741  0.7411632852870481  1.0000
