data_image0
_chemical_formula_structural       Pd2RhSe6
_chemical_formula_sum              "Pd2 Rh1 Se6"
_cell_length_a       6.294626293394904
_cell_length_b       6.294626478541946
_cell_length_c       6.294626051692123
_cell_angle_alpha    60.00000110235359
_cell_angle_beta     60.00000103564173
_cell_angle_gamma    60.000000751672495

_space_group_name_H-M_alt    "P 1"
_space_group_IT_number       1

loop_
  _space_group_symop_operation_xyz
  'x, y, z'

loop_
  _atom_site_type_symbol
  _atom_site_label
  _atom_site_symmetry_multiplicity
  _atom_site_fract_x
  _atom_site_fract_y
  _atom_site_fract_z
  _atom_site_occupancy
  Pd  Pd1       1.0  0.25000005122984603  0.2499999155563907  0.24999996700844515  1.0000
  Pd  Pd2       1.0  0.7499999865437886  0.7500003031390955  0.7499993997524964  1.0000
  Rh  Rh1       1.0  0.9999999909391629  0.9999999941629028  2.6512847891131347e-08  1.0000
  Se  Se1       1.0  0.2783781935374239  0.27837802683663243  0.7216218517000712  1.0000
  Se  Se2       1.0  0.7216218232088095  0.7216219797776524  0.2783783433333858  1.0000
  Se  Se3       1.0  0.7216218636535883  0.2783779532654693  0.2783784187998972  1.0000
  Se  Se4       1.0  0.27837812383734134  0.7216218879643996  0.7216218465462569  1.0000
  Se  Se5       1.0  0.2783780989811017  0.7216218115845826  0.2783782752099717  1.0000
  Se  Se6       1.0  0.7216218618995155  0.2783781424958305  0.7216218659945726  1.0000
