data_image0
_chemical_formula_structural       Pd2RuS6
_chemical_formula_sum              "Pd2 Ru1 S6"
_cell_length_a       5.964872709300542
_cell_length_b       5.9648721608977935
_cell_length_c       5.964872617397683
_cell_angle_alpha    60.00000049084979
_cell_angle_beta     59.999996554679775
_cell_angle_gamma    59.9999973949607

_space_group_name_H-M_alt    "P 1"
_space_group_IT_number       1

loop_
  _space_group_symop_operation_xyz
  'x, y, z'

loop_
  _atom_site_type_symbol
  _atom_site_label
  _atom_site_symmetry_multiplicity
  _atom_site_fract_x
  _atom_site_fract_y
  _atom_site_fract_z
  _atom_site_occupancy
  Pd  Pd1       1.0  0.2499993793896315  0.2500008076611675  0.24999996360778554  1.0000
  Pd  Pd2       1.0  0.7499990748215728  0.750001152013927  0.7499993689477544  1.0000
  Ru  Ru1       1.0  0.9999994703624635  1.2114249089248987e-06  0.9999993657220535  1.0000
  S   S1        1.0  0.2674393416765521  0.2674382138064566  0.7325612861927804  1.0000
  S   S2        1.0  0.7325615096963766  0.7325607357857288  0.2674392732116851  1.0000
  S   S3        1.0  0.7325612920804111  0.26743825176325337  0.26743919944525707  1.0000
  S   S4        1.0  0.26743927184960536  0.7325607471072314  0.7325613801291019  1.0000
  S   S5        1.0  0.2674391607894606  0.7325605435320977  0.26743893584952416  1.0000
  S   S6        1.0  0.7325615725378964  0.26743833624913455  0.7325611759796048  1.0000
