data_image0
_chemical_formula_structural       Pd2RhS6
_chemical_formula_sum              "Pd2 Rh1 S6"
_cell_length_a       6.040133049871716
_cell_length_b       6.040133292630023
_cell_length_c       6.040132640334271
_cell_angle_alpha    60.00000306184873
_cell_angle_beta     60.00000148047874
_cell_angle_gamma    60.00000184782576

_space_group_name_H-M_alt    "P 1"
_space_group_IT_number       1

loop_
  _space_group_symop_operation_xyz
  'x, y, z'

loop_
  _atom_site_type_symbol
  _atom_site_label
  _atom_site_symmetry_multiplicity
  _atom_site_fract_x
  _atom_site_fract_y
  _atom_site_fract_z
  _atom_site_occupancy
  Pd  Pd1       1.0  0.24999994453890426  0.24999969892155402  0.25000020894884495  1.0000
  Pd  Pd2       1.0  0.750000212138873  0.7500000659949723  0.749999777477459  1.0000
  Rh  Rh1       1.0  0.9999999815587556  0.9999999979723216  2.182361101144987e-08  1.0000
  S   S1        1.0  0.26456078232956104  0.2645608012210417  0.735439194035014  1.0000
  S   S2        1.0  0.7354390417231026  0.735439330705291  0.2645608397670626  1.0000
  S   S3        1.0  0.7354392283330213  0.26456070951359467  0.2645609493917469  1.0000
  S   S4        1.0  0.2645607952535542  0.7354393514439901  0.7354389837047057  1.0000
  S   S5        1.0  0.2645607272773146  0.7354392737332521  0.26456095181793227  1.0000
  S   S6        1.0  0.7354392740445886  0.2645607851966541  0.7354390546816287  1.0000
