data_image0
_chemical_formula_structural       Pd2RuSe6
_chemical_formula_sum              "Pd2 Ru1 Se6"
_cell_length_a       6.2604806758187035
_cell_length_b       6.260480616871607
_cell_length_c       6.26048103872851
_cell_angle_alpha    59.99999760073656
_cell_angle_beta     59.99999703702073
_cell_angle_gamma    59.999993050931536

_space_group_name_H-M_alt    "P 1"
_space_group_IT_number       1

loop_
  _space_group_symop_operation_xyz
  'x, y, z'

loop_
  _atom_site_type_symbol
  _atom_site_label
  _atom_site_symmetry_multiplicity
  _atom_site_fract_x
  _atom_site_fract_y
  _atom_site_fract_z
  _atom_site_occupancy
  Pd  Pd1       1.0  0.2500000848447641  0.25000022355613294  0.24999982922845218  1.0000
  Pd  Pd2       1.0  0.7499995083724416  0.749999982046849  0.7500003136949149  1.0000
  Ru  Ru1       1.0  0.9999999175793556  0.9999999373980418  9.008183687695928e-08  1.0000
  Se  Se1       1.0  0.2749925170753127  0.2749922335746061  0.7250075888080285  1.0000
  Se  Se2       1.0  0.725007687398967  0.7250076101107416  0.27499230325722795  1.0000
  Se  Se3       1.0  0.7250075235122713  0.2749925807584991  0.2749922722420806  1.0000
  Se  Se4       1.0  0.2749926159945828  0.7250074135628262  0.7250077255397857  1.0000
  Se  Se5       1.0  0.27499263240205485  0.7250074615612582  0.2749922100901673  1.0000
  Se  Se6       1.0  0.7250075109982258  0.2749925542794915  0.7250076615754577  1.0000
