data_image0
_chemical_formula_structural       Pd2SbO6
_chemical_formula_sum              "Pd2 Sb1 O6"
_cell_length_a       5.389993346648666
_cell_length_b       5.38999296261545
_cell_length_c       5.389993266386635
_cell_angle_alpha    59.9999999657856
_cell_angle_beta     59.99999813978726
_cell_angle_gamma    59.99999769046916

_space_group_name_H-M_alt    "P 1"
_space_group_IT_number       1

loop_
  _space_group_symop_operation_xyz
  'x, y, z'

loop_
  _atom_site_type_symbol
  _atom_site_label
  _atom_site_symmetry_multiplicity
  _atom_site_fract_x
  _atom_site_fract_y
  _atom_site_fract_z
  _atom_site_occupancy
  Pd  Pd1       1.0  0.24999969624044183  0.25000060893717857  0.24999984026531336  1.0000
  Pd  Pd2       1.0  0.7500000486158019  0.7499998340421762  0.7499991170095529  1.0000
  Sb  Sb1       1.0  1.865327096681381e-08  0.9999999954554869  2.2630258889970527e-08  1.0000
  O   O1        1.0  0.2608297545246702  0.26082993658091347  0.7391701782060153  1.0000
  O   O2        1.0  0.7391704058831544  0.7391699474232748  0.2608302329715945  1.0000
  O   O3        1.0  0.7391702386924877  0.2608296251952721  0.2608299533503809  1.0000
  O   O4        1.0  0.26083003913375147  0.7391700929341555  0.7391703429086562  1.0000
  O   O5        1.0  0.2608297200946837  0.7391699015214599  0.26083007662060204  1.0000
  O   O6        1.0  0.7391701813096454  0.2608300461059178  0.73917020775709  1.0000
