data_image0
_chemical_formula_structural       Pd2TaS6
_chemical_formula_sum              "Pd2 Ta1 S6"
_cell_length_a       6.141786511480462
_cell_length_b       6.141786346953993
_cell_length_c       6.141786179053075
_cell_angle_alpha    59.999998632095206
_cell_angle_beta     59.99999779609833
_cell_angle_gamma    59.999998843978304

_space_group_name_H-M_alt    "P 1"
_space_group_IT_number       1

loop_
  _space_group_symop_operation_xyz
  'x, y, z'

loop_
  _atom_site_type_symbol
  _atom_site_label
  _atom_site_symmetry_multiplicity
  _atom_site_fract_x
  _atom_site_fract_y
  _atom_site_fract_z
  _atom_site_occupancy
  Pd  Pd1       1.0  0.2500000487693989  0.24999987005413932  0.24999991159566298  1.0000
  Pd  Pd2       1.0  0.7499998388819177  0.7499999571390129  0.7499995049752155  1.0000
  Ta  Ta1       1.0  3.779713257215081e-09  0.9999999660999881  2.0346230689936727e-09  1.0000
  S   S1        1.0  0.27055874728912915  0.2705586786660525  0.7294412727348248  1.0000
  S   S2        1.0  0.7294411477063364  0.7294414536271976  0.2705590019768184  1.0000
  S   S3        1.0  0.7294413660211473  0.2705585572434679  0.2705588283112131  1.0000
  S   S4        1.0  0.2705589855127934  0.7294413616791201  0.7294412759707883  1.0000
  S   S5        1.0  0.2705585189642136  0.7294413446376968  0.2705588657431432  1.0000
  S   S6        1.0  0.7294413579897118  0.27055881357909267  0.7294413154770045  1.0000
