data_image0
_chemical_formula_structural       Pd2TaSe6
_chemical_formula_sum              "Pd2 Ta1 Se6"
_cell_length_a       6.435280079652813
_cell_length_b       6.435279580996208
_cell_length_c       6.4352797982774455
_cell_angle_alpha    60.000000255268475
_cell_angle_beta     60.00000129396512
_cell_angle_gamma    59.999998597423776

_space_group_name_H-M_alt    "P 1"
_space_group_IT_number       1

loop_
  _space_group_symop_operation_xyz
  'x, y, z'

loop_
  _atom_site_type_symbol
  _atom_site_label
  _atom_site_symmetry_multiplicity
  _atom_site_fract_x
  _atom_site_fract_y
  _atom_site_fract_z
  _atom_site_occupancy
  Pd  Pd1       1.0  0.25000056984369323  0.25000004092487343  0.24999954476861744  1.0000
  Pd  Pd2       1.0  0.7499999170563293  0.7499998372987247  0.7500002777614958  1.0000
  Ta  Ta1       1.0  0.9999999754764426  6.280470142392804e-08  0.9999999824133626  1.0000
  Se  Se1       1.0  0.273403161736003  0.273403274918657  0.7265967595977353  1.0000
  Se  Se2       1.0  0.7265966338530028  0.7265969116189305  0.27340310991503475  1.0000
  Se  Se3       1.0  0.7265966923890316  0.2734033012323156  0.2734030049037299  1.0000
  Se  Se4       1.0  0.273403280244649  0.7265966340864666  0.7265969452062541  1.0000
  Se  Se5       1.0  0.2734032450963636  0.7265967523852997  0.27340325371685487  1.0000
  Se  Se6       1.0  0.7265965095715088  0.27340319625569814  0.7265971265949972  1.0000
