data_image0
_chemical_formula_structural       Pd2TaO6
_chemical_formula_sum              "Pd2 Ta1 O6"
_cell_length_a       5.350580404040251
_cell_length_b       5.350580206735459
_cell_length_c       5.350580276174202
_cell_angle_alpha    59.99999979591195
_cell_angle_beta     59.99999994089417
_cell_angle_gamma    59.9999989459613

_space_group_name_H-M_alt    "P 1"
_space_group_IT_number       1

loop_
  _space_group_symop_operation_xyz
  'x, y, z'

loop_
  _atom_site_type_symbol
  _atom_site_label
  _atom_site_symmetry_multiplicity
  _atom_site_fract_x
  _atom_site_fract_y
  _atom_site_fract_z
  _atom_site_occupancy
  Pd  Pd1       1.0  0.24999992511389568  0.25000008151858283  0.2500000052062949  1.0000
  Pd  Pd2       1.0  0.7500000537647816  0.7499997524219247  0.7500002308737043  1.0000
  Ta  Ta1       1.0  1.1575883030188198e-08  0.9999999587980982  0.9999999811717982  1.0000
  O   O1        1.0  0.2609551596905131  0.2609553266183738  0.7390447301637378  1.0000
  O   O2        1.0  0.7390447947683666  0.7390448071804161  0.26095519251514  1.0000
  O   O3        1.0  0.7390448001628077  0.26095535319693974  0.260955166831906  1.0000
  O   O4        1.0  0.26095520650529397  0.7390447210879924  0.7390447968784127  1.0000
  O   O5        1.0  0.26095526141471376  0.7390447045984947  0.2609551971063454  1.0000
  O   O6        1.0  0.7390447600121741  0.2609553124615736  0.7390447018650281  1.0000
