data_image0
_chemical_formula_structural       Pt2AsN6
_chemical_formula_sum              "Pt2 As1 N6"
_cell_length_a       4.626158148187333
_cell_length_b       2.6074762262478828
_cell_length_c       1.863586131690391
_cell_angle_alpha    43.88659288281127
_cell_angle_beta     92.88530496489282
_cell_angle_gamma    88.43667450434576

_space_group_name_H-M_alt    "P 1"
_space_group_IT_number       1

loop_
  _space_group_symop_operation_xyz
  'x, y, z'

loop_
  _atom_site_type_symbol
  _atom_site_label
  _atom_site_symmetry_multiplicity
  _atom_site_fract_x
  _atom_site_fract_y
  _atom_site_fract_z
  _atom_site_occupancy
  Pt  Pt1       1.0  0.4805903212317254  0.7489459455691221  0.99242524218928  1.0000
  Pt  Pt2       1.0  0.5385155155227144  0.847859504572533  0.5202390119442206  1.0000
  As  As1       1.0  0.47666620375691504  0.8381054714383323  0.7086296713750999  1.0000
  N   N1        1.0  0.7627097299967603  0.5016325673987205  0.3457881995894556  1.0000
  N   N2        1.0  0.7984359594015429  0.9312900420210484  0.8859004517858573  1.0000
  N   N3        1.0  0.45247128385545593  0.7629016009638359  0.7044673516779756  1.0000
  N   N4        1.0  0.21031591873098862  0.16220658623335255  0.5134543795006785  1.0000
  N   N5        1.0  0.31385922743410694  0.7828310591787393  0.2690778756951767  1.0000
  N   N6        1.0  0.5170677173527068  0.5720959821698021  0.6384822921341192  1.0000
