data_image0
_chemical_formula_structural       Pt2AsO6
_chemical_formula_sum              "Pt2 As1 O6"
_cell_length_a       5.213016236746045
_cell_length_b       5.213016419785453
_cell_length_c       5.2130160420688245
_cell_angle_alpha    59.999999772992666
_cell_angle_beta     60.00000099250451
_cell_angle_gamma    60.00000097064246

_space_group_name_H-M_alt    "P 1"
_space_group_IT_number       1

loop_
  _space_group_symop_operation_xyz
  'x, y, z'

loop_
  _atom_site_type_symbol
  _atom_site_label
  _atom_site_symmetry_multiplicity
  _atom_site_fract_x
  _atom_site_fract_y
  _atom_site_fract_z
  _atom_site_occupancy
  Pt  Pt1       1.0  0.25000017730681656  0.25000029837302123  0.24999988506984722  1.0000
  Pt  Pt2       1.0  0.7500001782297302  0.7499996569865083  0.7499996166714414  1.0000
  As  As1       1.0  2.887526266167052e-07  4.228915845879203e-07  0.999999617322031  1.0000
  O   O1        1.0  0.24422255525104983  0.2442227179898874  0.7557773596098692  1.0000
  O   O2        1.0  0.755776920541142  0.755776985984066  0.24422343088618606  1.0000
  O   O3        1.0  0.7557771044917071  0.24422276726291395  0.24422278590500549  1.0000
  O   O4        1.0  0.24422277317723035  0.7557773126146822  0.7557771898437269  1.0000
  O   O5        1.0  0.2442226676950667  0.7557769749515836  0.24422291619143097  1.0000
  O   O6        1.0  0.755777220469429  0.24422298040793117  0.7557772700305909  1.0000
