data_image0
_chemical_formula_structural       Pt2BS6
_chemical_formula_sum              "Pt2 B1 S6"
_cell_length_a       5.7613911374432005
_cell_length_b       5.7613904047541755
_cell_length_c       5.761391776966248
_cell_angle_alpha    59.999999435006096
_cell_angle_beta     60.00000203584155
_cell_angle_gamma    59.99999734565581

_space_group_name_H-M_alt    "P 1"
_space_group_IT_number       1

loop_
  _space_group_symop_operation_xyz
  'x, y, z'

loop_
  _atom_site_type_symbol
  _atom_site_label
  _atom_site_symmetry_multiplicity
  _atom_site_fract_x
  _atom_site_fract_y
  _atom_site_fract_z
  _atom_site_occupancy
  Pt  Pt1       1.0  0.25000165300456995  0.25000031385121596  0.2499984426242683  1.0000
  Pt  Pt2       1.0  0.7500011322524296  0.7499989475720685  0.7500002655318879  1.0000
  B   B1        1.0  0.9999998491185133  0.9999999596101721  0.9999999793443034  1.0000
  S   S1        1.0  0.2524579719355496  0.2524588368213474  0.7475417286053743  1.0000
  S   S2        1.0  0.7475411807507417  0.7475416660575546  0.25245844587614735  1.0000
  S   S3        1.0  0.7475411060216662  0.25245867579845643  0.2524584878987621  1.0000
  S   S4        1.0  0.2524580041180773  0.7475413955470872  0.7475419357725289  1.0000
  S   S5        1.0  0.25245822100515775  0.7475415012275478  0.25245858965770035  1.0000
  S   S6        1.0  0.7475408804473169  0.25245871041950163  0.7475420841023727  1.0000
