data_image0
_chemical_formula_structural       Pt2BiO6
_chemical_formula_sum              "Pt2 Bi1 O6"
_cell_length_a       5.671527368183051
_cell_length_b       5.671527272640468
_cell_length_c       5.671527089087361
_cell_angle_alpha    59.999996713957216
_cell_angle_beta     59.999997226813925
_cell_angle_gamma    59.999998105623625

_space_group_name_H-M_alt    "P 1"
_space_group_IT_number       1

loop_
  _space_group_symop_operation_xyz
  'x, y, z'

loop_
  _atom_site_type_symbol
  _atom_site_label
  _atom_site_symmetry_multiplicity
  _atom_site_fract_x
  _atom_site_fract_y
  _atom_site_fract_z
  _atom_site_occupancy
  Pt  Pt1       1.0  0.24999982314678457  0.24999975884605397  0.2500004631877413  1.0000
  Pt  Pt2       1.0  0.749999726122702  0.7500000517851055  0.750001201552545  1.0000
  Bi  Bi1       1.0  8.267341011902778e-09  0.9999999935216106  8.02124275803939e-08  1.0000
  O   O1        1.0  0.25588856942111043  0.25588852915348964  0.7441113951470966  1.0000
  O   O2        1.0  0.7441114028305795  0.7441115211780455  0.2558880551611634  1.0000
  O   O3        1.0  0.7441113739263501  0.25588884434319054  0.25588823002100786  1.0000
  O   O4        1.0  0.25588837117618896  0.7441115515023009  0.7441113039235234  1.0000
  O   O5        1.0  0.2558889561684925  0.7441114983924539  0.2558881067495581  1.0000
  O   O6        1.0  0.7441117638207212  0.2558882388170552  0.7441111738571643  1.0000
