data_image0
_chemical_formula_structural       Pt2BiS6
_chemical_formula_sum              "Pt2 Bi1 S6"
_cell_length_a       6.17617027533015
_cell_length_b       6.176169858032265
_cell_length_c       6.176170373968068
_cell_angle_alpha    60.00000338089947
_cell_angle_beta     59.99999445197173
_cell_angle_gamma    59.999990424328125

_space_group_name_H-M_alt    "P 1"
_space_group_IT_number       1

loop_
  _space_group_symop_operation_xyz
  'x, y, z'

loop_
  _atom_site_type_symbol
  _atom_site_label
  _atom_site_symmetry_multiplicity
  _atom_site_fract_x
  _atom_site_fract_y
  _atom_site_fract_z
  _atom_site_occupancy
  Pt  Pt1       1.0  0.24999816057296573  0.2500005346229456  0.24999945524254769  1.0000
  Pt  Pt2       1.0  0.7499955836576342  0.7500035591234977  0.7499990407619127  1.0000
  Bi  Bi1       1.0  0.9999999329565642  1.169979984588576e-07  0.999999966927095  1.0000
  S   S1        1.0  0.2795729054949866  0.2795694565881325  0.7204294181494336  1.0000
  S   S2        1.0  0.7204294785394374  0.7204283093510673  0.2795715438416892  1.0000
  S   S3        1.0  0.7204295238732843  0.27956997396244043  0.2795724859534184  1.0000
  S   S4        1.0  0.2795733360449325  0.7204287200286945  0.7204290693709202  1.0000
  S   S5        1.0  0.27957213560624583  0.7204291687814941  0.2795702468543082  1.0000
  S   S6        1.0  0.7204289343890553  0.27957018357113655  0.720428778481318  1.0000
