data_image0
_chemical_formula_structural       Pt2BO6
_chemical_formula_sum              "Pt2 B1 O6"
_cell_length_a       4.5659657736530495
_cell_length_b       4.565968722312368
_cell_length_c       4.565966871204448
_cell_angle_alpha    60.000001042332485
_cell_angle_beta     60.00000537270714
_cell_angle_gamma    60.000003731282405

_space_group_name_H-M_alt    "P 1"
_space_group_IT_number       1

loop_
  _space_group_symop_operation_xyz
  'x, y, z'

loop_
  _atom_site_type_symbol
  _atom_site_label
  _atom_site_symmetry_multiplicity
  _atom_site_fract_x
  _atom_site_fract_y
  _atom_site_fract_z
  _atom_site_occupancy
  Pt  Pt1       1.0  0.24999989729538233  0.2500003737317186  0.2499997402283744  1.0000
  Pt  Pt2       1.0  0.7500001858515948  0.7500007242097627  0.7499995883173433  1.0000
  B   B1        1.0  0.9999999293080689  5.686546123106745e-07  0.9999995714290351  1.0000
  O   O1        1.0  0.23982087697210913  0.23982106216642252  0.7601794129792872  1.0000
  O   O2        1.0  0.7601790365311881  0.7601785873152683  0.23982098305204683  1.0000
  O   O3        1.0  0.76017868549717  0.2398202013642652  0.2398217647487148  1.0000
  O   O4        1.0  0.23982117508279963  0.7601791289198266  0.7601787691605411  1.0000
  O   O5        1.0  0.23982103137202046  0.7601790242235801  0.23982117570647418  1.0000
  O   O6        1.0  0.760178697291549  0.23982050455316314  0.7601792964431079  1.0000
