data_image0
_chemical_formula_structural       Pt2GaN6
_chemical_formula_sum              "Pt2 Ga1 N6"
_cell_length_a       3.152407344247763
_cell_length_b       2.527106105303573
_cell_length_c       3.6737604805687307
_cell_angle_alpha    91.61650019506096
_cell_angle_beta     26.02310209134298
_cell_angle_gamma    75.44300005648384

_space_group_name_H-M_alt    "P 1"
_space_group_IT_number       1

loop_
  _space_group_symop_operation_xyz
  'x, y, z'

loop_
  _atom_site_type_symbol
  _atom_site_label
  _atom_site_symmetry_multiplicity
  _atom_site_fract_x
  _atom_site_fract_y
  _atom_site_fract_z
  _atom_site_occupancy
  Pt  Pt1       1.0  0.30001663424833613  0.9768508064720378  0.4065753645658446  1.0000
  Pt  Pt2       1.0  0.7421560923727731  0.8581799487455954  0.38184556434350736  1.0000
  Ga  Ga1       1.0  0.8880476637380229  0.021291133564343617  0.292188369124071  1.0000
  N   N1        1.0  0.28129966475343177  0.7488170255064085  0.9520537003537896  1.0000
  N   N2        1.0  0.7727551363857043  0.4889615436859269  0.8925728662771182  1.0000
  N   N3        1.0  0.9362120771639968  0.1890073846269048  0.009132337051286061  1.0000
  N   N4        1.0  0.9496341518482789  0.4654675312164447  0.1188607042445962  1.0000
  N   N5        1.0  0.22884830489441113  0.03485485898266605  0.48230083619999076  1.0000
  N   N6        1.0  0.8513602438828654  0.021172008956783377  0.3020066600604562  1.0000
