data_image0
_chemical_formula_structural       Pt2GaSe6
_chemical_formula_sum              "Pt2 Ga1 Se6"
_cell_length_a       6.283681354173653
_cell_length_b       6.2836813139739345
_cell_length_c       6.283681111601213
_cell_angle_alpha    60.00000094863025
_cell_angle_beta     60.00000077429869
_cell_angle_gamma    60.00000065146626

_space_group_name_H-M_alt    "P 1"
_space_group_IT_number       1

loop_
  _space_group_symop_operation_xyz
  'x, y, z'

loop_
  _atom_site_type_symbol
  _atom_site_label
  _atom_site_symmetry_multiplicity
  _atom_site_fract_x
  _atom_site_fract_y
  _atom_site_fract_z
  _atom_site_occupancy
  Pt  Pt1       1.0  0.2499998841026438  0.2500004764211607  0.24999979218185056  1.0000
  Pt  Pt2       1.0  0.7500003532594535  0.7500001974397916  0.7499996403902106  1.0000
  Ga  Ga1       1.0  6.496960339772247e-09  0.9999999805091189  1.1271231970209064e-08  1.0000
  Se  Se1       1.0  0.2852367539757606  0.2852366531354106  0.7147632948542939  1.0000
  Se  Se2       1.0  0.714763201056002  0.7147632469375578  0.28523681059649864  1.0000
  Se  Se3       1.0  0.714763327555921  0.2852366693538157  0.2852367113211638  1.0000
  Se  Se4       1.0  0.2852365671721435  0.7147630202176357  0.7147634547353157  1.0000
  Se  Se5       1.0  0.2852365231364274  0.7147630706464365  0.2852370334942659  1.0000
  Se  Se6       1.0  0.7147633856046329  0.2852366871430991  0.7147632569547542  1.0000
