data_image0
_chemical_formula_structural       Pt2GaS6
_chemical_formula_sum              "Pt2 Ga1 S6"
_cell_length_a       5.771141619760423
_cell_length_b       5.77114151472376
_cell_length_c       5.77114320949937
_cell_angle_alpha    59.999987851459956
_cell_angle_beta     59.99998393081076
_cell_angle_gamma    59.99997757868296

_space_group_name_H-M_alt    "P 1"
_space_group_IT_number       1

loop_
  _space_group_symop_operation_xyz
  'x, y, z'

loop_
  _atom_site_type_symbol
  _atom_site_label
  _atom_site_symmetry_multiplicity
  _atom_site_fract_x
  _atom_site_fract_y
  _atom_site_fract_z
  _atom_site_occupancy
  Pt  Pt1       1.0  0.2500009579198639  0.25000039903000454  0.24999880738955743  1.0000
  Pt  Pt2       1.0  0.7500001682584218  0.7499994335516842  0.7500010929476686  1.0000
  Ga  Ga1       1.0  7.5968625485602e-08  1.0823160774947466e-07  0.999999859382627  1.0000
  S   S1        1.0  0.2722277026061673  0.27222623338119323  0.7277734702204889  1.0000
  S   S2        1.0  0.7277733546258006  0.7277729476886025  0.2722265442940883  1.0000
  S   S3        1.0  0.7277723342809974  0.2722273764148177  0.2722262094870062  1.0000
  S   S4        1.0  0.2722261324172317  0.7277729315375249  0.7277735041289531  1.0000
  S   S5        1.0  0.2722268156608747  0.7277736366991653  0.27222658371711184  1.0000
  S   S6        1.0  0.7277724037852972  0.2722269280378834  0.7277740044085964  1.0000
