data_image0
_chemical_formula_structural       Pt2IrS6
_chemical_formula_sum              "Pt2 Ir1 S6"
_cell_length_a       5.9453884307787135
_cell_length_b       5.94538827464226
_cell_length_c       5.945388835073598
_cell_angle_alpha    60.000003370476335
_cell_angle_beta     60.00000402511885
_cell_angle_gamma    60.000002647855084

_space_group_name_H-M_alt    "P 1"
_space_group_IT_number       1

loop_
  _space_group_symop_operation_xyz
  'x, y, z'

loop_
  _atom_site_type_symbol
  _atom_site_label
  _atom_site_symmetry_multiplicity
  _atom_site_fract_x
  _atom_site_fract_y
  _atom_site_fract_z
  _atom_site_occupancy
  Pt  Pt1       1.0  0.2500000024964837  0.24999983350785235  0.24999977181353605  1.0000
  Pt  Pt2       1.0  0.7499999361099617  0.7500000526012895  0.750000196969353  1.0000
  Ir  Ir1       1.0  4.2630329064585416e-08  0.9999999711601258  7.720356193587875e-08  1.0000
  S   S1        1.0  0.27029218214735534  0.27029212869880803  0.7297079000710512  1.0000
  S   S2        1.0  0.7297078312009074  0.7297079119096892  0.27029205164585735  1.0000
  S   S3        1.0  0.7297078318639659  0.2702921601700776  0.2702921533399032  1.0000
  S   S4        1.0  0.27029212949652104  0.7297078907383788  0.729707878090064  1.0000
  S   S5        1.0  0.270292148986167  0.7297078616578345  0.2702921346863969  1.0000
  S   S6        1.0  0.7297079334760443  0.2702921871906325  0.7297078557244419  1.0000
