data_image0
_chemical_formula_structural       Pt2IrO6
_chemical_formula_sum              "Pt2 Ir1 O6"
_cell_length_a       5.337673567533836
_cell_length_b       5.337673557657741
_cell_length_c       5.337673655264085
_cell_angle_alpha    60.000001556745396
_cell_angle_beta     60.000003227477286
_cell_angle_gamma    60.00000011150378

_space_group_name_H-M_alt    "P 1"
_space_group_IT_number       1

loop_
  _space_group_symop_operation_xyz
  'x, y, z'

loop_
  _atom_site_type_symbol
  _atom_site_label
  _atom_site_symmetry_multiplicity
  _atom_site_fract_x
  _atom_site_fract_y
  _atom_site_fract_z
  _atom_site_occupancy
  Pt  Pt1       1.0  0.24999909934294876  0.2499995079718861  0.2500006930077116  1.0000
  Pt  Pt2       1.0  0.7499997383393889  0.7499987831974279  0.7499993934391305  1.0000
  Ir  Ir1       1.0  0.9999999982754049  0.9999999013352374  0.9999999658882867  1.0000
  O   O1        1.0  0.24933581616705802  0.24933631381922475  0.7506640370004998  1.0000
  O   O2        1.0  0.7506639166306172  0.7506639322891009  0.24933684074055998  1.0000
  O   O3        1.0  0.750664172775584  0.24933625409602722  0.24933587083266268  1.0000
  O   O4        1.0  0.24933668784137322  0.7506642558831511  0.7506636422326677  1.0000
  O   O5        1.0  0.2493360380998476  0.7506641750227304  0.2493361102462008  1.0000
  O   O6        1.0  0.7506645167824972  0.2493369017052009  0.7506634015818584  1.0000
