data_image0
_chemical_formula_structural       Pt2MoO6
_chemical_formula_sum              "Pt2 Mo1 O6"
_cell_length_a       5.2870868364802615
_cell_length_b       5.287086743961144
_cell_length_c       5.287086856340375
_cell_angle_alpha    59.99999920042542
_cell_angle_beta     59.99999905431913
_cell_angle_gamma    59.999997814561375

_space_group_name_H-M_alt    "P 1"
_space_group_IT_number       1

loop_
  _space_group_symop_operation_xyz
  'x, y, z'

loop_
  _atom_site_type_symbol
  _atom_site_label
  _atom_site_symmetry_multiplicity
  _atom_site_fract_x
  _atom_site_fract_y
  _atom_site_fract_z
  _atom_site_occupancy
  Pt  Pt1       1.0  0.24999994132947642  0.24999928233049024  0.250000640229602  1.0000
  Pt  Pt2       1.0  0.7500006279457261  0.7500003163628066  0.7499998244141025  1.0000
  Mo  Mo1       1.0  2.402401625295294e-08  0.9999999999999997  8.793400041298137e-09  1.0000
  O   O1        1.0  0.25895551668264055  0.258955621272531  0.7410443807418481  1.0000
  O   O2        1.0  0.7410442744821046  0.7410445820229548  0.25895553325394527  1.0000
  O   O3        1.0  0.7410444057337271  0.2589555625096781  0.2589555794449569  1.0000
  O   O4        1.0  0.25895521750513784  0.7410446662671277  0.7410441750222269  1.0000
  O   O5        1.0  0.25895542947665223  0.7410445795879719  0.25895562220052026  1.0000
  O   O6        1.0  0.7410445669881388  0.25895539437564996  0.7410442205895482  1.0000
