data_image0
_chemical_formula_structural       Pt2MoS6
_chemical_formula_sum              "Pt2 Mo1 S6"
_cell_length_a       5.907767137045867
_cell_length_b       5.907765995539664
_cell_length_c       5.907765568392152
_cell_angle_alpha    59.99999972099651
_cell_angle_beta     60.00000566666453
_cell_angle_gamma    60.000006850156495

_space_group_name_H-M_alt    "P 1"
_space_group_IT_number       1

loop_
  _space_group_symop_operation_xyz
  'x, y, z'

loop_
  _atom_site_type_symbol
  _atom_site_label
  _atom_site_symmetry_multiplicity
  _atom_site_fract_x
  _atom_site_fract_y
  _atom_site_fract_z
  _atom_site_occupancy
  Pt  Pt1       1.0  0.24999950776813476  0.24999990403202318  0.2500007411730813  1.0000
  Pt  Pt2       1.0  0.7500008580829204  0.7499994861273516  0.7499997455642395  1.0000
  Mo  Mo1       1.0  0.9999999278782289  5.804707158987385e-08  3.919840976731173e-08  1.0000
  S   S1        1.0  0.2718901753140481  0.2718904210614034  0.7281096394114851  1.0000
  S   S2        1.0  0.7281096415326813  0.7281097776108157  0.2718904281220373  1.0000
  S   S3        1.0  0.7281095264318601  0.2718903300296636  0.27189024809138307  1.0000
  S   S4        1.0  0.2718902493287225  0.7281099391282975  0.7281094526633743  1.0000
  S   S5        1.0  0.2718902435140355  0.7281096946483763  0.2718902629448206  1.0000
  S   S6        1.0  0.7281098884313674  0.27189037963728113  0.7281094502514776  1.0000
