data_image0
_chemical_formula_structural       Pt2NO6
_chemical_formula_sum              "Pt2 N1 O6"
_cell_length_a       4.709015057646281
_cell_length_b       4.709015100156392
_cell_length_c       4.709015144631687
_cell_angle_alpha    59.999994584530846
_cell_angle_beta     60.00000089325537
_cell_angle_gamma    60.00000175728292

_space_group_name_H-M_alt    "P 1"
_space_group_IT_number       1

loop_
  _space_group_symop_operation_xyz
  'x, y, z'

loop_
  _atom_site_type_symbol
  _atom_site_label
  _atom_site_symmetry_multiplicity
  _atom_site_fract_x
  _atom_site_fract_y
  _atom_site_fract_z
  _atom_site_occupancy
  Pt  Pt1       1.0  0.24999952387887667  0.24999248742317529  0.24999913891061798  1.0000
  Pt  Pt2       1.0  0.7499985012873446  0.7499938866464779  0.749999486021235  1.0000
  N   N1        1.0  1.8074023315165263e-07  0.9999749980152943  0.9999913276585165  1.0000
  O   O1        1.0  0.25010264954590067  0.2501048488600854  0.7498983559795596  1.0000
  O   O2        1.0  0.7499078918326317  0.7499111176983578  0.2500927439689965  1.0000
  O   O3        1.0  0.7498964658288603  0.25010719269976694  0.2501041793671256  1.0000
  O   O4        1.0  0.25009050276703115  0.7499127115459563  0.7499104225187432  1.0000
  O   O5        1.0  0.25009914115234266  0.7499044361813382  0.25009922581529814  1.0000
  O   O6        1.0  0.7499050949963112  0.25009828423958547  0.7499051537347745  1.0000
