data_image0
_chemical_formula_structural       Pt2PSe6
_chemical_formula_sum              "Pt2 P1 Se6"
_cell_length_a       6.345608514210778
_cell_length_b       6.345608504443178
_cell_length_c       6.345608685447251
_cell_angle_alpha    60.000000859152074
_cell_angle_beta     60.00000083158133
_cell_angle_gamma    60.00000097534319

_space_group_name_H-M_alt    "P 1"
_space_group_IT_number       1

loop_
  _space_group_symop_operation_xyz
  'x, y, z'

loop_
  _atom_site_type_symbol
  _atom_site_label
  _atom_site_symmetry_multiplicity
  _atom_site_fract_x
  _atom_site_fract_y
  _atom_site_fract_z
  _atom_site_occupancy
  Pt  Pt1       1.0  0.250000262118754  0.2499995883828106  0.2500001771132335  1.0000
  Pt  Pt2       1.0  0.7500003817423933  0.7499998807270577  0.7499995407724723  1.0000
  P   P1        1.0  1.9814703035838712e-08  0.9999999787692648  7.011587815317405e-09  1.0000
  Se  Se1       1.0  0.2551208959643092  0.25512121688971545  0.7448789952157191  1.0000
  Se  Se2       1.0  0.7448787056808067  0.7448791188201684  0.25512131003605854  1.0000
  Se  Se3       1.0  0.7448787921255092  0.25512106919771205  0.25512110833951435  1.0000
  Se  Se4       1.0  0.2551210350344029  0.744879114036886  0.7448787159906967  1.0000
  Se  Se5       1.0  0.2551209128551394  0.7448789528137656  0.2551212372563039  1.0000
  Se  Se6       1.0  0.7448790021669145  0.2551210760154891  0.7448789055821311  1.0000
