data_image0
_chemical_formula_structural       Pt2PS6
_chemical_formula_sum              "Pt2 P1 S6"
_cell_length_a       5.70448088664343
_cell_length_b       5.7044793385648855
_cell_length_c       5.704481329333746
_cell_angle_alpha    60.00000281931933
_cell_angle_beta     60.0000074032738
_cell_angle_gamma    60.00000727443454

_space_group_name_H-M_alt    "P 1"
_space_group_IT_number       1

loop_
  _space_group_symop_operation_xyz
  'x, y, z'

loop_
  _atom_site_type_symbol
  _atom_site_label
  _atom_site_symmetry_multiplicity
  _atom_site_fract_x
  _atom_site_fract_y
  _atom_site_fract_z
  _atom_site_occupancy
  Pt  Pt1       1.0  0.24999902205151175  0.2499996856552381  0.25000027058256863  1.0000
  Pt  Pt2       1.0  0.7500009756051801  0.7499998685280911  0.7500026496951472  1.0000
  P   P1        1.0  0.9999999346327668  0.9999999957060318  1.5052910700035525e-07  1.0000
  S   S1        1.0  0.2681046550762052  0.268104758488427  0.7318953163449162  1.0000
  S   S2        1.0  0.7318948568386463  0.7318957124581168  0.2681026588072563  1.0000
  S   S3        1.0  0.7318967948862664  0.26810534851182716  0.26810393341119776  1.0000
  S   S4        1.0  0.2681034441091597  0.731894854061525  0.7318956302563496  1.0000
  S   S5        1.0  0.2681048654401522  0.731895472317818  0.2681043730585935  1.0000
  S   S6        1.0  0.7318954333272176  0.26810432018079655  0.7318950116527445  1.0000
