data_image0
_chemical_formula_structural       Pt2PO6
_chemical_formula_sum              "Pt2 P1 O6"
_cell_length_a       5.115204563065537
_cell_length_b       5.11520440308377
_cell_length_c       5.1152043497297255
_cell_angle_alpha    60.0000005518623
_cell_angle_beta     60.00000084873705
_cell_angle_gamma    59.99999476849861

_space_group_name_H-M_alt    "P 1"
_space_group_IT_number       1

loop_
  _space_group_symop_operation_xyz
  'x, y, z'

loop_
  _atom_site_type_symbol
  _atom_site_label
  _atom_site_symmetry_multiplicity
  _atom_site_fract_x
  _atom_site_fract_y
  _atom_site_fract_z
  _atom_site_occupancy
  Pt  Pt1       1.0  0.24999834113159589  0.25000079989340157  0.2500020290332185  1.0000
  Pt  Pt2       1.0  0.7499992112731102  0.74999637795888  0.7500018331622181  1.0000
  P   P1        1.0  1.2038057678137142e-08  7.901264142989023e-08  0.9999999564296066  1.0000
  O   O1        1.0  0.2353946593541114  0.2353959864324016  0.7646038203122913  1.0000
  O   O2        1.0  0.7646056244149401  0.764604313616239  0.23539551008382037  1.0000
  O   O3        1.0  0.764604827734263  0.2353964046280674  0.23539390747821198  1.0000
  O   O4        1.0  0.23539579229499139  0.7646052027206317  0.7646044388764126  1.0000
  O   O5        1.0  0.2353959662267489  0.7646050280269512  0.23539425234802075  1.0000
  O   O6        1.0  0.7646054891384456  0.2353959424319178  0.7646040632070081  1.0000
