data_image0
_chemical_formula_structural       Pt2RuSe6
_chemical_formula_sum              "Pt2 Ru1 Se6"
_cell_length_a       6.2139822684797945
_cell_length_b       6.2139825002028175
_cell_length_c       6.213982438184507
_cell_angle_alpha    59.999998696368145
_cell_angle_beta     59.99999915094357
_cell_angle_gamma    59.99999902952757

_space_group_name_H-M_alt    "P 1"
_space_group_IT_number       1

loop_
  _space_group_symop_operation_xyz
  'x, y, z'

loop_
  _atom_site_type_symbol
  _atom_site_label
  _atom_site_symmetry_multiplicity
  _atom_site_fract_x
  _atom_site_fract_y
  _atom_site_fract_z
  _atom_site_occupancy
  Pt  Pt1       1.0  0.24999969994409654  0.25000041981617577  0.24999988900359407  1.0000
  Pt  Pt2       1.0  0.7499997623544054  0.7500002976249162  0.7499998778139518  1.0000
  Ru  Ru1       1.0  4.046884692651042e-08  0.9999999566391012  0.9999999048895901  1.0000
  Se  Se1       1.0  0.2788492914086873  0.27884904976241026  0.721150839252321  1.0000
  Se  Se2       1.0  0.721150988546748  0.7211506585522668  0.2788491874459203  1.0000
  Se  Se3       1.0  0.7211509555601219  0.2788490775162695  0.27884923812109014  1.0000
  Se  Se4       1.0  0.2788492457860702  0.7211506603626562  0.7211509354044675  1.0000
  Se  Se5       1.0  0.2788491412919689  0.7211507612800081  0.27884928807472775  1.0000
  Se  Se6       1.0  0.7211508751297134  0.2788491244201712  0.7211508364129505  1.0000
