data_image0
_chemical_formula_structural       Pt2RuO6
_chemical_formula_sum              "Pt2 Ru1 O6"
_cell_length_a       5.404160797268603
_cell_length_b       5.404160267325122
_cell_length_c       5.404161042433464
_cell_angle_alpha    60.00000213132784
_cell_angle_beta     60.00000052281904
_cell_angle_gamma    60.00000052425656

_space_group_name_H-M_alt    "P 1"
_space_group_IT_number       1

loop_
  _space_group_symop_operation_xyz
  'x, y, z'

loop_
  _atom_site_type_symbol
  _atom_site_label
  _atom_site_symmetry_multiplicity
  _atom_site_fract_x
  _atom_site_fract_y
  _atom_site_fract_z
  _atom_site_occupancy
  Pt  Pt1       1.0  0.24999999244721352  0.2500002891148266  0.2500007307049549  1.0000
  Pt  Pt2       1.0  0.7500000240673239  0.7500009194691247  0.7499985010513728  1.0000
  Ru  Ru1       1.0  0.9999999382692151  2.492929977711514e-07  0.9999998507061262  1.0000
  O   O1        1.0  0.24663333102913026  0.246633035258336  0.753366253810497  1.0000
  O   O2        1.0  0.7533671094652252  0.7533663693508157  0.24663384743455447  1.0000
  O   O3        1.0  0.7533664340752702  0.24663263561576731  0.24663379266630484  1.0000
  O   O4        1.0  0.24663345713843005  0.7533668143193886  0.7533667011884405  1.0000
  O   O5        1.0  0.24663292083875196  0.7533668217555034  0.24663360062654507  1.0000
  O   O6        1.0  0.7533667998249284  0.24663283214664541  0.753366778447145  1.0000
