data_image0
_chemical_formula_structural       Pt2RhSe6
_chemical_formula_sum              "Pt2 Rh1 Se6"
_cell_length_a       6.245936327257854
_cell_length_b       6.24593670030379
_cell_length_c       6.245936517853678
_cell_angle_alpha    59.999998763443486
_cell_angle_beta     59.99999738416487
_cell_angle_gamma    59.999998592505115

_space_group_name_H-M_alt    "P 1"
_space_group_IT_number       1

loop_
  _space_group_symop_operation_xyz
  'x, y, z'

loop_
  _atom_site_type_symbol
  _atom_site_label
  _atom_site_symmetry_multiplicity
  _atom_site_fract_x
  _atom_site_fract_y
  _atom_site_fract_z
  _atom_site_occupancy
  Pt  Pt1       1.0  0.24999991272787675  0.2500000319446299  0.25000013751445216  1.0000
  Pt  Pt2       1.0  0.7499998042890854  0.7500001193642966  0.7499999146308417  1.0000
  Rh  Rh1       1.0  0.9999999909806727  0.9999999882348002  2.1599550332489112e-08  1.0000
  Se  Se1       1.0  0.28225637073681525  0.28225614268051197  0.7177437835404934  1.0000
  Se  Se2       1.0  0.7177437899225259  0.7177437203810105  0.2822563734259779  1.0000
  Se  Se3       1.0  0.717743656400055  0.28225630881003566  0.28225628949427084  1.0000
  Se  Se4       1.0  0.2822563208030847  0.7177437385729574  0.717743606069894  1.0000
  Se  Se5       1.0  0.28225634615584566  0.71774364483941  0.2822562826438687  1.0000
  Se  Se6       1.0  0.7177438162944997  0.2822563182263148  0.7177435864709407  1.0000
