data_image0
_chemical_formula_structural       Pt2SbSe6
_chemical_formula_sum              "Pt2 Sb1 Se6"
_cell_length_a       6.435232170950407
_cell_length_b       6.435232237098805
_cell_length_c       6.435231809228201
_cell_angle_alpha    59.99999779981135
_cell_angle_beta     59.999998623112965
_cell_angle_gamma    59.99999985472286

_space_group_name_H-M_alt    "P 1"
_space_group_IT_number       1

loop_
  _space_group_symop_operation_xyz
  'x, y, z'

loop_
  _atom_site_type_symbol
  _atom_site_label
  _atom_site_symmetry_multiplicity
  _atom_site_fract_x
  _atom_site_fract_y
  _atom_site_fract_z
  _atom_site_occupancy
  Pt  Pt1       1.0  0.25000032916615356  0.2499999201036856  0.24999967840934995  1.0000
  Pt  Pt2       1.0  0.7499996632587818  0.7499996042496804  0.7500009750245998  1.0000
  Sb  Sb1       1.0  0.999999997751604  5.519241701542747e-08  0.9999999642043143  1.0000
  Se  Se1       1.0  0.2941406622464538  0.2941404995106287  0.7058594069288634  1.0000
  Se  Se2       1.0  0.7058593920285923  0.7058595767669282  0.29414031803968516  1.0000
  Se  Se3       1.0  0.7058594478125301  0.2941407460864103  0.29414034234834074  1.0000
  Se  Se4       1.0  0.29414049932756275  0.705859333997517  0.7058594871186513  1.0000
  Se  Se5       1.0  0.29414071067153785  0.7058595207839207  0.2941403199503003  1.0000
  Se  Se6       1.0  0.705859297690659  0.2941407362963738  0.7058595053994213  1.0000
