data_image0
_chemical_formula_structural       Pt2TaS6
_chemical_formula_sum              "Pt2 Ta1 S6"
_cell_length_a       5.987578080442771
_cell_length_b       5.987577937930906
_cell_length_c       5.987577677281305
_cell_angle_alpha    59.99999968286006
_cell_angle_beta     60.00000020634856
_cell_angle_gamma    59.99999996106889

_space_group_name_H-M_alt    "P 1"
_space_group_IT_number       1

loop_
  _space_group_symop_operation_xyz
  'x, y, z'

loop_
  _atom_site_type_symbol
  _atom_site_label
  _atom_site_symmetry_multiplicity
  _atom_site_fract_x
  _atom_site_fract_y
  _atom_site_fract_z
  _atom_site_occupancy
  Pt  Pt1       1.0  0.2499997699652772  0.24999901902186486  0.25000076894779927  1.0000
  Pt  Pt2       1.0  0.749999909899825  0.7499999780057643  0.7499998983629735  1.0000
  Ta  Ta1       1.0  2.138718024318758e-08  9.204643374502495e-08  0.9999999382728181  1.0000
  S   S1        1.0  0.27288828982977736  0.27288801554711595  0.7271120286977676  1.0000
  S   S2        1.0  0.7271116310929592  0.7271123642224874  0.27288841125674373  1.0000
  S   S3        1.0  0.7271120849490382  0.27288824580509075  0.2728879592086561  1.0000
  S   S4        1.0  0.27288789366794686  0.7271124121493002  0.727111466053226  1.0000
  S   S5        1.0  0.27288805096320606  0.7271119390869328  0.2728880736821681  1.0000
  S   S6        1.0  0.7271123302547673  0.2728879334045616  0.7271114595044488  1.0000
