data_image0
_chemical_formula_structural       Pt2TaSe6
_chemical_formula_sum              "Pt2 Ta1 Se6"
_cell_length_a       6.36273838208556
_cell_length_b       6.362738724677687
_cell_length_c       6.362738720786305
_cell_angle_alpha    59.999999999457735
_cell_angle_beta     59.99999699488151
_cell_angle_gamma    59.99999722629684

_space_group_name_H-M_alt    "P 1"
_space_group_IT_number       1

loop_
  _space_group_symop_operation_xyz
  'x, y, z'

loop_
  _atom_site_type_symbol
  _atom_site_label
  _atom_site_symmetry_multiplicity
  _atom_site_fract_x
  _atom_site_fract_y
  _atom_site_fract_z
  _atom_site_occupancy
  Pt  Pt1       1.0  0.25000006345881226  0.2499997542699343  0.25000010911524256  1.0000
  Pt  Pt2       1.0  0.7499996262543982  0.7500002637425359  0.7499998056118843  1.0000
  Ta  Ta1       1.0  1.97424706003235e-08  1.1549223020912667e-08  7.928906984825029e-09  1.0000
  Se  Se1       1.0  0.27478764054743493  0.27478731723848315  0.7252124586337295  1.0000
  Se  Se2       1.0  0.7252124548914998  0.7252125833568666  0.27478751468197576  1.0000
  Se  Se3       1.0  0.7252125179689096  0.2747872558092268  0.27478762406608387  1.0000
  Se  Se4       1.0  0.27478762813939994  0.7252125254441443  0.725212537607649  1.0000
  Se  Se5       1.0  0.2747874222152379  0.7252127409428865  0.2747874791186699  1.0000
  Se  Se6       1.0  0.7252126403309014  0.27478755232606833  0.7252124526118544  1.0000
