data_image0
_chemical_formula_structural       Rb2AsSe6
_chemical_formula_sum              "Rb2 As1 Se6"
_cell_length_a       6.904081469921897
_cell_length_b       6.904081583750173
_cell_length_c       6.904082016866202
_cell_angle_alpha    59.999998653061894
_cell_angle_beta     59.999997217487014
_cell_angle_gamma    60.00000173062403

_space_group_name_H-M_alt    "P 1"
_space_group_IT_number       1

loop_
  _space_group_symop_operation_xyz
  'x, y, z'

loop_
  _atom_site_type_symbol
  _atom_site_label
  _atom_site_symmetry_multiplicity
  _atom_site_fract_x
  _atom_site_fract_y
  _atom_site_fract_z
  _atom_site_occupancy
  Rb  Rb1       1.0  0.24999998282505237  0.25000003271415755  0.2500000094599849  1.0000
  Rb  Rb2       1.0  0.7499999834641577  0.7499999881579934  0.7499999833178399  1.0000
  As  As1       1.0  8.656663308474357e-08  0.999999845666944  2.091418469207678e-07  1.0000
  Se  Se1       1.0  0.2684279511948014  0.2684279443448098  0.7315720596266813  1.0000
  Se  Se2       1.0  0.7315721990160667  0.7315721669984503  0.268427762641135  1.0000
  Se  Se3       1.0  0.7315720806705003  0.26842787431528736  0.2684280497319783  1.0000
  Se  Se4       1.0  0.26842788954057717  0.731571999319577  0.7315720885728978  1.0000
  Se  Se5       1.0  0.2684278394266946  0.7315721619632407  0.2684278674228697  1.0000
  Se  Se6       1.0  0.7315719809645195  0.2684280256595672  0.7315719744320328  1.0000
