data_image0
_chemical_formula_structural       Rb2BiO6
_chemical_formula_sum              "Rb2 Bi1 O6"
_cell_length_a       6.417170218124595
_cell_length_b       6.417169580743194
_cell_length_c       6.417170698441184
_cell_angle_alpha    59.99999805162085
_cell_angle_beta     59.999995499251085
_cell_angle_gamma    59.99999896235117

_space_group_name_H-M_alt    "P 1"
_space_group_IT_number       1

loop_
  _space_group_symop_operation_xyz
  'x, y, z'

loop_
  _atom_site_type_symbol
  _atom_site_label
  _atom_site_symmetry_multiplicity
  _atom_site_fract_x
  _atom_site_fract_y
  _atom_site_fract_z
  _atom_site_occupancy
  Rb  Rb1       1.0  0.25000001546026673  0.2499997611733401  0.25000012141696276  1.0000
  Rb  Rb2       1.0  0.7499999444013237  0.750000102285285  0.7499998967756787  1.0000
  Bi  Bi1       1.0  0.9999999426003012  5.3439220271556576e-08  0.999999933414199  1.0000
  O   O1        1.0  0.23238262717818275  0.23238256454376877  0.7676173670065591  1.0000
  O   O2        1.0  0.767617445315294  0.7676174630496249  0.23238255643569417  1.0000
  O   O3        1.0  0.767617491244332  0.23238253452527194  0.23238248065537725  1.0000
  O   O4        1.0  0.23238248462772637  0.7676174644399612  0.7676174711286451  1.0000
  O   O5        1.0  0.23238251989381262  0.7676173914028518  0.23238258488153252  1.0000
  O   O6        1.0  0.7676175681954643  0.23238257320860226  0.7676174432863843  1.0000
