data_image0
_chemical_formula_structural       Rb2GaSe6
_chemical_formula_sum              "Rb2 Ga1 Se6"
_cell_length_a       6.831872246603168
_cell_length_b       6.831871604242729
_cell_length_c       6.8318719337481495
_cell_angle_alpha    60.000002884153936
_cell_angle_beta     60.00000254815092
_cell_angle_gamma    59.99999140639275

_space_group_name_H-M_alt    "P 1"
_space_group_IT_number       1

loop_
  _space_group_symop_operation_xyz
  'x, y, z'

loop_
  _atom_site_type_symbol
  _atom_site_label
  _atom_site_symmetry_multiplicity
  _atom_site_fract_x
  _atom_site_fract_y
  _atom_site_fract_z
  _atom_site_occupancy
  Rb  Rb1       1.0  0.2500000897217415  0.24999987641368046  0.25000006000782393  1.0000
  Rb  Rb2       1.0  0.7500000286075948  0.7500000720362531  0.7500000408477743  1.0000
  Ga  Ga1       1.0  0.9999998575018213  0.9999997024129786  5.303528552847495e-07  1.0000
  Se  Se1       1.0  0.28578370462812636  0.2857837853281976  0.7142163966518454  1.0000
  Se  Se2       1.0  0.7142166329745908  0.7142164230622118  0.2857835114361204  1.0000
  Se  Se3       1.0  0.7142170302208072  0.28578311714140203  0.2857831137473805  1.0000
  Se  Se4       1.0  0.2857834632995554  0.7142163598302063  0.714216843503529  1.0000
  Se  Se5       1.0  0.2857827780506905  0.714216997664801  0.2857830194476459  1.0000
  Se  Se6       1.0  0.7142164348495667  0.2857836338012513  0.7142164695329788  1.0000
