data_image0
_chemical_formula_structural       Rb2GaTe6
_chemical_formula_sum              "Rb2 Ga1 Te6"
_cell_length_a       7.473753394134703
_cell_length_b       7.473753403964709
_cell_length_c       7.473756886718227
_cell_angle_alpha    59.99998041840743
_cell_angle_beta     59.999997406095645
_cell_angle_gamma    60.00001036479653

_space_group_name_H-M_alt    "P 1"
_space_group_IT_number       1

loop_
  _space_group_symop_operation_xyz
  'x, y, z'

loop_
  _atom_site_type_symbol
  _atom_site_label
  _atom_site_symmetry_multiplicity
  _atom_site_fract_x
  _atom_site_fract_y
  _atom_site_fract_z
  _atom_site_occupancy
  Rb  Rb1       1.0  0.2500002205196901  0.25000002176839914  0.2499997356168502  1.0000
  Rb  Rb2       1.0  0.7499998761679085  0.7499998768512322  0.750000104543697  1.0000
  Ga  Ga1       1.0  0.9999991297804534  3.441327199753227e-07  2.4698713602584065e-07  1.0000
  Te  Te1       1.0  0.27503193715996693  0.27503327682962175  0.7249675239171922  1.0000
  Te  Te2       1.0  0.7249687131677586  0.7249668102438703  0.27503206026571275  1.0000
  Te  Te3       1.0  0.7249676126238751  0.27503278549051846  0.2750319902230631  1.0000
  Te  Te4       1.0  0.2750317271893752  0.7249675899988034  0.7249683900062567  1.0000
  Te  Te5       1.0  0.27503274547514556  0.724967108730046  0.2750327929917992  1.0000
  Te  Te6       1.0  0.7249680418417318  0.2750321409533708  0.7249671266734403  1.0000
