data_image0
_chemical_formula_structural       Rb2GaS6
_chemical_formula_sum              "Rb2 Ga1 S6"
_cell_length_a       6.621616508846897
_cell_length_b       6.6216166719329195
_cell_length_c       6.621615808991788
_cell_angle_alpha    60.00000191173054
_cell_angle_beta     60.00000345325835
_cell_angle_gamma    59.99998634855156

_space_group_name_H-M_alt    "P 1"
_space_group_IT_number       1

loop_
  _space_group_symop_operation_xyz
  'x, y, z'

loop_
  _atom_site_type_symbol
  _atom_site_label
  _atom_site_symmetry_multiplicity
  _atom_site_fract_x
  _atom_site_fract_y
  _atom_site_fract_z
  _atom_site_occupancy
  Rb  Rb1       1.0  0.2500000086809728  0.25000007340648545  0.25000006843848577  1.0000
  Rb  Rb2       1.0  0.7500000004687676  0.7500000981448043  0.7499999136701522  1.0000
  Ga  Ga1       1.0  0.9999997208380431  4.346598378305597e-07  2.3788398189016622e-07  1.0000
  S   S1        1.0  0.2454554938954222  0.24545541322157016  0.7545445058182951  1.0000
  S   S2        1.0  0.7545443219065038  0.7545443810080619  0.24545560909433964  1.0000
  S   S3        1.0  0.7545449901261378  0.24545506563467948  0.2454551225379436  1.0000
  S   S4        1.0  0.24545556513752884  0.7545444197089299  0.7545445445152048  1.0000
  S   S5        1.0  0.24545505260070627  0.7545449587638916  0.2454551809766398  1.0000
  S   S6        1.0  0.7545448290738344  0.24545516099816878  0.7545448756621596  1.0000
