data_image0
_chemical_formula_structural       Rb2NO6
_chemical_formula_sum              "Rb2 N1 O6"
_cell_length_a       6.4356199391918905
_cell_length_b       6.435619840760936
_cell_length_c       6.435618816849656
_cell_angle_alpha    60.00001393228146
_cell_angle_beta     60.00001143614349
_cell_angle_gamma    59.99999569162378

_space_group_name_H-M_alt    "P 1"
_space_group_IT_number       1

loop_
  _space_group_symop_operation_xyz
  'x, y, z'

loop_
  _atom_site_type_symbol
  _atom_site_label
  _atom_site_symmetry_multiplicity
  _atom_site_fract_x
  _atom_site_fract_y
  _atom_site_fract_z
  _atom_site_occupancy
  Rb  Rb1       1.0  0.24999999911597018  0.24999975041567893  0.2500002022891371  1.0000
  Rb  Rb2       1.0  0.7500000840957731  0.7499998145562993  0.750000009914767  1.0000
  N   N1        1.0  0.9999996292646802  1.0314650450676698e-06  0.9999996136965125  1.0000
  O   O1        1.0  0.17269086629629865  0.17269268821841813  0.8273083072047459  1.0000
  O   O2        1.0  0.8273056865138156  0.8273070309029322  0.1726939458495787  1.0000
  O   O3        1.0  0.8273088135174731  0.1726921008738365  0.1726905961521663  1.0000
  O   O4        1.0  0.17269341055988746  0.827307414617727  0.8273055760861723  1.0000
  O   O5        1.0  0.17269318538445969  0.8273075850592186  0.1726933260805259  1.0000
  O   O6        1.0  0.8273084627157599  0.17269252799743534  0.8273082287845922  1.0000
