data_image0
_chemical_formula_structural       Rb2SbTe6
_chemical_formula_sum              "Rb2 Sb1 Te6"
_cell_length_a       7.663877155800794
_cell_length_b       7.663876878565725
_cell_length_c       7.663877713782823
_cell_angle_alpha    59.99999680550583
_cell_angle_beta     59.99999919858581
_cell_angle_gamma    60.00000633990474

_space_group_name_H-M_alt    "P 1"
_space_group_IT_number       1

loop_
  _space_group_symop_operation_xyz
  'x, y, z'

loop_
  _atom_site_type_symbol
  _atom_site_label
  _atom_site_symmetry_multiplicity
  _atom_site_fract_x
  _atom_site_fract_y
  _atom_site_fract_z
  _atom_site_occupancy
  Rb  Rb1       1.0  0.2499999221835673  0.25000001968855956  0.25000009460817757  1.0000
  Rb  Rb2       1.0  0.7500000891942168  0.7499999951427173  0.7499998974142292  1.0000
  Sb  Sb1       1.0  0.9999998819880013  2.3651506450979945e-07  0.9999998559350046  1.0000
  Te  Te1       1.0  0.27908708692875955  0.27908700385164126  0.7209128722534095  1.0000
  Te  Te2       1.0  0.7209127634328046  0.720912974223899  0.27908700988337537  1.0000
  Te  Te3       1.0  0.7209128318419601  0.27908718022529005  0.27908700536266656  1.0000
  Te  Te4       1.0  0.27908691520882245  0.7209130535422138  0.720912979344208  1.0000
  Te  Te5       1.0  0.27908726662314537  0.7209127281615739  0.27908712613808884  1.0000
  Te  Te6       1.0  0.7209132479178509  0.2790867896684774  0.7209131785703718  1.0000
