data_image0
_chemical_formula_structural       Rb2YS6
_chemical_formula_sum              "Rb2 Y1 S6"
_cell_length_a       7.018380317610977
_cell_length_b       7.018380805480611
_cell_length_c       7.018380178310311
_cell_angle_alpha    60.00000268673223
_cell_angle_beta     60.00000260014689
_cell_angle_gamma    59.999998561748484

_space_group_name_H-M_alt    "P 1"
_space_group_IT_number       1

loop_
  _space_group_symop_operation_xyz
  'x, y, z'

loop_
  _atom_site_type_symbol
  _atom_site_label
  _atom_site_symmetry_multiplicity
  _atom_site_fract_x
  _atom_site_fract_y
  _atom_site_fract_z
  _atom_site_occupancy
  Rb  Rb1       1.0  0.24999998385571526  0.2500000172291323  0.25000002268890076  1.0000
  Rb  Rb2       1.0  0.7500000209015842  0.7499999818852631  0.7499999742617582  1.0000
  Y   Y1        1.0  0.9999999256984947  0.9999999563736726  0.9999999578009715  1.0000
  S   S1        1.0  0.2782166256671827  0.27821680328300913  0.7217833163577891  1.0000
  S   S2        1.0  0.7217832904945348  0.7217832691236279  0.2782167523618974  1.0000
  S   S3        1.0  0.7217833883785252  0.27821666148777663  0.2782166478133471  1.0000
  S   S4        1.0  0.27821673031750066  0.7217832870200682  0.7217832704518293  1.0000
  S   S5        1.0  0.27821670944023974  0.7217833038473211  0.27821673135088765  1.0000
  S   S6        1.0  0.7217833120347394  0.2782167388934046  0.7217833223424085  1.0000
