data_image0
_chemical_formula_structural       Rb2YO6
_chemical_formula_sum              "Rb2 Y1 O6"
_cell_length_a       6.527967015111398
_cell_length_b       6.527967910754254
_cell_length_c       6.527967157597247
_cell_angle_alpha    59.9999879224266
_cell_angle_beta     59.99998623041297
_cell_angle_gamma    59.99997982890176

_space_group_name_H-M_alt    "P 1"
_space_group_IT_number       1

loop_
  _space_group_symop_operation_xyz
  'x, y, z'

loop_
  _atom_site_type_symbol
  _atom_site_label
  _atom_site_symmetry_multiplicity
  _atom_site_fract_x
  _atom_site_fract_y
  _atom_site_fract_z
  _atom_site_occupancy
  Rb  Rb1       1.0  0.25000041378661864  0.2499997309116197  0.24999991298190674  1.0000
  Rb  Rb2       1.0  0.74999917479776  0.7499995923551215  0.7500016140887005  1.0000
  Y   Y1        1.0  2.530220591099436e-07  7.692217537979838e-07  0.9999989802969862  1.0000
  O   O1        1.0  0.2401379713154185  0.24013821635934257  0.7598618294961945  1.0000
  O   O2        1.0  0.7598620028140071  0.7598617598078478  0.24013827914359262  1.0000
  O   O3        1.0  0.7598623032849883  0.24013776951265356  0.24013752801138524  1.0000
  O   O4        1.0  0.24013849481715585  0.7598616663231135  0.7598619179717845  1.0000
  O   O5        1.0  0.2401373507424646  0.7598623159494761  0.24013805229943377  1.0000
  O   O6        1.0  0.7598619989206302  0.24013812737933815  0.7598618638516426  1.0000
