data_image0
_chemical_formula_structural       Rb2YTe6
_chemical_formula_sum              "Rb2 Y1 Te6"
_cell_length_a       7.8271525286256365
_cell_length_b       7.827152081288577
_cell_length_c       7.827151708175409
_cell_angle_alpha    60.0000025301567
_cell_angle_beta     60.00000131268484
_cell_angle_gamma    59.99999761355262

_space_group_name_H-M_alt    "P 1"
_space_group_IT_number       1

loop_
  _space_group_symop_operation_xyz
  'x, y, z'

loop_
  _atom_site_type_symbol
  _atom_site_label
  _atom_site_symmetry_multiplicity
  _atom_site_fract_x
  _atom_site_fract_y
  _atom_site_fract_z
  _atom_site_occupancy
  Rb  Rb1       1.0  0.2500000136746983  0.24999999300046155  0.24999993637792925  1.0000
  Rb  Rb2       1.0  0.7499999944118082  0.7499999993429949  0.7500000420170075  1.0000
  Y   Y1        1.0  5.477857675028831e-08  0.9999999640110057  0.9999999931604155  1.0000
  Te  Te1       1.0  0.2803066901650206  0.2803068828834173  0.7196932277724861  1.0000
  Te  Te2       1.0  0.7196933418680834  0.7196931172837332  0.28030677434302737  1.0000
  Te  Te3       1.0  0.7196932287628605  0.28030675461924814  0.2803068992170766  1.0000
  Te  Te4       1.0  0.28030673175769344  0.719693256501077  0.7196931600078091  1.0000
  Te  Te5       1.0  0.28030673468489087  0.719693276340489  0.28030679223028276  1.0000
  Te  Te6       1.0  0.719693211067812  0.28030676138039456  0.7196931716459725  1.0000
