data_image0
_chemical_formula_structural       Rb2YSe6
_chemical_formula_sum              "Rb2 Y1 Se6"
_cell_length_a       7.295388285854274
_cell_length_b       7.295388810512648
_cell_length_c       7.295388699945958
_cell_angle_alpha    60.000002794230305
_cell_angle_beta     59.99999957568812
_cell_angle_gamma    60.000000694674206

_space_group_name_H-M_alt    "P 1"
_space_group_IT_number       1

loop_
  _space_group_symop_operation_xyz
  'x, y, z'

loop_
  _atom_site_type_symbol
  _atom_site_label
  _atom_site_symmetry_multiplicity
  _atom_site_fract_x
  _atom_site_fract_y
  _atom_site_fract_z
  _atom_site_occupancy
  Rb  Rb1       1.0  0.249999958189371  0.2500000309112587  0.24999998785824767  1.0000
  Rb  Rb2       1.0  0.7500000398988872  0.7499999718606709  0.7499999577946549  1.0000
  Y   Y1        1.0  0.9999998534898757  0.9999999362058646  4.7581514047832625e-08  1.0000
  Se  Se1       1.0  0.28537747844078176  0.28537741332977473  0.7146223757825831  1.0000
  Se  Se2       1.0  0.7146226168005128  0.7146228345459359  0.2853770217914736  1.0000
  Se  Se3       1.0  0.7146223455981313  0.2853775713046456  0.28537742978577396  1.0000
  Se  Se4       1.0  0.28537706192861395  0.7146229116021249  0.7146228548213452  1.0000
  Se  Se5       1.0  0.2853776547991829  0.7146222917214838  0.2853774958319413  1.0000
  Se  Se6       1.0  0.7146229901944129  0.285377042890792  0.7146228319156422  1.0000
