data_image0
_chemical_formula_structural       Re2AsN6
_chemical_formula_sum              "Re2 As1 N6"
_cell_length_a       4.817534256158079
_cell_length_b       4.817534248611648
_cell_length_c       4.8175340362038614
_cell_angle_alpha    59.99999890535134
_cell_angle_beta     59.9999995351374
_cell_angle_gamma    59.99999727905451

_space_group_name_H-M_alt    "P 1"
_space_group_IT_number       1

loop_
  _space_group_symop_operation_xyz
  'x, y, z'

loop_
  _atom_site_type_symbol
  _atom_site_label
  _atom_site_symmetry_multiplicity
  _atom_site_fract_x
  _atom_site_fract_y
  _atom_site_fract_z
  _atom_site_occupancy
  Re  Re1       1.0  0.2500000328868135  0.25000010513940374  0.2499999684916741  1.0000
  Re  Re2       1.0  0.7499999504243924  0.749999918824872  0.7499999225723807  1.0000
  As  As1       1.0  1.694843249240009e-09  0.9999999949154694  2.0376600678427412e-08  1.0000
  N   N1        1.0  0.27357367760928825  0.27357368126819664  0.7264263099110074  1.0000
  N   N2        1.0  0.7264262578849542  0.7264263782877873  0.2735737637044908  1.0000
  N   N3        1.0  0.726426344078933  0.27357367804610944  0.2735737020287291  1.0000
  N   N4        1.0  0.2735737574058971  0.7264263077841845  0.7264263088483132  1.0000
  N   N5        1.0  0.27357369313587665  0.7264262615813782  0.2735736320427784  1.0000
  N   N6        1.0  0.7264262745603931  0.2735737013685347  0.7264263886689615  1.0000
