data_image0
_chemical_formula_structural       Re2GaN6
_chemical_formula_sum              "Re2 Ga1 N6"
_cell_length_a       4.8781912151342794
_cell_length_b       4.87819124637597
_cell_length_c       4.878191173271115
_cell_angle_alpha    59.999999556409854
_cell_angle_beta     60.00000037462092
_cell_angle_gamma    60.000000402328624

_space_group_name_H-M_alt    "P 1"
_space_group_IT_number       1

loop_
  _space_group_symop_operation_xyz
  'x, y, z'

loop_
  _atom_site_type_symbol
  _atom_site_label
  _atom_site_symmetry_multiplicity
  _atom_site_fract_x
  _atom_site_fract_y
  _atom_site_fract_z
  _atom_site_occupancy
  Re  Re1       1.0  0.24999985342373443  0.2500002379537516  0.2500000927935832  1.0000
  Re  Re2       1.0  0.7499997862504383  0.7500002418583692  0.7500001246506568  1.0000
  Ga  Ga1       1.0  3.74169034918405e-07  0.9999997012322028  1.1041160533042486e-06  1.0000
  N   N1        1.0  0.2810369948361897  0.2810368177835239  0.718963085067426  1.0000
  N   N2        1.0  0.7189631234043119  0.7189629364496927  0.2810369258427413  1.0000
  N   N3        1.0  0.7189633199014407  0.2810366542390123  0.2810366938104047  1.0000
  N   N4        1.0  0.2810371897708556  0.7189628062477318  0.7189628316198495  1.0000
  N   N5        1.0  0.281036596228679  0.7189633784688397  0.2810364851287196  1.0000
  N   N6        1.0  0.7189627704655824  0.28103722436532186  0.7189626613779044  1.0000
