data_image0
_chemical_formula_structural       Rh2AsN6
_chemical_formula_sum              "Rh2 As1 N6"
_cell_length_a       4.836715938054403
_cell_length_b       4.836715827526306
_cell_length_c       4.836716393904092
_cell_angle_alpha    60.0000042410828
_cell_angle_beta     60.000007513641336
_cell_angle_gamma    60.00000590281089

_space_group_name_H-M_alt    "P 1"
_space_group_IT_number       1

loop_
  _space_group_symop_operation_xyz
  'x, y, z'

loop_
  _atom_site_type_symbol
  _atom_site_label
  _atom_site_symmetry_multiplicity
  _atom_site_fract_x
  _atom_site_fract_y
  _atom_site_fract_z
  _atom_site_occupancy
  Rh  Rh1       1.0  0.249999684447718  0.24999964668158337  0.2500003725512795  1.0000
  Rh  Rh2       1.0  0.7499994873834505  0.7500004669509058  0.7499996265037032  1.0000
  As  As1       1.0  1.5281618312833273e-07  0.9999999569529008  0.9999999761282433  1.0000
  N   N1        1.0  0.2706542462373575  0.270654464719732  0.7293459839164161  1.0000
  N   N2        1.0  0.729345713424218  0.7293456489128355  0.27065463017235253  1.0000
  N   N3        1.0  0.7293453391098682  0.27065446036003304  0.27065422594667615  1.0000
  N   N4        1.0  0.2706547515670515  0.729345668465593  0.7293455066382192  1.0000
  N   N5        1.0  0.2706544321877814  0.7293455839250982  0.27065432185557925  1.0000
  N   N6        1.0  0.7293461475929166  0.2706541017685708  0.7293453712032707  1.0000
