data_image0
_chemical_formula_structural       Rh2AsS6
_chemical_formula_sum              "Rh2 As1 S6"
_cell_length_a       6.2352430974583655
_cell_length_b       6.235243148796381
_cell_length_c       6.2352431649719575
_cell_angle_alpha    60.00000066352215
_cell_angle_beta     60.000000191699606
_cell_angle_gamma    59.999999483364

_space_group_name_H-M_alt    "P 1"
_space_group_IT_number       1

loop_
  _space_group_symop_operation_xyz
  'x, y, z'

loop_
  _atom_site_type_symbol
  _atom_site_label
  _atom_site_symmetry_multiplicity
  _atom_site_fract_x
  _atom_site_fract_y
  _atom_site_fract_z
  _atom_site_occupancy
  Rh  Rh1       1.0  0.2500001146365943  0.24999986013092257  0.25000002429496987  1.0000
  Rh  Rh2       1.0  0.7499999894404172  0.7500001382339546  0.7499998252544118  1.0000
  As  As1       1.0  0.9999999860449944  1.964229506548768e-08  0.9999999506465413  1.0000
  S   S1        1.0  0.2638953292669554  0.26389523136564247  0.7361047134585134  1.0000
  S   S2        1.0  0.7361047066077361  0.7361047827130726  0.2638953098834849  1.0000
  S   S3        1.0  0.7361047140117236  0.26389516744638386  0.2638953400757048  1.0000
  S   S4        1.0  0.2638952056430297  0.7361048230615778  0.7361046922177443  1.0000
  S   S5        1.0  0.26389520940613154  0.7361047650330641  0.26389535844844536  1.0000
  S   S6        1.0  0.7361047299647062  0.2638952274391278  0.7361047897039953  1.0000
