data_image0
_chemical_formula_structural       Rh2AuSe6
_chemical_formula_sum              "Rh2 Au1 Se6"
_cell_length_a       6.369919383461192
_cell_length_b       6.369919399452048
_cell_length_c       6.369919246105956
_cell_angle_alpha    59.99999978673541
_cell_angle_beta     59.99999998352228
_cell_angle_gamma    60.00000012039045

_space_group_name_H-M_alt    "P 1"
_space_group_IT_number       1

loop_
  _space_group_symop_operation_xyz
  'x, y, z'

loop_
  _atom_site_type_symbol
  _atom_site_label
  _atom_site_symmetry_multiplicity
  _atom_site_fract_x
  _atom_site_fract_y
  _atom_site_fract_z
  _atom_site_occupancy
  Rh  Rh1       1.0  0.2500000123402673  0.25000018445563804  0.2499994237330684  1.0000
  Rh  Rh2       1.0  0.7499997178217617  0.750000086150609  0.7500015624028055  1.0000
  Au  Au1       1.0  2.8673951131060435e-08  1.730430694923097e-08  0.9999999487530556  1.0000
  Se  Se1       1.0  0.2883446030457839  0.28834454140913046  0.7116557417089298  1.0000
  Se  Se2       1.0  0.7116554584708333  0.711655273517055  0.2883438607314785  1.0000
  Se  Se3       1.0  0.7116555451601128  0.28834491907789517  0.2883442063216306  1.0000
  Se  Se4       1.0  0.2883443930303725  0.7116551842533987  0.7116555302225367  1.0000
  Se  Se5       1.0  0.2883450860046269  0.711655545553258  0.2883441076375614  1.0000
  Se  Se6       1.0  0.7116551674613355  0.2883442482232177  0.711655626046277  1.0000
