data_image0
_chemical_formula_structural       Rh2AuS6
_chemical_formula_sum              "Rh2 Au1 S6"
_cell_length_a       6.277386295577815
_cell_length_b       6.277386424928731
_cell_length_c       6.277386522152368
_cell_angle_alpha    59.99999897932532
_cell_angle_beta     59.999998978904124
_cell_angle_gamma    59.99999939073955

_space_group_name_H-M_alt    "P 1"
_space_group_IT_number       1

loop_
  _space_group_symop_operation_xyz
  'x, y, z'

loop_
  _atom_site_type_symbol
  _atom_site_label
  _atom_site_symmetry_multiplicity
  _atom_site_fract_x
  _atom_site_fract_y
  _atom_site_fract_z
  _atom_site_occupancy
  Rh  Rh1       1.0  0.2500000142631193  0.24999994391649066  0.2500000615234538  1.0000
  Rh  Rh2       1.0  0.7500000297441175  0.7499999371057773  0.7500000269034537  1.0000
  Au  Au1       1.0  0.9999999779456158  0.9999999668322744  5.1506349589628575e-08  1.0000
  S   S1        1.0  0.2694882259889043  0.2694883030864958  0.730511759924516  1.0000
  S   S2        1.0  0.7305116586131691  0.730511802305681  0.2694882402643305  1.0000
  S   S3        1.0  0.7305117320487164  0.2694881978003458  0.26948832649200744  1.0000
  S   S4        1.0  0.26948822007792167  0.7305117105365204  0.7305117368691931  1.0000
  S   S5        1.0  0.26948825656363323  0.7305117642215135  0.26948827068538866  1.0000
  S   S6        1.0  0.7305118750457978  0.2694883782404738  0.7305115285231474  1.0000
