data_image0
_chemical_formula_structural       Rh2AuO6
_chemical_formula_sum              "Rh2 Au1 O6"
_cell_length_a       5.320179004472768
_cell_length_b       5.320178534322851
_cell_length_c       5.320178724927921
_cell_angle_alpha    60.00000144822482
_cell_angle_beta     60.00000296258477
_cell_angle_gamma    60.00000058757492

_space_group_name_H-M_alt    "P 1"
_space_group_IT_number       1

loop_
  _space_group_symop_operation_xyz
  'x, y, z'

loop_
  _atom_site_type_symbol
  _atom_site_label
  _atom_site_symmetry_multiplicity
  _atom_site_fract_x
  _atom_site_fract_y
  _atom_site_fract_z
  _atom_site_occupancy
  Rh  Rh1       1.0  0.25000233564815244  0.25000041069746576  0.24999882537579868  1.0000
  Rh  Rh2       1.0  0.7499999640624915  0.750001908902294  0.7499991591801757  1.0000
  Au  Au1       1.0  0.9999999332663065  0.999999933239831  4.231165991900051e-08  1.0000
  O   O1        1.0  0.26300830800865654  0.26300736675467135  0.7369919494427156  1.0000
  O   O2        1.0  0.736991651704475  0.7369925771039187  0.2630080584073046  1.0000
  O   O3        1.0  0.7369912151205278  0.2630072524416931  0.2630083969794938  1.0000
  O   O4        1.0  0.2630076253953284  0.7369918557637513  0.7369925149899019  1.0000
  O   O5        1.0  0.26300781635001425  0.7369917862553099  0.2630078345049382  1.0000
  O   O6        1.0  0.7369911782505975  0.263006905274606  0.7369931862042038  1.0000
