data_image0
_chemical_formula_structural       Rh2BeO6
_chemical_formula_sum              "Rh2 Be1 O6"
_cell_length_a       4.794116303744639
_cell_length_b       4.794116191398078
_cell_length_c       4.794116232583297
_cell_angle_alpha    59.999999716897435
_cell_angle_beta     59.999999255508975
_cell_angle_gamma    59.99999939444562

_space_group_name_H-M_alt    "P 1"
_space_group_IT_number       1

loop_
  _space_group_symop_operation_xyz
  'x, y, z'

loop_
  _atom_site_type_symbol
  _atom_site_label
  _atom_site_symmetry_multiplicity
  _atom_site_fract_x
  _atom_site_fract_y
  _atom_site_fract_z
  _atom_site_occupancy
  Rh  Rh1       1.0  0.24999940911859786  0.2500003461319698  0.25000037738043396  1.0000
  Rh  Rh2       1.0  0.749999897415308  0.7500001902410383  0.7500001767716258  1.0000
  Be  Be1       1.0  0.9999999775922687  3.832025031826395e-08  3.376154441304081e-08  1.0000
  O   O1        1.0  0.2398781149627616  0.23987798030794705  0.7601218390357455  1.0000
  O   O2        1.0  0.7601221730443504  0.7601217360117054  0.23987798360864168  1.0000
  O   O3        1.0  0.7601221251910356  0.23987796404342984  0.23987807345493922  1.0000
  O   O4        1.0  0.23987797878720768  0.7601219719789906  0.760121875278923  1.0000
  O   O5        1.0  0.23987821837229034  0.7601218290361943  0.23987785518071952  1.0000
  O   O6        1.0  0.7601221181945721  0.2398779511505412  0.7601217819250589  1.0000
