data_image0
_chemical_formula_structural       Rh2BO6
_chemical_formula_sum              "Rh2 B1 O6"
_cell_length_a       4.748617181067608
_cell_length_b       4.748617070931385
_cell_length_c       4.7486171415992615
_cell_angle_alpha    59.99999955868666
_cell_angle_beta     59.999998655203676
_cell_angle_gamma    59.99999927051412

_space_group_name_H-M_alt    "P 1"
_space_group_IT_number       1

loop_
  _space_group_symop_operation_xyz
  'x, y, z'

loop_
  _atom_site_type_symbol
  _atom_site_label
  _atom_site_symmetry_multiplicity
  _atom_site_fract_x
  _atom_site_fract_y
  _atom_site_fract_z
  _atom_site_occupancy
  Rh  Rh1       1.0  0.24999989436811862  0.2500001725691557  0.24999982019939784  1.0000
  Rh  Rh2       1.0  0.7499999431274599  0.7500000586167811  0.7499999960483622  1.0000
  B   B1        1.0  0.9999999527659948  5.4162384528081396e-08  0.9999999817946772  1.0000
  O   O1        1.0  0.23386636541965747  0.23386637244334121  0.7661336848176642  1.0000
  O   O2        1.0  0.7661337303289726  0.7661334925017105  0.23386640232926162  1.0000
  O   O3        1.0  0.7661336607849415  0.23386627067024252  0.23386645727062486  1.0000
  O   O4        1.0  0.23386646296352812  0.7661336561746773  0.766133593349952  1.0000
  O   O5        1.0  0.23386639964533318  0.7661335803928128  0.23386635757059002  1.0000
  O   O6        1.0  0.7661336079736472  0.23386631550217252  0.7661337160486704  1.0000
