data_image0
_chemical_formula_structural       Rh2BeS6
_chemical_formula_sum              "Rh2 Be1 S6"
_cell_length_a       5.502319806575778
_cell_length_b       5.502319785316342
_cell_length_c       5.502319749558607
_cell_angle_alpha    59.99999798645082
_cell_angle_beta     59.999998413640284
_cell_angle_gamma    59.99999809654096

_space_group_name_H-M_alt    "P 1"
_space_group_IT_number       1

loop_
  _space_group_symop_operation_xyz
  'x, y, z'

loop_
  _atom_site_type_symbol
  _atom_site_label
  _atom_site_symmetry_multiplicity
  _atom_site_fract_x
  _atom_site_fract_y
  _atom_site_fract_z
  _atom_site_occupancy
  Rh  Rh1       1.0  0.2500025276663196  0.24999766857172515  0.250000436564158  1.0000
  Rh  Rh2       1.0  0.7499936324439278  0.7500017734175356  0.7500033159111446  1.0000
  Be  Be1       1.0  0.9999998150930434  0.999999975515428  2.3373225250004808e-07  1.0000
  S   S1        1.0  0.2571888144422561  0.25718514762415123  0.7428130982017339  1.0000
  S   S2        1.0  0.7428119818462505  0.7428148218963214  0.25718629498661033  1.0000
  S   S3        1.0  0.7428124889392991  0.25718688058620304  0.2571864760217711  1.0000
  S   S4        1.0  0.25718870920140063  0.7428138791181484  0.7428122357299999  1.0000
  S   S5        1.0  0.2571893740581007  0.7428132601511316  0.25718415741553907  1.0000
  S   S6        1.0  0.7428126537748805  0.25718661588280567  0.7428137743929157  1.0000
