data_image0
_chemical_formula_structural       Rh2BS6
_chemical_formula_sum              "Rh2 B1 S6"
_cell_length_a       5.715019345145415
_cell_length_b       5.715018478910007
_cell_length_c       5.715018247076807
_cell_angle_alpha    59.999993960632914
_cell_angle_beta     59.99999436498816
_cell_angle_gamma    59.99999690068496

_space_group_name_H-M_alt    "P 1"
_space_group_IT_number       1

loop_
  _space_group_symop_operation_xyz
  'x, y, z'

loop_
  _atom_site_type_symbol
  _atom_site_label
  _atom_site_symmetry_multiplicity
  _atom_site_fract_x
  _atom_site_fract_y
  _atom_site_fract_z
  _atom_site_occupancy
  Rh  Rh1       1.0  0.2500003312795103  0.24999898674737855  0.25000020052946537  1.0000
  Rh  Rh2       1.0  0.7500019500001717  0.7500023049563206  0.749993048714461  1.0000
  B   B1        1.0  0.999999998102089  0.9999999935709111  6.365587401832118e-08  1.0000
  S   S1        1.0  0.2492200798433794  0.24921992082517996  0.750779611985286  1.0000
  S   S2        1.0  0.7507796633486622  0.7507797657495558  0.24922221453327936  1.0000
  S   S3        1.0  0.7507795689776738  0.24921816444466327  0.24922276244266758  1.0000
  S   S4        1.0  0.24922004253802243  0.7507802684581832  0.7507797689985266  1.0000
  S   S5        1.0  0.2492184205336253  0.7507803519914572  0.24922233385471365  1.0000
  S   S6        1.0  0.7507799287460604  0.24922020679596263  0.7507799914832591  1.0000
