data_image0
_chemical_formula_structural       Rh2BSe6
_chemical_formula_sum              "Rh2 B1 Se6"
_cell_length_a       6.154461329267351
_cell_length_b       6.154460890554592
_cell_length_c       6.154461448929559
_cell_angle_alpha    60.00000098504452
_cell_angle_beta     60.00000119724564
_cell_angle_gamma    59.999999531766626

_space_group_name_H-M_alt    "P 1"
_space_group_IT_number       1

loop_
  _space_group_symop_operation_xyz
  'x, y, z'

loop_
  _atom_site_type_symbol
  _atom_site_label
  _atom_site_symmetry_multiplicity
  _atom_site_fract_x
  _atom_site_fract_y
  _atom_site_fract_z
  _atom_site_occupancy
  Rh  Rh1       1.0  0.2499996487913958  0.24999959337234057  0.2500007157937954  1.0000
  Rh  Rh2       1.0  0.7499999555157402  0.7500003681462409  0.7499993864422764  1.0000
  B   B1        1.0  0.9999999526397366  2.3880138344536975e-08  0.9999999824929868  1.0000
  Se  Se1       1.0  0.23451267419665162  0.23451255797371676  0.7654873294220429  1.0000
  Se  Se2       1.0  0.7654873268407578  0.7654874572751924  0.2345129066728318  1.0000
  Se  Se3       1.0  0.7654874060478126  0.2345124185848316  0.2345128466830425  1.0000
  Se  Se4       1.0  0.23451268480008458  0.7654876424343379  0.7654871380148186  1.0000
  Se  Se5       1.0  0.2345125218855657  0.7654874768617816  0.234512685369916  1.0000
  Se  Se6       1.0  0.765487829718541  0.23451245480662428  0.7654870207715042  1.0000
