data_image0
_chemical_formula_structural       Rh2CoSe6
_chemical_formula_sum              "Rh2 Co1 Se6"
_cell_length_a       6.14068437306922
_cell_length_b       6.140684876335752
_cell_length_c       6.140684382766838
_cell_angle_alpha    60.000006057795204
_cell_angle_beta     60.00000151365622
_cell_angle_gamma    60.00000173979017

_space_group_name_H-M_alt    "P 1"
_space_group_IT_number       1

loop_
  _space_group_symop_operation_xyz
  'x, y, z'

loop_
  _atom_site_type_symbol
  _atom_site_label
  _atom_site_symmetry_multiplicity
  _atom_site_fract_x
  _atom_site_fract_y
  _atom_site_fract_z
  _atom_site_occupancy
  Rh  Rh1       1.0  0.25000003948096433  0.25000081699079757  0.24999925033725923  1.0000
  Rh  Rh2       1.0  0.7499997955966614  0.7500004804302939  0.7500008974829871  1.0000
  Co  Co1       1.0  0.9999999731626382  0.9999999281988674  0.9999999988362727  1.0000
  Se  Se1       1.0  0.27231597899571763  0.27231559719492304  0.7276842656409224  1.0000
  Se  Se2       1.0  0.7276843441419965  0.7276841006564464  0.27231502929632834  1.0000
  Se  Se3       1.0  0.7276842785672839  0.27231572639493135  0.27231586985804507  1.0000
  Se  Se4       1.0  0.27231572241753577  0.7276836742795731  0.7276846922920658  1.0000
  Se  Se5       1.0  0.2723159298856799  0.7276842657487367  0.27231556261357787  1.0000
  Se  Se6       1.0  0.7276839231494943  0.27231543210266324  0.727684428235605  1.0000
