data_image0
_chemical_formula_structural       Rh2CrSe6
_chemical_formula_sum              "Rh2 Cr1 Se6"
_cell_length_a       6.120271988473732
_cell_length_b       6.120272552792638
_cell_length_c       6.120272060274064
_cell_angle_alpha    59.99999858979832
_cell_angle_beta     59.999997031193594
_cell_angle_gamma    59.99999892814565

_space_group_name_H-M_alt    "P 1"
_space_group_IT_number       1

loop_
  _space_group_symop_operation_xyz
  'x, y, z'

loop_
  _atom_site_type_symbol
  _atom_site_label
  _atom_site_symmetry_multiplicity
  _atom_site_fract_x
  _atom_site_fract_y
  _atom_site_fract_z
  _atom_site_occupancy
  Rh  Rh1       1.0  0.25000031282200946  0.24999966447233513  0.250000103331012  1.0000
  Rh  Rh2       1.0  0.7499999927375055  0.7500004382315157  0.7499979265579491  1.0000
  Cr  Cr1       1.0  6.460496611774719e-08  0.999999975986462  5.846914119330267e-09  1.0000
  Se  Se1       1.0  0.27438982824253616  0.2743895560641122  0.7256101763638156  1.0000
  Se  Se2       1.0  0.7256097495121901  0.7256107207377976  0.2743905681786451  1.0000
  Se  Se3       1.0  0.7256102590144293  0.274389052848843  0.27439047330215305  1.0000
  Se  Se4       1.0  0.2743901641605522  0.7256103234454512  0.7256103330961993  1.0000
  Se  Se5       1.0  0.27438922515450764  0.7256102098019742  0.27439023347443875  1.0000
  Se  Se6       1.0  0.7256104044365668  0.2743900529920499  0.7256101866118171  1.0000
