data_image0
_chemical_formula_structural       Rh2CuO6
_chemical_formula_sum              "Rh2 Cu1 O6"
_cell_length_a       5.04906187547553
_cell_length_b       5.0490618301933905
_cell_length_c       5.049061803331318
_cell_angle_alpha    59.99999935300187
_cell_angle_beta     59.999998469001504
_cell_angle_gamma    59.999999382976114

_space_group_name_H-M_alt    "P 1"
_space_group_IT_number       1

loop_
  _space_group_symop_operation_xyz
  'x, y, z'

loop_
  _atom_site_type_symbol
  _atom_site_label
  _atom_site_symmetry_multiplicity
  _atom_site_fract_x
  _atom_site_fract_y
  _atom_site_fract_z
  _atom_site_occupancy
  Rh  Rh1       1.0  0.24999964871953964  0.2500002943931616  0.2499999792007026  1.0000
  Rh  Rh2       1.0  0.7499997031827067  0.7499998813703335  0.7500003293516068  1.0000
  Cu  Cu1       1.0  4.990103394771768e-09  0.9999999781688078  1.04011104193899e-08  1.0000
  O   O1        1.0  0.25563339666445634  0.25563316802229596  0.7443667372832463  1.0000
  O   O2        1.0  0.7443668263916163  0.7443666172054293  0.2556331685536142  1.0000
  O   O3        1.0  0.7443668341337645  0.2556333873732034  0.25563314620988575  1.0000
  O   O4        1.0  0.25563344812554356  0.7443666113150673  0.7443668055071516  1.0000
  O   O5        1.0  0.2556333506793032  0.7443667480129207  0.25563319415310165  1.0000
  O   O6        1.0  0.744366815983431  0.2556333161689265  0.7443666479369497  1.0000
