data_image0
_chemical_formula_structural       Rh2CrO6
_chemical_formula_sum              "Rh2 Cr1 O6"
_cell_length_a       5.062380404227907
_cell_length_b       5.062380376689921
_cell_length_c       5.062380433143254
_cell_angle_alpha    60.000000306093185
_cell_angle_beta     60.00000057050221
_cell_angle_gamma    60.0000006293078

_space_group_name_H-M_alt    "P 1"
_space_group_IT_number       1

loop_
  _space_group_symop_operation_xyz
  'x, y, z'

loop_
  _atom_site_type_symbol
  _atom_site_label
  _atom_site_symmetry_multiplicity
  _atom_site_fract_x
  _atom_site_fract_y
  _atom_site_fract_z
  _atom_site_occupancy
  Rh  Rh1       1.0  0.24999967798274855  0.25000019213919683  0.24999990437193875  1.0000
  Rh  Rh2       1.0  0.7499999769072487  0.7500001288459338  0.7499997202429796  1.0000
  Cr  Cr1       1.0  0.9999999596110842  4.838612318215853e-09  9.873730357480898e-09  1.0000
  O   O1        1.0  0.25364889585059197  0.25364898019349824  0.7463510996631794  1.0000
  O   O2        1.0  0.7463513153448593  0.7463508351566238  0.2536489895046301  1.0000
  O   O3        1.0  0.7463511376626739  0.2536487881024994  0.2536490819931381  1.0000
  O   O4        1.0  0.2536490489721063  0.7463510393441543  0.7463510726673998  1.0000
  O   O5        1.0  0.2536489012952406  0.7463511289216844  0.25364903340346306  1.0000
  O   O6        1.0  0.7463510898661107  0.25364890174669613  0.7463510956540176  1.0000
