data_image0
_chemical_formula_structural       Rh2CuSe6
_chemical_formula_sum              "Rh2 Cu1 Se6"
_cell_length_a       6.191309130360086
_cell_length_b       6.191309178861708
_cell_length_c       6.191309372005867
_cell_angle_alpha    59.999998482696206
_cell_angle_beta     59.99999746441547
_cell_angle_gamma    59.999997692766854

_space_group_name_H-M_alt    "P 1"
_space_group_IT_number       1

loop_
  _space_group_symop_operation_xyz
  'x, y, z'

loop_
  _atom_site_type_symbol
  _atom_site_label
  _atom_site_symmetry_multiplicity
  _atom_site_fract_x
  _atom_site_fract_y
  _atom_site_fract_z
  _atom_site_occupancy
  Rh  Rh1       1.0  0.25000094454639205  0.25000072963727915  0.24999862243475243  1.0000
  Rh  Rh2       1.0  0.7499993403722875  0.7500000069927185  0.7499998548963687  1.0000
  Cu  Cu1       1.0  3.161186595546401e-08  0.9999999723056493  0.9999999738137337  1.0000
  Se  Se1       1.0  0.28110623741078783  0.2811056936916155  0.718894250112597  1.0000
  Se  Se2       1.0  0.7188939882410582  0.7188939450552103  0.28110627721087655  1.0000
  Se  Se3       1.0  0.718893529491406  0.2811061050288808  0.28110590225387905  1.0000
  Se  Se4       1.0  0.2811063392245447  0.71889344074406  0.7188946109797386  1.0000
  Se  Se5       1.0  0.2811061301865519  0.7188938940944826  0.2811058665563969  1.0000
  Se  Se6       1.0  0.718893451436618  0.28110619963096406  0.7188946583820749  1.0000
