data_image0
_chemical_formula_structural       Rh2CS6
_chemical_formula_sum              "Rh2 C1 S6"
_cell_length_a       5.574262336621001
_cell_length_b       5.574261364800309
_cell_length_c       5.57426255272143
_cell_angle_alpha    59.999993282266956
_cell_angle_beta     60.00000061336571
_cell_angle_gamma    59.999993738684545

_space_group_name_H-M_alt    "P 1"
_space_group_IT_number       1

loop_
  _space_group_symop_operation_xyz
  'x, y, z'

loop_
  _atom_site_type_symbol
  _atom_site_label
  _atom_site_symmetry_multiplicity
  _atom_site_fract_x
  _atom_site_fract_y
  _atom_site_fract_z
  _atom_site_occupancy
  Rh  Rh1       1.0  0.2500023258705911  0.24999758032016922  0.24999856278012692  1.0000
  Rh  Rh2       1.0  0.7499978464362335  0.7500015097586311  0.7500032462895133  1.0000
  C   C1        1.0  0.9999993738513684  0.9999997033856881  0.9999985239054465  1.0000
  S   S1        1.0  0.25078587667290275  0.25078284635274367  0.749216237815469  1.0000
  S   S2        1.0  0.7492146225293217  0.7492175686033606  0.25078136375459636  1.0000
  S   S3        1.0  0.7492153994144234  0.25078478000222854  0.25078446407958477  1.0000
  S   S4        1.0  0.25078400360901865  0.7492160524110577  0.7492163471861041  1.0000
  S   S5        1.0  0.25078625604713745  0.7492171526782627  0.2507830928943372  1.0000
  S   S6        1.0  0.749214315560505  0.2507827964834912  0.7492181695055518  1.0000
