data_image0
_chemical_formula_structural       Rh2CoO6
_chemical_formula_sum              "Rh2 Co1 O6"
_cell_length_a       5.02783959970255
_cell_length_b       5.027839583166476
_cell_length_c       5.027839559246465
_cell_angle_alpha    59.999999608344496
_cell_angle_beta     60.00000010585565
_cell_angle_gamma    59.99999965593304

_space_group_name_H-M_alt    "P 1"
_space_group_IT_number       1

loop_
  _space_group_symop_operation_xyz
  'x, y, z'

loop_
  _atom_site_type_symbol
  _atom_site_label
  _atom_site_symmetry_multiplicity
  _atom_site_fract_x
  _atom_site_fract_y
  _atom_site_fract_z
  _atom_site_occupancy
  Rh  Rh1       1.0  0.25000038544718134  0.24999988440108314  0.2499999016001662  1.0000
  Rh  Rh2       1.0  0.7500000527766477  0.7500000770544992  0.7500001739375008  1.0000
  Co  Co1       1.0  0.9999999774278994  1.9487413558062486e-08  4.1320860191112535e-08  1.0000
  O   O1        1.0  0.2520906967037275  0.25209077634020655  0.7479092622764684  1.0000
  O   O2        1.0  0.7479092480943846  0.7479092874243004  0.2520906846246838  1.0000
  O   O3        1.0  0.7479091257748899  0.25209072108006947  0.2520907540148064  1.0000
  O   O4        1.0  0.2520906835469155  0.7479093012736843  0.747909146082919  1.0000
  O   O5        1.0  0.2520907892029066  0.7479092967514963  0.2520906548866955  1.0000
  O   O6        1.0  0.7479090485380439  0.25209064034482165  0.7479093969435775  1.0000
