data_image0
_chemical_formula_structural       Rh2CO6
_chemical_formula_sum              "Rh2 C1 O6"
_cell_length_a       4.831920019805016
_cell_length_b       4.8319199916443525
_cell_length_c       4.8319201003883245
_cell_angle_alpha    59.99999826638345
_cell_angle_beta     59.99999849302358
_cell_angle_gamma    59.99999887920373

_space_group_name_H-M_alt    "P 1"
_space_group_IT_number       1

loop_
  _space_group_symop_operation_xyz
  'x, y, z'

loop_
  _atom_site_type_symbol
  _atom_site_label
  _atom_site_symmetry_multiplicity
  _atom_site_fract_x
  _atom_site_fract_y
  _atom_site_fract_z
  _atom_site_occupancy
  Rh  Rh1       1.0  0.24999992833761775  0.25000005723481555  0.25000002005638605  1.0000
  Rh  Rh2       1.0  0.7499999279414293  0.7499999866716293  0.7500000212037301  1.0000
  C   C1        1.0  0.9999998323789242  1.0138784502510244e-07  6.829931680573144e-08  1.0000
  O   O1        1.0  0.2157249511874963  0.21572483780190435  0.7842750753504122  1.0000
  O   O2        1.0  0.7842751503189498  0.7842750869738225  0.21572487388737355  1.0000
  O   O3        1.0  0.7842751727261519  0.21572487605218013  0.21572495098255853  1.0000
  O   O4        1.0  0.21572489529914052  0.7842750918133802  0.7842750783032837  1.0000
  O   O5        1.0  0.21572495333005248  0.7842750631852329  0.21572491522936946  1.0000
  O   O6        1.0  0.7842751872321716  0.21572490214563195  0.7842750045508109  1.0000
