data_image0
_chemical_formula_structural       Rh2CuS6
_chemical_formula_sum              "Rh2 Cu1 S6"
_cell_length_a       6.035125099643069
_cell_length_b       6.035125132746181
_cell_length_c       6.035125220875134
_cell_angle_alpha    59.999998173377584
_cell_angle_beta     59.99999935503195
_cell_angle_gamma    60.000000351801035

_space_group_name_H-M_alt    "P 1"
_space_group_IT_number       1

loop_
  _space_group_symop_operation_xyz
  'x, y, z'

loop_
  _atom_site_type_symbol
  _atom_site_label
  _atom_site_symmetry_multiplicity
  _atom_site_fract_x
  _atom_site_fract_y
  _atom_site_fract_z
  _atom_site_occupancy
  Rh  Rh1       1.0  0.2500000315816133  0.2500000362850594  0.25000008942200097  1.0000
  Rh  Rh2       1.0  0.750000104102545  0.7499998856254441  0.7500003868007851  1.0000
  Cu  Cu1       1.0  0.9999999819877843  8.117444914353515e-09  0.999999985063788  1.0000
  S   S1        1.0  0.26331651912158044  0.2633166139345144  0.7366834654883804  1.0000
  S   S2        1.0  0.7366834784931962  0.7366834581487268  0.26331638166334154  1.0000
  S   S3        1.0  0.736683389467514  0.26331661428896336  0.2633164722498537  1.0000
  S   S4        1.0  0.2633164868367542  0.736683431412581  0.7366834006959443  1.0000
  S   S5        1.0  0.2633165848449086  0.7366834183637708  0.26331646930427355  1.0000
  S   S6        1.0  0.7366834353448745  0.2633165400752437  0.7366833438476701  1.0000
