data_image0
_chemical_formula_structural       Rh2CrS6
_chemical_formula_sum              "Rh2 Cr1 S6"
_cell_length_a       5.753496444587364
_cell_length_b       5.7534963396546415
_cell_length_c       5.7534963617527435
_cell_angle_alpha    60.00000202156246
_cell_angle_beta     60.00000085603997
_cell_angle_gamma    60.000003379686305

_space_group_name_H-M_alt    "P 1"
_space_group_IT_number       1

loop_
  _space_group_symop_operation_xyz
  'x, y, z'

loop_
  _atom_site_type_symbol
  _atom_site_label
  _atom_site_symmetry_multiplicity
  _atom_site_fract_x
  _atom_site_fract_y
  _atom_site_fract_z
  _atom_site_occupancy
  Rh  Rh1       1.0  0.2499991012864228  0.2500006047371587  0.25000035322952197  1.0000
  Rh  Rh2       1.0  0.7499995301464103  0.7500002049168534  0.7499997622284215  1.0000
  Cr  Cr1       1.0  4.7053919395003256e-08  0.9999998829216866  6.977366674550834e-08  1.0000
  S   S1        1.0  0.265738788405153  0.2657383647086325  0.7342613639075715  1.0000
  S   S2        1.0  0.7342617657914605  0.7342612464892283  0.26573861534610843  1.0000
  S   S3        1.0  0.7342615856102658  0.26573844726958706  0.2657386231531587  1.0000
  S   S4        1.0  0.2657388160333459  0.7342614108570817  0.734261376697491  1.0000
  S   S5        1.0  0.26573861110745794  0.7342611893765641  0.26573865175829026  1.0000
  S   S6        1.0  0.7342617587901099  0.2657386495918296  0.7342611771422045  1.0000
