data_image0
_chemical_formula_structural       Rh2FeSe6
_chemical_formula_sum              "Rh2 Fe1 Se6"
_cell_length_a       6.067297964428901
_cell_length_b       6.067298995843324
_cell_length_c       6.067297896078955
_cell_angle_alpha    59.99999317699667
_cell_angle_beta     59.99999700340945
_cell_angle_gamma    59.99999766507972

_space_group_name_H-M_alt    "P 1"
_space_group_IT_number       1

loop_
  _space_group_symop_operation_xyz
  'x, y, z'

loop_
  _atom_site_type_symbol
  _atom_site_label
  _atom_site_symmetry_multiplicity
  _atom_site_fract_x
  _atom_site_fract_y
  _atom_site_fract_z
  _atom_site_occupancy
  Rh  Rh1       1.0  0.24999424563164924  0.25000008951031333  0.24999997059299822  1.0000
  Rh  Rh2       1.0  0.7500005680645714  0.7500005410399254  0.7500041129558535  1.0000
  Fe  Fe1       1.0  4.037194632018242e-07  0.9999999535722026  0.9999997686123963  1.0000
  Se  Se1       1.0  0.2707966607718543  0.27079597261396454  0.7292047287331359  1.0000
  Se  Se2       1.0  0.7292046497042937  0.7292031581168222  0.2707938599439322  1.0000
  Se  Se3       1.0  0.7292068165335148  0.2707970502915094  0.27079508006382363  1.0000
  Se  Se4       1.0  0.27079496198287545  0.7292032855432551  0.7292040466232569  1.0000
  Se  Se5       1.0  0.27079675182185803  0.7292047512682852  0.2707956655155915  1.0000
  Se  Se6       1.0  0.7292049790828288  0.2707952535162196  0.72920266653895  1.0000
