data_image0
_chemical_formula_structural       Rh2FeO6
_chemical_formula_sum              "Rh2 Fe1 O6"
_cell_length_a       5.1131468033142955
_cell_length_b       5.113146758140296
_cell_length_c       5.113146790479374
_cell_angle_alpha    60.00000031521353
_cell_angle_beta     59.99999983265837
_cell_angle_gamma    60.00000028077334

_space_group_name_H-M_alt    "P 1"
_space_group_IT_number       1

loop_
  _space_group_symop_operation_xyz
  'x, y, z'

loop_
  _atom_site_type_symbol
  _atom_site_label
  _atom_site_symmetry_multiplicity
  _atom_site_fract_x
  _atom_site_fract_y
  _atom_site_fract_z
  _atom_site_occupancy
  Rh  Rh1       1.0  0.25000088847275415  0.2499999622697894  0.249999415706604  1.0000
  Rh  Rh2       1.0  0.7500002735450448  0.7499995490740405  0.7499998251000525  1.0000
  Fe  Fe1       1.0  0.9999999805872386  3.113871735978522e-08  0.999999976535337  1.0000
  O   O1        1.0  0.252105753575257  0.25210621492547813  0.7478939848861498  1.0000
  O   O2        1.0  0.7478939251166088  0.7478940269805704  0.2521062288039226  1.0000
  O   O3        1.0  0.7478937311991914  0.25210602086931094  0.2521059788247371  1.0000
  O   O4        1.0  0.2521059408823076  0.7478939359977061  0.7478941733812967  1.0000
  O   O5        1.0  0.25210590980450276  0.7478941481568612  0.25210598915236515  1.0000
  O   O6        1.0  0.7478935770455809  0.25210612728319093  0.7478944210361645  1.0000
