data_image0
_chemical_formula_structural       Rh2GeSe6
_chemical_formula_sum              "Rh2 Ge1 Se6"
_cell_length_a       6.308938085630227
_cell_length_b       6.308937772357714
_cell_length_c       6.308937825265381
_cell_angle_alpha    59.999999936279785
_cell_angle_beta     59.999999348205975
_cell_angle_gamma    59.999999453182866

_space_group_name_H-M_alt    "P 1"
_space_group_IT_number       1

loop_
  _space_group_symop_operation_xyz
  'x, y, z'

loop_
  _atom_site_type_symbol
  _atom_site_label
  _atom_site_symmetry_multiplicity
  _atom_site_fract_x
  _atom_site_fract_y
  _atom_site_fract_z
  _atom_site_occupancy
  Rh  Rh1       1.0  0.2500012375033218  0.25000000537166905  0.24999909576882004  1.0000
  Rh  Rh2       1.0  0.749998782854228  0.7500013361890537  0.7499990619813781  1.0000
  Ge  Ge1       1.0  2.751106649495951e-08  0.9999999009944452  6.90333538188785e-08  1.0000
  Se  Se1       1.0  0.2850624392608832  0.2850613603417898  0.7149380098863107  1.0000
  Se  Se2       1.0  0.7149377837109082  0.7149383136547911  0.28506222129355896  1.0000
  Se  Se3       1.0  0.7149375548450648  0.2850612942014477  0.2850626669614576  1.0000
  Se  Se4       1.0  0.2850625675102517  0.714937737229671  0.7149384033999776  1.0000
  Se  Se5       1.0  0.2850620479571949  0.7149381580534618  0.2850619164736756  1.0000
  Se  Se6       1.0  0.7149375743683118  0.2850618847873431  0.7149385494861994  1.0000
