data_image0
_chemical_formula_structural       Rh2IrS6
_chemical_formula_sum              "Rh2 Ir1 S6"
_cell_length_a       5.953254575484549
_cell_length_b       5.953254793835861
_cell_length_c       5.953254655566286
_cell_angle_alpha    60.000001220974454
_cell_angle_beta     60.0000012533367
_cell_angle_gamma    60.000000792446514

_space_group_name_H-M_alt    "P 1"
_space_group_IT_number       1

loop_
  _space_group_symop_operation_xyz
  'x, y, z'

loop_
  _atom_site_type_symbol
  _atom_site_label
  _atom_site_symmetry_multiplicity
  _atom_site_fract_x
  _atom_site_fract_y
  _atom_site_fract_z
  _atom_site_occupancy
  Rh  Rh1       1.0  0.2500000487146818  0.2500004987733095  0.24999974077092285  1.0000
  Rh  Rh2       1.0  0.7500000517224938  0.7499996324339105  0.7500002854542176  1.0000
  Ir  Ir1       1.0  0.9999999109895045  2.2629962756531448e-07  0.9999999599112421  1.0000
  S   S1        1.0  0.26976562024398876  0.2697656925615348  0.7302343588058433  1.0000
  S   S2        1.0  0.7302345534347434  0.7302340559935884  0.2697656507897159  1.0000
  S   S3        1.0  0.7302341874257071  0.269765856189178  0.26976548066551953  1.0000
  S   S4        1.0  0.26976570921779985  0.7302341124937664  0.7302344314022308  1.0000
  S   S5        1.0  0.2697656921077569  0.7302341460022173  0.2697656966658712  1.0000
  S   S6        1.0  0.7302342112958465  0.26976577330626283  0.7302343912463796  1.0000
