data_image0
_chemical_formula_structural       Rh2IrSe6
_chemical_formula_sum              "Rh2 Ir1 Se6"
_cell_length_a       6.274711172754729
_cell_length_b       6.274711053552793
_cell_length_c       6.2747114405340625
_cell_angle_alpha    59.9999993003013
_cell_angle_beta     60.000001334770126
_cell_angle_gamma    59.999998527734455

_space_group_name_H-M_alt    "P 1"
_space_group_IT_number       1

loop_
  _space_group_symop_operation_xyz
  'x, y, z'

loop_
  _atom_site_type_symbol
  _atom_site_label
  _atom_site_symmetry_multiplicity
  _atom_site_fract_x
  _atom_site_fract_y
  _atom_site_fract_z
  _atom_site_occupancy
  Rh  Rh1       1.0  0.25000091999631335  0.2499994783290716  0.24999933518793363  1.0000
  Rh  Rh2       1.0  0.7500000130986151  0.7500005918086508  0.7500002879405953  1.0000
  Ir  Ir1       1.0  0.9999999520803106  0.9999999394918893  8.927527176090357e-08  1.0000
  Se  Se1       1.0  0.27830673433415154  0.2783065588533967  0.721693475069738  1.0000
  Se  Se2       1.0  0.7216930396997705  0.7216937533167841  0.2783063563623342  1.0000
  Se  Se3       1.0  0.7216932710500695  0.278306576027464  0.2783066612288971  1.0000
  Se  Se4       1.0  0.27830640718936267  0.721693162291596  0.7216935560243338  1.0000
  Se  Se5       1.0  0.27830671662374684  0.7216936656912142  0.27830648930170243  1.0000
  Se  Se6       1.0  0.7216929361647041  0.2783062814784252  0.7216937525917424  1.0000
