data_image0
_chemical_formula_structural       Rh2MgSe6
_chemical_formula_sum              "Rh2 Mg1 Se6"
_cell_length_a       6.279237635476077
_cell_length_b       6.2792377398851
_cell_length_c       6.2792379344417455
_cell_angle_alpha    60.00000066194589
_cell_angle_beta     59.9999989892381
_cell_angle_gamma    60.000000059470366

_space_group_name_H-M_alt    "P 1"
_space_group_IT_number       1

loop_
  _space_group_symop_operation_xyz
  'x, y, z'

loop_
  _atom_site_type_symbol
  _atom_site_label
  _atom_site_symmetry_multiplicity
  _atom_site_fract_x
  _atom_site_fract_y
  _atom_site_fract_z
  _atom_site_occupancy
  Rh  Rh1       1.0  0.2500001503093594  0.25000005063759195  0.2499998357426684  1.0000
  Rh  Rh2       1.0  0.749999613308683  0.7500002318819454  0.7499999991241613  1.0000
  Mg  Mg1       1.0  0.9999999726393224  0.9999999882971964  6.093803883836467e-08  1.0000
  Se  Se1       1.0  0.2857457273924638  0.28574539562144746  0.714254394870507  1.0000
  Se  Se2       1.0  0.7142542979162985  0.7142544714485304  0.28574556783733635  1.0000
  Se  Se3       1.0  0.7142544392427355  0.28574543890624254  0.285745655137907  1.0000
  Se  Se4       1.0  0.28574579369812153  0.7142543403927061  0.7142545597791918  1.0000
  Se  Se5       1.0  0.2857457312929479  0.7142544871988478  0.28574535642057003  1.0000
  Se  Se6       1.0  0.7142542742114877  0.28574558271974265  0.7142545928000801  1.0000
