data_image0
_chemical_formula_structural       Rh2MnS6
_chemical_formula_sum              "Rh2 Mn1 S6"
_cell_length_a       6.062893755601808
_cell_length_b       6.0628941875394595
_cell_length_c       6.062893646679088
_cell_angle_alpha    60.00000288212652
_cell_angle_beta     60.000000218355815
_cell_angle_gamma    59.99999948654204

_space_group_name_H-M_alt    "P 1"
_space_group_IT_number       1

loop_
  _space_group_symop_operation_xyz
  'x, y, z'

loop_
  _atom_site_type_symbol
  _atom_site_label
  _atom_site_symmetry_multiplicity
  _atom_site_fract_x
  _atom_site_fract_y
  _atom_site_fract_z
  _atom_site_occupancy
  Rh  Rh1       1.0  0.25000011062244204  0.24999980146040932  0.24999975887445042  1.0000
  Rh  Rh2       1.0  0.74999977278461  0.7500002588693027  0.7500005968665944  1.0000
  Mn  Mn1       1.0  6.108053550447818e-08  0.9999999595986714  0.9999999401790732  1.0000
  S   S1        1.0  0.2598709934525308  0.25987080904074833  0.7401292501702598  1.0000
  S   S2        1.0  0.7401290778897966  0.7401291502856405  0.259870418847607  1.0000
  S   S3        1.0  0.7401291724496959  0.25987086233491297  0.25987091304276944  1.0000
  S   S4        1.0  0.25987087761595606  0.7401290808309464  0.7401291210629621  1.0000
  S   S5        1.0  0.25987096627824624  0.7401292259683708  0.2598708156337882  1.0000
  S   S6        1.0  0.7401289955415911  0.2598708505218688  0.7401291794388863  1.0000
