data_image0
_chemical_formula_structural       Rh2MnSe6
_chemical_formula_sum              "Rh2 Mn1 Se6"
_cell_length_a       6.167427460762225
_cell_length_b       6.167427536123582
_cell_length_c       6.167427123812721
_cell_angle_alpha    59.99999582596149
_cell_angle_beta     59.999995665102574
_cell_angle_gamma    59.99999665505146

_space_group_name_H-M_alt    "P 1"
_space_group_IT_number       1

loop_
  _space_group_symop_operation_xyz
  'x, y, z'

loop_
  _atom_site_type_symbol
  _atom_site_label
  _atom_site_symmetry_multiplicity
  _atom_site_fract_x
  _atom_site_fract_y
  _atom_site_fract_z
  _atom_site_occupancy
  Rh  Rh1       1.0  0.25000051640075927  0.24999865874045063  0.2500003560224162  1.0000
  Rh  Rh2       1.0  0.7500003450373353  0.7500005098663136  0.7499990920141152  1.0000
  Mn  Mn1       1.0  4.563506992604452e-08  0.9999999304960261  2.2059232199553794e-09  1.0000
  Se  Se1       1.0  0.27451923046096743  0.27451865300897427  0.7254809992275068  1.0000
  Se  Se2       1.0  0.7254807710106597  0.7254813655320731  0.2745191704934946  1.0000
  Se  Se3       1.0  0.7254808812749344  0.27451876756187454  0.274519328334062  1.0000
  Se  Se4       1.0  0.2745188002061866  0.7254815369383915  0.7254806897747303  1.0000
  Se  Se5       1.0  0.27451856369684663  0.725481521385092  0.27451924071725625  1.0000
  Se  Se6       1.0  0.7254808609020929  0.2745190651027105  0.7254811199302031  1.0000
