data_image0
_chemical_formula_structural       Rh2MoSe6
_chemical_formula_sum              "Rh2 Mo1 Se6"
_cell_length_a       6.283335314169364
_cell_length_b       6.2833353342913165
_cell_length_c       6.283335415323426
_cell_angle_alpha    60.000000481810865
_cell_angle_beta     60.000001034811106
_cell_angle_gamma    60.000001927740946

_space_group_name_H-M_alt    "P 1"
_space_group_IT_number       1

loop_
  _space_group_symop_operation_xyz
  'x, y, z'

loop_
  _atom_site_type_symbol
  _atom_site_label
  _atom_site_symmetry_multiplicity
  _atom_site_fract_x
  _atom_site_fract_y
  _atom_site_fract_z
  _atom_site_occupancy
  Rh  Rh1       1.0  0.24999906028984975  0.24999998347554614  0.2500009542544711  1.0000
  Rh  Rh2       1.0  0.7500008758471921  0.7500003714529105  0.7499998021093149  1.0000
  Mo  Mo1       1.0  8.839849268263556e-08  0.9999998616071243  0.9999998387903567  1.0000
  Se  Se1       1.0  0.2766633619679134  0.27666357437356387  0.7233364915962651  1.0000
  Se  Se2       1.0  0.7233367315697836  0.7233363965633901  0.2766635870817738  1.0000
  Se  Se3       1.0  0.7233366420010864  0.2766634443526332  0.2766635141862867  1.0000
  Se  Se4       1.0  0.2766627888396937  0.7233367780305199  0.7233363133533306  1.0000
  Se  Se5       1.0  0.27666332501284774  0.723336559715456  0.2766634870452031  1.0000
  Se  Se6       1.0  0.7233371400659552  0.2766630408743676  0.7233359989936057  1.0000
