data_image0
_chemical_formula_structural       Rh2MoO6
_chemical_formula_sum              "Rh2 Mo1 O6"
_cell_length_a       5.213059064823679
_cell_length_b       5.213058931261466
_cell_length_c       5.213059136839653
_cell_angle_alpha    59.999999523736754
_cell_angle_beta     60.00000044440974
_cell_angle_gamma    60.00000021022761

_space_group_name_H-M_alt    "P 1"
_space_group_IT_number       1

loop_
  _space_group_symop_operation_xyz
  'x, y, z'

loop_
  _atom_site_type_symbol
  _atom_site_label
  _atom_site_symmetry_multiplicity
  _atom_site_fract_x
  _atom_site_fract_y
  _atom_site_fract_z
  _atom_site_occupancy
  Rh  Rh1       1.0  0.24999977719947958  0.2500002867445913  0.2499998603399615  1.0000
  Rh  Rh2       1.0  0.7500001176759516  0.7499999439761522  0.750000045107906  1.0000
  Mo  Mo1       1.0  3.8707111668475295e-08  0.9999999835543505  0.9999999735231935  1.0000
  O   O1        1.0  0.25812816736467253  0.2581282491491101  0.7418717995600407  1.0000
  O   O2        1.0  0.7418718322691941  0.7418717536819155  0.25812811182394296  1.0000
  O   O3        1.0  0.7418719221417945  0.2581282027414292  0.2581282075485842  1.0000
  O   O4        1.0  0.25812818385891145  0.741871720210728  0.7418718747443223  1.0000
  O   O5        1.0  0.25812814825644026  0.7418717008708173  0.2581282818565851  1.0000
  O   O6        1.0  0.7418718191388476  0.2581281727443889  0.7418718387779801  1.0000
