data_image0
_chemical_formula_structural       Rh2NiO6
_chemical_formula_sum              "Rh2 Ni1 O6"
_cell_length_a       5.015921093625913
_cell_length_b       5.015921072714218
_cell_length_c       5.015921070885945
_cell_angle_alpha    60.00000003335728
_cell_angle_beta     59.99999979985134
_cell_angle_gamma    60.00000035827853

_space_group_name_H-M_alt    "P 1"
_space_group_IT_number       1

loop_
  _space_group_symop_operation_xyz
  'x, y, z'

loop_
  _atom_site_type_symbol
  _atom_site_label
  _atom_site_symmetry_multiplicity
  _atom_site_fract_x
  _atom_site_fract_y
  _atom_site_fract_z
  _atom_site_occupancy
  Rh  Rh1       1.0  0.2500002217448972  0.25000002075658817  0.24999992688415298  1.0000
  Rh  Rh2       1.0  0.7500001193646294  0.7500000769200502  0.7499998030368308  1.0000
  Ni  Ni1       1.0  0.9999999914899369  0.999999963374278  0.9999999807012051  1.0000
  O   O1        1.0  0.2509523777416315  0.2509525100678578  0.7490476170982083  1.0000
  O   O2        1.0  0.7490476193380321  0.7490474801733283  0.2509524820983625  1.0000
  O   O3        1.0  0.7490473785009685  0.2509523290561917  0.2509525071196807  1.0000
  O   O4        1.0  0.2509524426917266  0.7490476294427008  0.7490475383930306  1.0000
  O   O5        1.0  0.25095232586290844  0.7490475432034289  0.25095251349026476  1.0000
  O   O6        1.0  0.7490475261862961  0.2509524470377563  0.7490476203421526  1.0000
