data_image0
_chemical_formula_structural       Rh2NO6
_chemical_formula_sum              "Rh2 N1 O6"
_cell_length_a       4.832098822748487
_cell_length_b       4.832098506881771
_cell_length_c       4.832098965281351
_cell_angle_alpha    59.99999475830909
_cell_angle_beta     59.99999385493571
_cell_angle_gamma    59.99999885430377

_space_group_name_H-M_alt    "P 1"
_space_group_IT_number       1

loop_
  _space_group_symop_operation_xyz
  'x, y, z'

loop_
  _atom_site_type_symbol
  _atom_site_label
  _atom_site_symmetry_multiplicity
  _atom_site_fract_x
  _atom_site_fract_y
  _atom_site_fract_z
  _atom_site_occupancy
  Rh  Rh1       1.0  0.2499993187947094  0.24999909510202187  0.2500021508385592  1.0000
  Rh  Rh2       1.0  0.7499995686613751  0.749999287642173  0.7500014581880871  1.0000
  N   N1        1.0  0.9999996967972654  0.999997561712277  1.0834541515436445e-05  1.0000
  O   O1        1.0  0.23319470605613885  0.2331952247160401  0.7668042218787525  1.0000
  O   O2        1.0  0.766806736671483  0.7668065037036622  0.2331930116615855  1.0000
  O   O3        1.0  0.7668080276020598  0.2331927078541456  0.2331915107468613  1.0000
  O   O4        1.0  0.23319596003056411  0.7668045115077078  0.7668031929384898  1.0000
  O   O5        1.0  0.2331922530340975  0.7668086401420118  0.23319102207365588  1.0000
  O   O6        1.0  0.766803741845739  0.23319652773317223  0.7668028366136075  1.0000
