data_image0
_chemical_formula_structural       Rh2PSe6
_chemical_formula_sum              "Rh2 P1 Se6"
_cell_length_a       6.17108991069961
_cell_length_b       6.171089656242704
_cell_length_c       6.17108976495017
_cell_angle_alpha    59.99999858110189
_cell_angle_beta     60.000000041135124
_cell_angle_gamma    60.00000104567461

_space_group_name_H-M_alt    "P 1"
_space_group_IT_number       1

loop_
  _space_group_symop_operation_xyz
  'x, y, z'

loop_
  _atom_site_type_symbol
  _atom_site_label
  _atom_site_symmetry_multiplicity
  _atom_site_fract_x
  _atom_site_fract_y
  _atom_site_fract_z
  _atom_site_occupancy
  Rh  Rh1       1.0  0.2500019418848869  0.2500014670310947  0.24999777199520004  1.0000
  Rh  Rh2       1.0  0.7500006411575578  0.7500003861475645  0.7499996512190106  1.0000
  P   P1        1.0  0.9999998782264501  0.9999998769517393  9.000172010114708e-08  1.0000
  Se  Se1       1.0  0.28458954685532595  0.28459002817667894  0.7154103282054968  1.0000
  Se  Se2       1.0  0.7154100098036723  0.7154098681376692  0.2845899723019431  1.0000
  Se  Se3       1.0  0.7154093290853067  0.284589745772503  0.2845902787339153  1.0000
  Se  Se4       1.0  0.28458974460458086  0.715409376528598  0.7154107620764047  1.0000
  Se  Se5       1.0  0.2845897629945689  0.7154096453504807  0.28459016677323523  1.0000
  Se  Se6       1.0  0.7154091602642565  0.28458961389141846  0.71541094560059  1.0000
