data_image0
_chemical_formula_structural       Rh2PO6
_chemical_formula_sum              "Rh2 P1 O6"
_cell_length_a       4.9179771938998
_cell_length_b       4.917976751282736
_cell_length_c       4.9179772742859935
_cell_angle_alpha    59.99999993821464
_cell_angle_beta     59.999999042295684
_cell_angle_gamma    59.99999831136376

_space_group_name_H-M_alt    "P 1"
_space_group_IT_number       1

loop_
  _space_group_symop_operation_xyz
  'x, y, z'

loop_
  _atom_site_type_symbol
  _atom_site_label
  _atom_site_symmetry_multiplicity
  _atom_site_fract_x
  _atom_site_fract_y
  _atom_site_fract_z
  _atom_site_occupancy
  Rh  Rh1       1.0  0.24999988906425438  0.24999993572747053  0.25000011426059254  1.0000
  Rh  Rh2       1.0  0.7499999484178569  0.7499999989388183  0.7500000554571242  1.0000
  P   P1        1.0  1.869746618279849e-07  2.9137012513393526e-07  0.9999996937268562  1.0000
  O   O1        1.0  0.23788543096501963  0.23788531912195765  0.7621146254820182  1.0000
  O   O2        1.0  0.7621142667611982  0.7621143515679738  0.2378856891678417  1.0000
  O   O3        1.0  0.7621147272351702  0.23788532830556638  0.23788519543295325  1.0000
  O   O4        1.0  0.23788536540896624  0.7621147283875237  0.7621146758891135  1.0000
  O   O5        1.0  0.23788540897962765  0.7621147169840302  0.2378852182666183  1.0000
  O   O6        1.0  0.7621147414143459  0.23788530733460625  0.7621147623691329  1.0000
