data_image0
_chemical_formula_structural       Rh2PS6
_chemical_formula_sum              "Rh2 P1 S6"
_cell_length_a       6.199823705523391
_cell_length_b       6.199823567754253
_cell_length_c       6.199823686044331
_cell_angle_alpha    59.999998589028664
_cell_angle_beta     59.999997072869114
_cell_angle_gamma    59.9999993948519

_space_group_name_H-M_alt    "P 1"
_space_group_IT_number       1

loop_
  _space_group_symop_operation_xyz
  'x, y, z'

loop_
  _atom_site_type_symbol
  _atom_site_label
  _atom_site_symmetry_multiplicity
  _atom_site_fract_x
  _atom_site_fract_y
  _atom_site_fract_z
  _atom_site_occupancy
  Rh  Rh1       1.0  0.2500004321594509  0.24999926285851234  0.2500003286795576  1.0000
  Rh  Rh2       1.0  0.7500003989523433  0.7500001235588339  0.7499995769678235  1.0000
  P   P1        1.0  9.656782580227546e-08  0.999999917031051  0.9999999770710689  1.0000
  S   S1        1.0  0.24770618858967658  0.24770603001738042  0.7522940003327081  1.0000
  S   S2        1.0  0.7522936372057937  0.7522941485558836  0.24770637480844093  1.0000
  S   S3        1.0  0.7522934775922597  0.247705947905104  0.24770628968852573  1.0000
  S   S4        1.0  0.24770563521491792  0.7522942128890899  0.7522937798494975  1.0000
  S   S5        1.0  0.24770604113322836  0.7522941365032813  0.24770605930453757  1.0000
  S   S6        1.0  0.7522941392260952  0.24770616849886187  0.7522936688770645  1.0000
