data_image0
_chemical_formula_structural       Rh2RuSe6
_chemical_formula_sum              "Rh2 Ru1 Se6"
_cell_length_a       6.213301367136099
_cell_length_b       6.213301223949948
_cell_length_c       6.213301183142895
_cell_angle_alpha    59.999999987429554
_cell_angle_beta     60.000001478807164
_cell_angle_gamma    60.000000763746996

_space_group_name_H-M_alt    "P 1"
_space_group_IT_number       1

loop_
  _space_group_symop_operation_xyz
  'x, y, z'

loop_
  _atom_site_type_symbol
  _atom_site_label
  _atom_site_symmetry_multiplicity
  _atom_site_fract_x
  _atom_site_fract_y
  _atom_site_fract_z
  _atom_site_occupancy
  Rh  Rh1       1.0  0.2499993303211227  0.2500003256499058  0.25000010789253996  1.0000
  Rh  Rh2       1.0  0.7500001397282196  0.7499996878071109  0.749999956635073  1.0000
  Ru  Ru1       1.0  4.96333724064134e-08  0.9999999960576683  0.9999999868111822  1.0000
  Se  Se1       1.0  0.2771606536140856  0.27716080255317155  0.7228392993354819  1.0000
  Se  Se2       1.0  0.7228394681656037  0.7228390788357221  0.2771607821864885  1.0000
  Se  Se3       1.0  0.7228395239095999  0.27716081009626864  0.27716061944894327  1.0000
  Se  Se4       1.0  0.27716073477245146  0.7228392013895887  0.7228393591529219  1.0000
  Se  Se5       1.0  0.27716057190583077  0.7228392428148213  0.2771608170862837  1.0000
  Se  Se6       1.0  0.7228395249411195  0.27716084160418064  0.7228390820388791  1.0000
