data_image0
_chemical_formula_structural       Rh2RuO6
_chemical_formula_sum              "Rh2 Ru1 O6"
_cell_length_a       5.226134876219806
_cell_length_b       5.22613483228818
_cell_length_c       5.226134970423024
_cell_angle_alpha    60.00000045380912
_cell_angle_beta     60.00000012730802
_cell_angle_gamma    59.999999068188515

_space_group_name_H-M_alt    "P 1"
_space_group_IT_number       1

loop_
  _space_group_symop_operation_xyz
  'x, y, z'

loop_
  _atom_site_type_symbol
  _atom_site_label
  _atom_site_symmetry_multiplicity
  _atom_site_fract_x
  _atom_site_fract_y
  _atom_site_fract_z
  _atom_site_occupancy
  Rh  Rh1       1.0  0.24999977254913644  0.24999904108520277  0.2500006668601441  1.0000
  Rh  Rh2       1.0  0.7500003089302003  0.749999133978867  0.7499993419341584  1.0000
  Ru  Ru1       1.0  4.336625567962947e-08  0.9999998500159784  6.287618149795752e-08  1.0000
  O   O1        1.0  0.25315596355184256  0.25315660456416283  0.7468436528154058  1.0000
  O   O2        1.0  0.7468435330437778  0.746844087419285  0.2531565954408613  1.0000
  O   O3        1.0  0.7468437470202044  0.25315648555256687  0.25315614295684696  1.0000
  O   O4        1.0  0.2531564455404539  0.7468440142638428  0.7468436352659868  1.0000
  O   O5        1.0  0.2531560103067181  0.7468441558211145  0.2531565266847203  1.0000
  O   O6        1.0  0.7468441697513237  0.2531566134978369  0.7468433985763876  1.0000
