data_image0
_chemical_formula_structural       Rh2RuS6
_chemical_formula_sum              "Rh2 Ru1 S6"
_cell_length_a       5.839049617891798
_cell_length_b       5.839050020833927
_cell_length_c       5.83904995829293
_cell_angle_alpha    60.0000026002367
_cell_angle_beta     60.00000087121115
_cell_angle_gamma    60.00000294015039

_space_group_name_H-M_alt    "P 1"
_space_group_IT_number       1

loop_
  _space_group_symop_operation_xyz
  'x, y, z'

loop_
  _atom_site_type_symbol
  _atom_site_label
  _atom_site_symmetry_multiplicity
  _atom_site_fract_x
  _atom_site_fract_y
  _atom_site_fract_z
  _atom_site_occupancy
  Rh  Rh1       1.0  0.250000532580934  0.24999979446135448  0.24999990096149893  1.0000
  Rh  Rh2       1.0  0.7500000322469134  0.7500003482372793  0.7500004022433338  1.0000
  Ru  Ru1       1.0  9.7578481950345e-08  3.356011519105734e-08  1.3138055176380936e-07  1.0000
  S   S1        1.0  0.26964457537451086  0.26964457003947423  0.7303553676505705  1.0000
  S   S2        1.0  0.7303552202280085  0.7303555013439026  0.26964427003146396  1.0000
  S   S3        1.0  0.7303551258351213  0.2696445999200762  0.26964460138562035  1.0000
  S   S4        1.0  0.26964468343206927  0.7303553770754894  0.730355304434763  1.0000
  S   S5        1.0  0.26964470302427146  0.730355267441755  0.26964442572394404  1.0000
  S   S6        1.0  0.7303550554299653  0.2696444704380127  0.7303555822456257  1.0000
