data_image0
_chemical_formula_structural       Rh2SO6
_chemical_formula_sum              "Rh2 S1 O6"
_cell_length_a       4.9320624369860475
_cell_length_b       4.932062185210821
_cell_length_c       4.932061746245595
_cell_angle_alpha    59.99999827468716
_cell_angle_beta     59.99999959505167
_cell_angle_gamma    59.99999504450977

_space_group_name_H-M_alt    "P 1"
_space_group_IT_number       1

loop_
  _space_group_symop_operation_xyz
  'x, y, z'

loop_
  _atom_site_type_symbol
  _atom_site_label
  _atom_site_symmetry_multiplicity
  _atom_site_fract_x
  _atom_site_fract_y
  _atom_site_fract_z
  _atom_site_occupancy
  Rh  Rh1       1.0  0.2499999292233596  0.24999994918268242  0.25000011278735884  1.0000
  Rh  Rh2       1.0  0.7499999455212429  0.7500000412400508  0.7500001686731285  1.0000
  S   S1        1.0  3.9800609509953716e-08  0.999999999999998  0.9999999983476415  1.0000
  O   O1        1.0  0.23081411857907647  0.23081418314434204  0.7691857579470075  1.0000
  O   O2        1.0  0.7691858945323714  0.7691858768088649  0.23081400999978605  1.0000
  O   O3        1.0  0.7691859174423441  0.23081414305636042  0.23081415068285588  1.0000
  O   O4        1.0  0.23081409708928116  0.7691858423999105  0.7691859234664213  1.0000
  O   O5        1.0  0.23081420384914828  0.7691858780321855  0.23081408877381754  1.0000
  O   O6        1.0  0.7691858912290943  0.23081413970608697  0.7691858458316109  1.0000
