data_image0
_chemical_formula_structural       Rh2TaSe6
_chemical_formula_sum              "Rh2 Ta1 Se6"
_cell_length_a       6.453366670177586
_cell_length_b       6.4533665862053935
_cell_length_c       6.453366521405601
_cell_angle_alpha    60.0000006742146
_cell_angle_beta     60.00000000457769
_cell_angle_gamma    59.999998324418094

_space_group_name_H-M_alt    "P 1"
_space_group_IT_number       1

loop_
  _space_group_symop_operation_xyz
  'x, y, z'

loop_
  _atom_site_type_symbol
  _atom_site_label
  _atom_site_symmetry_multiplicity
  _atom_site_fract_x
  _atom_site_fract_y
  _atom_site_fract_z
  _atom_site_occupancy
  Rh  Rh1       1.0  0.249999796064904  0.25000005952850585  0.25000005116394547  1.0000
  Rh  Rh2       1.0  0.7500000003926494  0.7499999147859289  0.7500000257800222  1.0000
  Ta  Ta1       1.0  1.671768534727377e-08  3.0365418236240376e-08  0.9999999315206628  1.0000
  Se  Se1       1.0  0.27167639264709686  0.27167643190781127  0.7283235990473017  1.0000
  Se  Se2       1.0  0.7283236326423304  0.7283235215303939  0.2716764467490463  1.0000
  Se  Se3       1.0  0.7283237169508886  0.27167641346825344  0.2716763723657734  1.0000
  Se  Se4       1.0  0.2716763990128674  0.7283236329640455  0.7283236141375179  1.0000
  Se  Se5       1.0  0.27167639405655597  0.7283236260896638  0.2716763522701977  1.0000
  Se  Se6       1.0  0.7283236542580628  0.2716763709988301  0.7283236090523093  1.0000
