data_image0
_chemical_formula_structural       Rh2VS6
_chemical_formula_sum              "Rh2 V1 S6"
_cell_length_a       5.879554063703779
_cell_length_b       5.879554077421148
_cell_length_c       5.879554020856585
_cell_angle_alpha    59.99999917054169
_cell_angle_beta     59.99999931053789
_cell_angle_gamma    60.00000056307434

_space_group_name_H-M_alt    "P 1"
_space_group_IT_number       1

loop_
  _space_group_symop_operation_xyz
  'x, y, z'

loop_
  _atom_site_type_symbol
  _atom_site_label
  _atom_site_symmetry_multiplicity
  _atom_site_fract_x
  _atom_site_fract_y
  _atom_site_fract_z
  _atom_site_occupancy
  Rh  Rh1       1.0  0.2500000282273767  0.24999943263051805  0.25000043905419617  1.0000
  Rh  Rh2       1.0  0.7499997175530574  0.7500002830452822  0.7499996271310427  1.0000
  V   V1        1.0  1.1606606617551163e-08  0.9999999062624163  1.895496872088266e-08  1.0000
  S   S1        1.0  0.2657092304878832  0.26570889519957813  0.7342908239854944  1.0000
  S   S2        1.0  0.7342908355653871  0.7342911558484683  0.2657092273261047  1.0000
  S   S3        1.0  0.7342910249704033  0.26570896134910815  0.26570919160459217  1.0000
  S   S4        1.0  0.2657092068012611  0.7342913938253252  0.7342905108303913  1.0000
  S   S5        1.0  0.2657090991061665  0.7342908816759912  0.26570906094106966  1.0000
  S   S6        1.0  0.7342908260414438  0.2657091089633879  0.7342911250438799  1.0000
