data_image0
_chemical_formula_structural       Rh2VO6
_chemical_formula_sum              "Rh2 V1 O6"
_cell_length_a       5.091432267271855
_cell_length_b       5.091432160924401
_cell_length_c       5.0914322683036435
_cell_angle_alpha    60.00000128433683
_cell_angle_beta     60.000001036288054
_cell_angle_gamma    60.00000070988939

_space_group_name_H-M_alt    "P 1"
_space_group_IT_number       1

loop_
  _space_group_symop_operation_xyz
  'x, y, z'

loop_
  _atom_site_type_symbol
  _atom_site_label
  _atom_site_symmetry_multiplicity
  _atom_site_fract_x
  _atom_site_fract_y
  _atom_site_fract_z
  _atom_site_occupancy
  Rh  Rh1       1.0  0.2499999296460674  0.24999994262453995  0.25000008644132815  1.0000
  Rh  Rh2       1.0  0.7499995881573762  0.7500005254690996  0.7499997693343501  1.0000
  V   V1        1.0  1.3906322091680933e-08  0.9999999446734621  4.82072813795802e-08  1.0000
  O   O1        1.0  0.2551714242521673  0.25517110695506157  0.7448287896652128  1.0000
  O   O2        1.0  0.7448288050051698  0.7448286827871133  0.25517130489014983  1.0000
  O   O3        1.0  0.7448286945597046  0.2551711013484671  0.25517139702485386  1.0000
  O   O4        1.0  0.2551713779354077  0.7448287028267164  0.7448287137007676  1.0000
  O   O5        1.0  0.255171364037192  0.7448287562977903  0.2551712382863114  1.0000
  O   O6        1.0  0.7448288268224833  0.2551712234790139  0.7448286351083636  1.0000
