data_image0
_chemical_formula_structural       Rh2ZnO6
_chemical_formula_sum              "Rh2 Zn1 O6"
_cell_length_a       5.066404546314436
_cell_length_b       5.066404309085489
_cell_length_c       5.066404328585305
_cell_angle_alpha    59.99999754485089
_cell_angle_beta     59.999999174098086
_cell_angle_gamma    59.999998179386374

_space_group_name_H-M_alt    "P 1"
_space_group_IT_number       1

loop_
  _space_group_symop_operation_xyz
  'x, y, z'

loop_
  _atom_site_type_symbol
  _atom_site_label
  _atom_site_symmetry_multiplicity
  _atom_site_fract_x
  _atom_site_fract_y
  _atom_site_fract_z
  _atom_site_occupancy
  Rh  Rh1       1.0  0.2500012439356463  0.24999912738389196  0.2499998502455128  1.0000
  Rh  Rh2       1.0  0.7499995876119446  0.7500012064544995  0.7500007409991317  1.0000
  Zn  Zn1       1.0  0.9999999944028013  1.7405170827776884e-07  2.8278567467008594e-08  1.0000
  O   O1        1.0  0.2613864266235265  0.2613851389841731  0.7386139834255104  1.0000
  O   O2        1.0  0.7386134281008072  0.7386149869591512  0.2613852599462776  1.0000
  O   O3        1.0  0.7386138685287947  0.26138587986561007  0.2613856594002985  1.0000
  O   O4        1.0  0.2613855573080035  0.7386140285130656  0.7386144203820588  1.0000
  O   O5        1.0  0.2613859741500339  0.7386143078006975  0.2613856706363074  1.0000
  O   O6        1.0  0.7386139938518589  0.2613851364400858  0.7386143740800206  1.0000
