data_image0
_chemical_formula_structural       Ru2AsS6
_chemical_formula_sum              "Ru2 As1 S6"
_cell_length_a       5.386611882949726
_cell_length_b       5.386597754385172
_cell_length_c       5.386613402172957
_cell_angle_alpha    59.9998833497316
_cell_angle_beta     59.9999384069949
_cell_angle_gamma    59.9999024411173

_space_group_name_H-M_alt    "P 1"
_space_group_IT_number       1

loop_
  _space_group_symop_operation_xyz
  'x, y, z'

loop_
  _atom_site_type_symbol
  _atom_site_label
  _atom_site_symmetry_multiplicity
  _atom_site_fract_x
  _atom_site_fract_y
  _atom_site_fract_z
  _atom_site_occupancy
  Ru  Ru1       1.0  0.25000508123519816  0.24999815570031308  0.24999666390491712  1.0000
  Ru  Ru2       1.0  0.7499983770712327  0.7500112787807651  0.7499985440328403  1.0000
  As  As1       1.0  0.9999986867051498  0.9999997726305832  0.9999992201935971  1.0000
  S   S1        1.0  0.27518408035801517  0.275188372971824  0.7248095874155057  1.0000
  S   S2        1.0  0.7248094277607307  0.7248149566435539  0.2751800123991887  1.0000
  S   S3        1.0  0.7248144511353739  0.2751786457214549  0.275194841013194  1.0000
  S   S4        1.0  0.27519412624172873  0.7248082610141503  0.7248173993160881  1.0000
  S   S5        1.0  0.275184091640272  0.7248165668705545  0.2751894674195469  1.0000
  S   S6        1.0  0.7248102879408904  0.27518434126185404  0.7248155901001463  1.0000
