data_image0
_chemical_formula_structural       Ru2AsN6
_chemical_formula_sum              "Ru2 As1 N6"
_cell_length_a       5.070721924481935
_cell_length_b       5.070721690133151
_cell_length_c       5.070721878589057
_cell_angle_alpha    59.99999979484506
_cell_angle_beta     60.0000002651433
_cell_angle_gamma    59.999997882968835

_space_group_name_H-M_alt    "P 1"
_space_group_IT_number       1

loop_
  _space_group_symop_operation_xyz
  'x, y, z'

loop_
  _atom_site_type_symbol
  _atom_site_label
  _atom_site_symmetry_multiplicity
  _atom_site_fract_x
  _atom_site_fract_y
  _atom_site_fract_z
  _atom_site_occupancy
  Ru  Ru1       1.0  0.24999960122408765  0.24999988942772133  0.25000027837690875  1.0000
  Ru  Ru2       1.0  0.7499999120842608  0.7499999774449464  0.7499998127790168  1.0000
  As  As1       1.0  0.9999999912819374  1.9322612210917632e-08  0.9999999473671862  1.0000
  N   N1        1.0  0.2566139192267669  0.25661362214776084  0.7433862374273138  1.0000
  N   N2        1.0  0.7433862139591326  0.7433863389226388  0.25661386744686027  1.0000
  N   N3        1.0  0.7433864099228861  0.2566137957132133  0.25661367544827574  1.0000
  N   N4        1.0  0.25661382824269463  0.7433862329863288  0.7433863135399003  1.0000
  N   N5        1.0  0.2566136500938972  0.743386323884302  0.25661383066918253  1.0000
  N   N6        1.0  0.74338648058187  0.2566138086742832  0.743386057584878  1.0000
