data_image0
_chemical_formula_structural       Ru2AsSe6
_chemical_formula_sum              "Ru2 As1 Se6"
_cell_length_a       6.22140942473648
_cell_length_b       6.221409066259459
_cell_length_c       6.221409338971388
_cell_angle_alpha    59.99999998195368
_cell_angle_beta     59.99999998988124
_cell_angle_gamma    59.9999997718592

_space_group_name_H-M_alt    "P 1"
_space_group_IT_number       1

loop_
  _space_group_symop_operation_xyz
  'x, y, z'

loop_
  _atom_site_type_symbol
  _atom_site_label
  _atom_site_symmetry_multiplicity
  _atom_site_fract_x
  _atom_site_fract_y
  _atom_site_fract_z
  _atom_site_occupancy
  Ru  Ru1       1.0  0.25000042237372777  0.24999929216455347  0.2500000273016051  1.0000
  Ru  Ru2       1.0  0.7499998055192207  0.7500002289673653  0.7499999065042526  1.0000
  As  As1       1.0  4.0719659332302285e-08  5.9057925193022274e-09  7.975666674800856e-10  1.0000
  Se  Se1       1.0  0.27754344488937005  0.2775432880805036  0.722456679104818  1.0000
  Se  Se2       1.0  0.7224563921054202  0.7224568767827169  0.2775433934976957  1.0000
  Se  Se3       1.0  0.7224566121500171  0.2775433330652656  0.27754345192653773  1.0000
  Se  Se4       1.0  0.2775433815571313  0.7224567569912594  0.722456508999618  1.0000
  Se  Se5       1.0  0.2775434177166126  0.7224568218232553  0.2775433063244988  1.0000
  Se  Se6       1.0  0.7224564845376923  0.277543392254897  0.7224567186849089  1.0000
