data_image0
_chemical_formula_structural       Ru2BeO6
_chemical_formula_sum              "Ru2 Be1 O6"
_cell_length_a       4.81636234345683
_cell_length_b       4.816362753419501
_cell_length_c       4.816362320063061
_cell_angle_alpha    60.00000375868858
_cell_angle_beta     60.0000016977366
_cell_angle_gamma    60.00000121098338

_space_group_name_H-M_alt    "P 1"
_space_group_IT_number       1

loop_
  _space_group_symop_operation_xyz
  'x, y, z'

loop_
  _atom_site_type_symbol
  _atom_site_label
  _atom_site_symmetry_multiplicity
  _atom_site_fract_x
  _atom_site_fract_y
  _atom_site_fract_z
  _atom_site_occupancy
  Ru  Ru1       1.0  0.24999834129559756  0.24999729896752867  0.250004250118501  1.0000
  Ru  Ru2       1.0  0.749997405037958  0.7499964410348915  0.7500066757840785  1.0000
  Be  Be1       1.0  5.6084586717578456e-08  7.628649585407899e-08  0.9999998341541835  1.0000
  O   O1        1.0  0.24076724041302366  0.2407670591893045  0.759231724922938  1.0000
  O   O2        1.0  0.7592329512321209  0.7592339941452144  0.24076527616682988  1.0000
  O   O3        1.0  0.7592339803944743  0.24076915258025747  0.2407642215166069  1.0000
  O   O4        1.0  0.24076717483882257  0.75923442583731  0.7592316290467335  1.0000
  O   O5        1.0  0.2407685453500181  0.759233864816301  0.24076470038629572  1.0000
  O   O6        1.0  0.7592343461102093  0.24076767675173363  0.7592316326892752  1.0000
