data_image0
_chemical_formula_structural       Ru2BS6
_chemical_formula_sum              "Ru2 B1 S6"
_cell_length_a       5.387297871118096
_cell_length_b       5.387298121064433
_cell_length_c       5.387297770733465
_cell_angle_alpha    60.00000141202649
_cell_angle_beta     59.99999989243693
_cell_angle_gamma    60.000003647792816

_space_group_name_H-M_alt    "P 1"
_space_group_IT_number       1

loop_
  _space_group_symop_operation_xyz
  'x, y, z'

loop_
  _atom_site_type_symbol
  _atom_site_label
  _atom_site_symmetry_multiplicity
  _atom_site_fract_x
  _atom_site_fract_y
  _atom_site_fract_z
  _atom_site_occupancy
  Ru  Ru1       1.0  0.24999973666772882  0.25000001991667925  0.2500000232801923  1.0000
  Ru  Ru2       1.0  0.7499998201336879  0.7499997983098038  0.7500000254307128  1.0000
  B   B1        1.0  3.645969835936166e-08  0.9999999613523116  6.42054127379703e-08  1.0000
  S   S1        1.0  0.2547603589374351  0.2547605235901635  0.7452395260836302  1.0000
  S   S2        1.0  0.7452395468996946  0.7452398743516607  0.2547602401611234  1.0000
  S   S3        1.0  0.7452396722542287  0.25476046441528655  0.25476038920973443  1.0000
  S   S4        1.0  0.2547606372399293  0.74523937199836  0.7452398012271739  1.0000
  S   S5        1.0  0.25476042693954826  0.7452396021055557  0.2547605116458119  1.0000
  S   S6        1.0  0.7452397566339815  0.2547603934456315  0.74523941901806  1.0000
