data_image0
_chemical_formula_structural       Ru2BO6
_chemical_formula_sum              "Ru2 B1 O6"
_cell_length_a       4.746383197735334
_cell_length_b       4.7463834085890895
_cell_length_c       4.746383081526002
_cell_angle_alpha    60.00000210538088
_cell_angle_beta     60.000001368422375
_cell_angle_gamma    60.000003547535584

_space_group_name_H-M_alt    "P 1"
_space_group_IT_number       1

loop_
  _space_group_symop_operation_xyz
  'x, y, z'

loop_
  _atom_site_type_symbol
  _atom_site_label
  _atom_site_symmetry_multiplicity
  _atom_site_fract_x
  _atom_site_fract_y
  _atom_site_fract_z
  _atom_site_occupancy
  Ru  Ru1       1.0  0.2500016168485741  0.24999894469105055  0.2499988433389218  1.0000
  Ru  Ru2       1.0  0.7500018330068366  0.7500000698631245  0.7500007189007941  1.0000
  B   B1        1.0  1.6228510787931538e-07  0.9999999948392526  4.5742999736659026e-08  1.0000
  O   O1        1.0  0.2359139186743473  0.23591429149600243  0.7640860596143896  1.0000
  O   O2        1.0  0.7640849956004068  0.7640864261054898  0.2359136610921095  1.0000
  O   O3        1.0  0.7640855579683766  0.2359143017473348  0.2359141533163217  1.0000
  O   O4        1.0  0.23591308467615646  0.7640859462259331  0.7640858958820507  1.0000
  O   O5        1.0  0.23591373693016787  0.7640860386959984  0.2359144557953235  1.0000
  O   O6        1.0  0.7640851083537277  0.23591395898091122  0.7640862956428656  1.0000
