data_image0
_chemical_formula_structural       Ru2CO6
_chemical_formula_sum              "Ru2 C1 O6"
_cell_length_a       4.802206653466393
_cell_length_b       4.802206398280019
_cell_length_c       4.802206721383672
_cell_angle_alpha    59.99999589686884
_cell_angle_beta     59.99999712808905
_cell_angle_gamma    59.999996399149936

_space_group_name_H-M_alt    "P 1"
_space_group_IT_number       1

loop_
  _space_group_symop_operation_xyz
  'x, y, z'

loop_
  _atom_site_type_symbol
  _atom_site_label
  _atom_site_symmetry_multiplicity
  _atom_site_fract_x
  _atom_site_fract_y
  _atom_site_fract_z
  _atom_site_occupancy
  Ru  Ru1       1.0  0.24999919512088856  0.25000270007372594  0.24999820705406603  1.0000
  Ru  Ru2       1.0  0.7499993166500376  0.7500019181009588  0.7499981647226825  1.0000
  C   C1        1.0  0.9999997077774148  7.396100952294663e-07  0.9999993848195528  1.0000
  O   O1        1.0  0.2202320464488222  0.22023031216594938  0.7797691735293849  1.0000
  O   O2        1.0  0.77976871251465  0.7797680116717935  0.2202320663452195  1.0000
  O   O3        1.0  0.7797690888144231  0.22023053114502222  0.22023214745725436  1.0000
  O   O4        1.0  0.22023161436603667  0.7797673973838763  0.7797695928369164  1.0000
  O   O5        1.0  0.22023145074474315  0.779767539379717  0.22023219389278417  1.0000
  O   O6        1.0  0.7797689141440145  0.22023081251220483  0.7797690519901352  1.0000
