data_image0
_chemical_formula_structural       Ru2CS6
_chemical_formula_sum              "Ru2 C1 S6"
_cell_length_a       5.194806320922429
_cell_length_b       5.19480588874146
_cell_length_c       5.194806125415614
_cell_angle_alpha    60.0000002861088
_cell_angle_beta     60.000003274044424
_cell_angle_gamma    60.000000007475606

_space_group_name_H-M_alt    "P 1"
_space_group_IT_number       1

loop_
  _space_group_symop_operation_xyz
  'x, y, z'

loop_
  _atom_site_type_symbol
  _atom_site_label
  _atom_site_symmetry_multiplicity
  _atom_site_fract_x
  _atom_site_fract_y
  _atom_site_fract_z
  _atom_site_occupancy
  Ru  Ru1       1.0  0.24999988752417207  0.2500001043711649  0.24999994337784615  1.0000
  Ru  Ru2       1.0  0.7500002184531157  0.7500002258810557  0.7499995534594731  1.0000
  C   C1        1.0  1.3280540468755108e-07  6.8371377947705e-08  1.3618656922904237e-07  1.0000
  S   S1        1.0  0.2636366359091336  0.2636361989986653  0.7363634639942891  1.0000
  S   S2        1.0  0.7363634961026224  0.7363634263211165  0.263636553241974  1.0000
  S   S3        1.0  0.7363635702571192  0.26363648500303566  0.26363648573502346  1.0000
  S   S4        1.0  0.26363624265389485  0.7363634774583471  0.7363635956307967  1.0000
  S   S5        1.0  0.26363631749656585  0.7363634573273946  0.2636366751604183  1.0000
  S   S6        1.0  0.7363634896204994  0.26363657586299766  0.736363548912841  1.0000
