data_image0
_chemical_formula_structural       Ru2GaO6
_chemical_formula_sum              "Ru2 Ga1 O6"
_cell_length_a       5.256152490804426
_cell_length_b       5.256152414527029
_cell_length_c       5.256152552704576
_cell_angle_alpha    60.00000164641937
_cell_angle_beta     60.00000061831757
_cell_angle_gamma    60.00000180956555

_space_group_name_H-M_alt    "P 1"
_space_group_IT_number       1

loop_
  _space_group_symop_operation_xyz
  'x, y, z'

loop_
  _atom_site_type_symbol
  _atom_site_label
  _atom_site_symmetry_multiplicity
  _atom_site_fract_x
  _atom_site_fract_y
  _atom_site_fract_z
  _atom_site_occupancy
  Ru  Ru1       1.0  0.250003605467972  0.24999821188554908  0.250002243561138  1.0000
  Ru  Ru2       1.0  0.7500033412507748  0.7499978232560086  0.7500017856249613  1.0000
  Ga  Ga1       1.0  2.14762671598831e-07  0.9999997972798546  1.4998638320989603e-07  1.0000
  O   O1        1.0  0.2503885288849973  0.25039208154125653  0.7496081884275818  1.0000
  O   O2        1.0  0.7496091250309288  0.7496101820018992  0.250389467937474  1.0000
  O   O3        1.0  0.7496076592864074  0.25039105414819185  0.25038963323083974  1.0000
  O   O4        1.0  0.2503885472332184  0.7496113072598322  0.7496081195301041  1.0000
  O   O5        1.0  0.25039037888391097  0.7496094284987432  0.250389929061065  1.0000
  O   O6        1.0  0.7496085980502715  0.2503901577404038  0.7496104686943709  1.0000
