data_image0
_chemical_formula_structural       Ru2NO6
_chemical_formula_sum              "Ru2 N1 O6"
_cell_length_a       4.819645933358565
_cell_length_b       4.8196451450943405
_cell_length_c       4.819645904950619
_cell_angle_alpha    60.00000441770372
_cell_angle_beta     60.000006702239105
_cell_angle_gamma    59.99999775526895

_space_group_name_H-M_alt    "P 1"
_space_group_IT_number       1

loop_
  _space_group_symop_operation_xyz
  'x, y, z'

loop_
  _atom_site_type_symbol
  _atom_site_label
  _atom_site_symmetry_multiplicity
  _atom_site_fract_x
  _atom_site_fract_y
  _atom_site_fract_z
  _atom_site_occupancy
  Ru  Ru1       1.0  0.2500003178373185  0.25000089671271136  0.24999967376224644  1.0000
  Ru  Ru2       1.0  0.7499999724856362  0.7499997754375032  0.7500025169815058  1.0000
  N   N1        1.0  5.0289777146090945e-06  0.9999968083132226  0.9999954794301846  1.0000
  O   O1        1.0  0.2351729155649206  0.23517382606982518  0.7648262812956329  1.0000
  O   O2        1.0  0.7648261323704028  0.7648252832719492  0.23517381801336196  1.0000
  O   O3        1.0  0.7648234347214447  0.2351764470428032  0.2351746930384774  1.0000
  O   O4        1.0  0.235172568896202  0.7648271880902073  0.7648279728308258  1.0000
  O   O5        1.0  0.23517366793616135  0.7648266833263094  0.23517373215768758  1.0000
  O   O6        1.0  0.7648259894713615  0.23517300539797228  0.7648255424166505  1.0000
