data_image0
_chemical_formula_structural       Ru2PSe6
_chemical_formula_sum              "Ru2 P1 Se6"
_cell_length_a       6.067879907352161
_cell_length_b       6.067879755994599
_cell_length_c       6.067879609721439
_cell_angle_alpha    59.999998271286785
_cell_angle_beta     59.999998779764745
_cell_angle_gamma    60.0000010751555

_space_group_name_H-M_alt    "P 1"
_space_group_IT_number       1

loop_
  _space_group_symop_operation_xyz
  'x, y, z'

loop_
  _atom_site_type_symbol
  _atom_site_label
  _atom_site_symmetry_multiplicity
  _atom_site_fract_x
  _atom_site_fract_y
  _atom_site_fract_z
  _atom_site_occupancy
  Ru  Ru1       1.0  0.24999999296096453  0.2500000902754369  0.24999999358142141  1.0000
  Ru  Ru2       1.0  0.7499998340001116  0.7499995522735302  0.7500009101647518  1.0000
  P   P1        1.0  0.9999999721084195  3.229450701844482e-08  0.9999999186934735  1.0000
  Se  Se1       1.0  0.2691200482392394  0.26912030074019827  0.7308798360607225  1.0000
  Se  Se2       1.0  0.7308799632835432  0.730879775766219  0.26911993276676327  1.0000
  Se  Se3       1.0  0.7308798184353045  0.26912027989884535  0.2691199801864877  1.0000
  Se  Se4       1.0  0.2691201418390796  0.7308799560616958  0.7308797345381334  1.0000
  Se  Se5       1.0  0.26912040144996646  0.7308798391835372  0.26911982444473653  1.0000
  Se  Se6       1.0  0.730879820438644  0.2691201828259064  0.7308798730404071  1.0000
