data_image0
_chemical_formula_structural       Ru2RhSe6
_chemical_formula_sum              "Ru2 Rh1 Se6"
_cell_length_a       5.997680120069664
_cell_length_b       5.99767993309992
_cell_length_c       5.997679277379982
_cell_angle_alpha    59.999999004414654
_cell_angle_beta     60.00000090608855
_cell_angle_gamma    59.99999766417606

_space_group_name_H-M_alt    "P 1"
_space_group_IT_number       1

loop_
  _space_group_symop_operation_xyz
  'x, y, z'

loop_
  _atom_site_type_symbol
  _atom_site_label
  _atom_site_symmetry_multiplicity
  _atom_site_fract_x
  _atom_site_fract_y
  _atom_site_fract_z
  _atom_site_occupancy
  Ru  Ru1       1.0  0.2500005300430222  0.2500005070838079  0.24999905071082865  1.0000
  Ru  Ru2       1.0  0.7500005806508303  0.749999703843699  0.7500000844963909  1.0000
  Rh  Rh1       1.0  3.303147040180802e-10  1.6336241839497546e-08  1.7507099288981909e-07  1.0000
  Se  Se1       1.0  0.28251020299475527  0.2825100657824763  0.7174897848543172  1.0000
  Se  Se2       1.0  0.717489862668196  0.71748968773008  0.2825101165816778  1.0000
  Se  Se3       1.0  0.7174894195327677  0.28251036494972814  0.28251036417611164  1.0000
  Se  Se4       1.0  0.28251022944310367  0.717489263998931  0.7174899812857901  1.0000
  Se  Se5       1.0  0.28250990939024906  0.7174900769836219  0.2825103737461048  1.0000
  Se  Se6       1.0  0.7174892553443121  0.2825103116006061  0.7174901091250627  1.0000
