data_image0
_chemical_formula_structural       Ru2SO6
_chemical_formula_sum              "Ru2 S1 O6"
_cell_length_a       5.091049108485274
_cell_length_b       5.091049245800983
_cell_length_c       5.091049096144275
_cell_angle_alpha    59.99999876386495
_cell_angle_beta     59.9999996404231
_cell_angle_gamma    59.99999801673621

_space_group_name_H-M_alt    "P 1"
_space_group_IT_number       1

loop_
  _space_group_symop_operation_xyz
  'x, y, z'

loop_
  _atom_site_type_symbol
  _atom_site_label
  _atom_site_symmetry_multiplicity
  _atom_site_fract_x
  _atom_site_fract_y
  _atom_site_fract_z
  _atom_site_occupancy
  Ru  Ru1       1.0  0.25000050772302335  0.2500002387923099  0.2500000699621779  1.0000
  Ru  Ru2       1.0  0.7500000241401482  0.7500006273667329  0.7499996328723758  1.0000
  S   S1        1.0  0.9999999661396983  0.9999999518863467  7.045045383096931e-08  1.0000
  O   O1        1.0  0.2265800464224748  0.22658033908026065  0.7734197111521796  1.0000
  O   O2        1.0  0.7734198569890214  0.7734194661727509  0.22658033351793314  1.0000
  O   O3        1.0  0.7734193831289676  0.22658004352682604  0.22658047040307827  1.0000
  O   O4        1.0  0.22658032889351845  0.7734196486591038  0.7734197363162413  1.0000
  O   O5        1.0  0.2265801958717597  0.7734197215834848  0.2265803139407791  1.0000
  O   O6        1.0  0.7734195880655967  0.22657996579107875  0.773419841548703  1.0000
