data_image0
_chemical_formula_structural       Ru2SbN6
_chemical_formula_sum              "Ru2 Sb1 N6"
_cell_length_a       5.020771337053968
_cell_length_b       5.0207713588371226
_cell_length_c       5.020771300475636
_cell_angle_alpha    60.00000031572571
_cell_angle_beta     59.99999977881972
_cell_angle_gamma    59.99999912849107

_space_group_name_H-M_alt    "P 1"
_space_group_IT_number       1

loop_
  _space_group_symop_operation_xyz
  'x, y, z'

loop_
  _atom_site_type_symbol
  _atom_site_label
  _atom_site_symmetry_multiplicity
  _atom_site_fract_x
  _atom_site_fract_y
  _atom_site_fract_z
  _atom_site_occupancy
  Ru  Ru1       1.0  0.24999997519766323  0.2499999846811008  0.2500000210017711  1.0000
  Ru  Ru2       1.0  0.7500001047020306  0.7499999686794362  0.7499999701161771  1.0000
  Sb  Sb1       1.0  1.7306638222535134e-08  1.7075491757733023e-08  0.9999999907758383  1.0000
  N   N1        1.0  0.2818978282568321  0.28189785753325813  0.718102139945208  1.0000
  N   N2        1.0  0.7181021307713037  0.718102203158944  0.2818978061578148  1.0000
  N   N3        1.0  0.7181021705186553  0.2818978618171424  0.281897879937983  1.0000
  N   N4        1.0  0.2818978049113633  0.7181021427698717  0.718102145768468  1.0000
  N   N5        1.0  0.28189781900117244  0.7181021203940325  0.28189790181268487  1.0000
  N   N6        1.0  0.7181021445350204  0.2818978646781337  0.7181021435815547  1.0000
