data_image0
_chemical_formula_structural       S2AsO6
_chemical_formula_sum              "S2 As1 O6"
_cell_length_a       5.685504866238147
_cell_length_b       5.685504069536193
_cell_length_c       5.685504124561681
_cell_angle_alpha    60.000000265123376
_cell_angle_beta     59.99999765223449
_cell_angle_gamma    60.00000025131098

_space_group_name_H-M_alt    "P 1"
_space_group_IT_number       1

loop_
  _space_group_symop_operation_xyz
  'x, y, z'

loop_
  _atom_site_type_symbol
  _atom_site_label
  _atom_site_symmetry_multiplicity
  _atom_site_fract_x
  _atom_site_fract_y
  _atom_site_fract_z
  _atom_site_occupancy
  S   S1        1.0  0.25000011325151883  0.25000025497505357  0.25000007134895463  1.0000
  S   S2        1.0  0.7500004593527684  0.7499997115440387  0.7499992844042762  1.0000
  As  As1       1.0  0.9999999310109403  0.999999890138166  5.424827015824276e-08  1.0000
  O   O1        1.0  0.227635901322779  0.22763628754774556  0.7723642249719831  1.0000
  O   O2        1.0  0.7723636776902212  0.7723638448411623  0.2276363202988456  1.0000
  O   O3        1.0  0.7723633180230464  0.22763623818278103  0.2276361718432622  1.0000
  O   O4        1.0  0.2276366218453636  0.7723637864984505  0.7723639109116152  1.0000
  O   O5        1.0  0.22763593692685918  0.7723638854934314  0.22763637989372723  1.0000
  O   O6        1.0  0.772364052568013  0.22763605732996178  0.7723635536440911  1.0000
