data_image0
_chemical_formula_structural       S2AsO6
_chemical_formula_sum              "S2 As1 O6"
_cell_length_a       5.685606020074875
_cell_length_b       5.685606259966775
_cell_length_c       5.68560578939907
_cell_angle_alpha    59.999994977486864
_cell_angle_beta     59.999995916718824
_cell_angle_gamma    59.999999988070776

_space_group_name_H-M_alt    "P 1"
_space_group_IT_number       1

loop_
  _space_group_symop_operation_xyz
  'x, y, z'

loop_
  _atom_site_type_symbol
  _atom_site_label
  _atom_site_symmetry_multiplicity
  _atom_site_fract_x
  _atom_site_fract_y
  _atom_site_fract_z
  _atom_site_occupancy
  S   S1        1.0  0.2499970442329055  0.25000121518027113  0.2500022867926761  1.0000
  S   S2        1.0  0.7499993146256289  0.7500006254723467  0.74999842607062  1.0000
  As  As1       1.0  1.9829812671306656e-07  0.9999996122593124  2.5653342802795445e-07  1.0000
  O   O1        1.0  0.22768024409687793  0.22767947103376462  0.7723192597851506  1.0000
  O   O2        1.0  0.7723203972319684  0.7723199225444483  0.22768049492712641  1.0000
  O   O3        1.0  0.772320860707687  0.22767958874254762  0.2276798250854819  1.0000
  O   O4        1.0  0.2276810223008055  0.7723205092312287  0.7723196126317677  1.0000
  O   O5        1.0  0.2276794882475251  0.7723192298149802  0.2276806354389445  1.0000
  O   O6        1.0  0.7723212839683954  0.22767983202952924  0.7723194026147244  1.0000
