data_image0
_chemical_formula_structural       S2BO6
_chemical_formula_sum              "S2 B1 O6"
_cell_length_a       5.901521788289361
_cell_length_b       5.901522219578276
_cell_length_c       5.901526142859232
_cell_angle_alpha    59.999961220230304
_cell_angle_beta     59.999930223993765
_cell_angle_gamma    59.99999261705392

_space_group_name_H-M_alt    "P 1"
_space_group_IT_number       1

loop_
  _space_group_symop_operation_xyz
  'x, y, z'

loop_
  _atom_site_type_symbol
  _atom_site_label
  _atom_site_symmetry_multiplicity
  _atom_site_fract_x
  _atom_site_fract_y
  _atom_site_fract_z
  _atom_site_occupancy
  S   S1        1.0  0.24999668280914808  0.250002544890018  0.25000323719670264  1.0000
  S   S2        1.0  0.7500025215257515  0.7499980384683806  0.7499962372689787  1.0000
  B   B1        1.0  5.865323999022722e-07  9.816188218162563e-07  2.152452612293175e-06  1.0000
  O   O1        1.0  0.17386835068250733  0.17386955591286016  0.8261297106312426  1.0000
  O   O2        1.0  0.8261305109827348  0.826128885731823  0.17387311395583657  1.0000
  O   O3        1.0  0.826133164651413  0.17386858026442695  0.17386788486488555  1.0000
  O   O4        1.0  0.1738706358704307  0.8261286452535053  0.8261299876297782  1.0000
  O   O5        1.0  0.1738676906409386  0.826132171062405  0.17386849797986667  1.0000
  O   O6        1.0  0.8261296198763523  0.17387148166995284  0.8261291042943738  1.0000
