data_image0
_chemical_formula_structural       S2CO6
_chemical_formula_sum              "S2 C1 O6"
_cell_length_a       6.041588833230673
_cell_length_b       6.041592522002772
_cell_length_c       6.041587327204171
_cell_angle_alpha    60.00009487146161
_cell_angle_beta     60.00012448495605
_cell_angle_gamma    60.00012217020547

_space_group_name_H-M_alt    "P 1"
_space_group_IT_number       1

loop_
  _space_group_symop_operation_xyz
  'x, y, z'

loop_
  _atom_site_type_symbol
  _atom_site_label
  _atom_site_symmetry_multiplicity
  _atom_site_fract_x
  _atom_site_fract_y
  _atom_site_fract_z
  _atom_site_occupancy
  S   S1        1.0  0.25004685968066354  0.25003246266453005  0.24986912138597892  1.0000
  S   S2        1.0  0.7500432387725576  0.7500548049345381  0.7498938416620363  1.0000
  C   C1        1.0  0.9999782815429091  0.999979630831701  5.914138713766758e-05  1.0000
  O   O1        1.0  0.1744482748524728  0.17445118538082544  0.8255627132666619  1.0000
  O   O2        1.0  0.8255230077837652  0.8255194439883003  0.1744962393966317  1.0000
  O   O3        1.0  0.8255213955816146  0.17445899288650332  0.17449365575755088  1.0000
  O   O4        1.0  0.1744507848051284  0.8255309150292921  0.8255650373104844  1.0000
  O   O5        1.0  0.17445929267757365  0.8255220708530312  0.1744932657633746  1.0000
  O   O6        1.0  0.8255292521577107  0.17445050868116277  0.825566006933322  1.0000
