data_image0
_chemical_formula_structural       S2CoO6
_chemical_formula_sum              "S2 Co1 O6"
_cell_length_a       9.72694073067211
_cell_length_b       9.623555770010043
_cell_length_c       9.679051095705713
_cell_angle_alpha    60.16426037148597
_cell_angle_beta     59.56156302048671
_cell_angle_gamma    60.21377085427549

_space_group_name_H-M_alt    "P 1"
_space_group_IT_number       1

loop_
  _space_group_symop_operation_xyz
  'x, y, z'

loop_
  _atom_site_type_symbol
  _atom_site_label
  _atom_site_symmetry_multiplicity
  _atom_site_fract_x
  _atom_site_fract_y
  _atom_site_fract_z
  _atom_site_occupancy
  S   S1        1.0  0.12358569709840071  0.11995062973054663  0.021200356109385633  1.0000
  S   S2        1.0  0.8674246892834889  0.9352108101639172  0.01163717242823692  1.0000
  Co  Co1       1.0  0.155487182872868  0.9141517513356492  0.9042595893375669  1.0000
  O   O1        1.0  0.1378653699877396  0.14486682491402328  0.837925957355121  1.0000
  O   O2        1.0  0.8019993326625224  0.8445551009577836  0.18902468061274436  1.0000
  O   O3        1.0  0.9534047598649436  0.20671934571694695  0.11758414147588654  1.0000
  O   O4        1.0  0.029266446197417546  0.8273203780506723  0.8993199525189515  1.0000
  O   O5        1.0  0.16767119617593218  0.9176904172698621  0.09454584546215765  1.0000
  O   O6        1.0  0.7633217679906372  0.08955728132117206  0.9244006465197284  1.0000
