data_image0
_chemical_formula_structural       S2CrO6
_chemical_formula_sum              "S2 Cr1 O6"
_cell_length_a       5.680736275284676
_cell_length_b       5.680736460298483
_cell_length_c       5.680736069537442
_cell_angle_alpha    60.00000179511973
_cell_angle_beta     60.00000285096035
_cell_angle_gamma    59.99999876935586

_space_group_name_H-M_alt    "P 1"
_space_group_IT_number       1

loop_
  _space_group_symop_operation_xyz
  'x, y, z'

loop_
  _atom_site_type_symbol
  _atom_site_label
  _atom_site_symmetry_multiplicity
  _atom_site_fract_x
  _atom_site_fract_y
  _atom_site_fract_z
  _atom_site_occupancy
  S   S1        1.0  0.2499998256541395  0.2500000510857988  0.2500002865684961  1.0000
  S   S2        1.0  0.7499999956678715  0.7499997069733733  0.7500001580880535  1.0000
  Cr  Cr1       1.0  0.9999999741109379  0.9999999008257769  0.9999999780355502  1.0000
  O   O1        1.0  0.22863952902218884  0.22863991651561089  0.771360152594447  1.0000
  O   O2        1.0  0.7713603922839434  0.7713602123689247  0.2286397116316493  1.0000
  O   O3        1.0  0.7713603797622339  0.22863977315518616  0.22863964722389213  1.0000
  O   O4        1.0  0.2286397444823047  0.7713603018303054  0.7713602709869998  1.0000
  O   O5        1.0  0.2286397695249336  0.7713603642302399  0.22863961284874879  1.0000
  O   O6        1.0  0.771360355170498  0.22863975818640345  0.7713602074870396  1.0000
