data_image0
_chemical_formula_structural       S2FeO6
_chemical_formula_sum              "S2 Fe1 O6"
_cell_length_a       4.292408293856336
_cell_length_b       4.292408102591028
_cell_length_c       4.292430281280859
_cell_angle_alpha    60.00058730853416
_cell_angle_beta     60.00077406593388
_cell_angle_gamma    59.9988558663826

_space_group_name_H-M_alt    "P 1"
_space_group_IT_number       1

loop_
  _space_group_symop_operation_xyz
  'x, y, z'

loop_
  _atom_site_type_symbol
  _atom_site_label
  _atom_site_symmetry_multiplicity
  _atom_site_fract_x
  _atom_site_fract_y
  _atom_site_fract_z
  _atom_site_occupancy
  S   S1        1.0  0.250006517899638  0.25000655174140235  0.24998373802198282  1.0000
  S   S2        1.0  0.7499949664722235  0.7499919709952777  0.7500160072745584  1.0000
  Fe  Fe1       1.0  2.2531079018022125e-06  0.9999965817514614  1.971125643743934e-06  1.0000
  O   O1        1.0  0.2818776654545309  0.28187684376168665  0.7181172433974956  1.0000
  O   O2        1.0  0.7181199913061516  0.7181261244464555  0.2818814706458156  1.0000
  O   O3        1.0  0.7181287613114385  0.2818654053914577  0.2818769043298922  1.0000
  O   O4        1.0  0.2818697741648297  0.7181348864244345  0.7181228227196221  1.0000
  O   O5        1.0  0.28186245113554076  0.7181318024420597  0.28187460569782946  1.0000
  O   O6        1.0  0.7181366402785933  0.2818705094977859  0.7181244740244174  1.0000
