data_image0
_chemical_formula_structural       S2GaO6
_chemical_formula_sum              "S2 Ga1 O6"
_cell_length_a       5.187585279034289
_cell_length_b       5.187585759516744
_cell_length_c       5.187581291917516
_cell_angle_alpha    60.00000331922844
_cell_angle_beta     60.00000238646074
_cell_angle_gamma    59.99999690814152

_space_group_name_H-M_alt    "P 1"
_space_group_IT_number       1

loop_
  _space_group_symop_operation_xyz
  'x, y, z'

loop_
  _atom_site_type_symbol
  _atom_site_label
  _atom_site_symmetry_multiplicity
  _atom_site_fract_x
  _atom_site_fract_y
  _atom_site_fract_z
  _atom_site_occupancy
  S   S1        1.0  0.24999484092282181  0.249998788551124  0.2500051248086863  1.0000
  S   S2        1.0  0.7500216543497881  0.7499983511819432  0.7499859210795687  1.0000
  Ga  Ga1       1.0  3.730702336950958e-07  1.6290309181892548e-07  0.9999997686391734  1.0000
  O   O1        1.0  0.25157111119496645  0.2515796192904736  0.7484242188810939  1.0000
  O   O2        1.0  0.7484255750963438  0.7484229316607339  0.2515754658685952  1.0000
  O   O3        1.0  0.7484260216851463  0.2515714763134007  0.25158017889929674  1.0000
  O   O4        1.0  0.2515686395627625  0.7484283619468389  0.7484214409903027  1.0000
  O   O5        1.0  0.2515656548826175  0.7484242131697832  0.2515850846493604  1.0000
  O   O6        1.0  0.7484257908834251  0.2515762767021245  0.7484232879334166  1.0000
