data_image0
_chemical_formula_structural       S2GaO6
_chemical_formula_sum              "S2 Ga1 O6"
_cell_length_a       5.1875829797254775
_cell_length_b       5.18758272369825
_cell_length_c       5.18758273329425
_cell_angle_alpha    59.99997948702104
_cell_angle_beta     59.999983304006875
_cell_angle_gamma    59.999987759864446

_space_group_name_H-M_alt    "P 1"
_space_group_IT_number       1

loop_
  _space_group_symop_operation_xyz
  'x, y, z'

loop_
  _atom_site_type_symbol
  _atom_site_label
  _atom_site_symmetry_multiplicity
  _atom_site_fract_x
  _atom_site_fract_y
  _atom_site_fract_z
  _atom_site_occupancy
  S   S1        1.0  0.25000330773275786  0.24999503955242364  0.24999844063286467  1.0000
  S   S2        1.0  0.7500164076106479  0.7499928435759055  0.7499963096320583  1.0000
  Ga  Ga1       1.0  4.716465062215414e-07  0.9999997402991393  1.161563832132792e-08  1.0000
  O   O1        1.0  0.2515702550320535  0.25158067739715434  0.7484234282253659  1.0000
  O   O2        1.0  0.7484215630543032  0.7484269453560078  0.2515765324046838  1.0000
  O   O3        1.0  0.7484236473713642  0.25157609718547913  0.251575532438662  1.0000
  O   O4        1.0  0.25156944958562655  0.7484239895215663  0.7484254209105671  1.0000
  O   O5        1.0  0.25157123505309753  0.7484279824561302  0.2515788681931109  1.0000
  O   O6        1.0  0.7484232222918226  0.25157691107650076  0.7484256597554939  1.0000
