data_image0
_chemical_formula_structural       S2GeO6
_chemical_formula_sum              "S2 Ge1 O6"
_cell_length_a       5.607505131315563
_cell_length_b       5.607505176574092
_cell_length_c       5.607504971983254
_cell_angle_alpha    59.9999993314659
_cell_angle_beta     59.999999123367296
_cell_angle_gamma    60.00000048588747

_space_group_name_H-M_alt    "P 1"
_space_group_IT_number       1

loop_
  _space_group_symop_operation_xyz
  'x, y, z'

loop_
  _atom_site_type_symbol
  _atom_site_label
  _atom_site_symmetry_multiplicity
  _atom_site_fract_x
  _atom_site_fract_y
  _atom_site_fract_z
  _atom_site_occupancy
  S   S1        1.0  0.2500011483645801  0.2500003056566014  0.24999907412958047  1.0000
  S   S2        1.0  0.7500007269075647  0.7499992985388951  0.7499998704115867  1.0000
  Ge  Ge1       1.0  5.705462699002134e-08  0.9999999956317662  0.9999999611735324  1.0000
  O   O1        1.0  0.23880207199722012  0.23880275078621124  0.7611975905080623  1.0000
  O   O2        1.0  0.7611973614564146  0.7611978406302512  0.23880239876362572  1.0000
  O   O3        1.0  0.7611971612258954  0.23880243404465265  0.23880240461318664  1.0000
  O   O4        1.0  0.23880215330816457  0.7611972662519753  0.7611979933787071  1.0000
  O   O5        1.0  0.23880229244187756  0.7611974026354384  0.23880248465997891  1.0000
  O   O6        1.0  0.7611970602747321  0.23880267114523157  0.7611981586796662  1.0000
