data_image0
_chemical_formula_structural       S2IrO6
_chemical_formula_sum              "S2 Ir1 O6"
_cell_length_a       5.689163322136498
_cell_length_b       5.689167021921389
_cell_length_c       5.689164422721054
_cell_angle_alpha    59.999986906181505
_cell_angle_beta     59.99987686656517
_cell_angle_gamma    60.00000165849051

_space_group_name_H-M_alt    "P 1"
_space_group_IT_number       1

loop_
  _space_group_symop_operation_xyz
  'x, y, z'

loop_
  _atom_site_type_symbol
  _atom_site_label
  _atom_site_symmetry_multiplicity
  _atom_site_fract_x
  _atom_site_fract_y
  _atom_site_fract_z
  _atom_site_occupancy
  S   S1        1.0  0.24997865814533565  0.249991783317253  0.2500186745318907  1.0000
  S   S2        1.0  0.7499836250905719  0.7500208572864069  0.7500011779575203  1.0000
  Ir  Ir1       1.0  1.20861044280111e-06  0.9999997718069691  0.99999906684298  1.0000
  O   O1        1.0  0.23428516324702645  0.2342739884384624  0.7657213113284588  1.0000
  O   O2        1.0  0.7657242400791665  0.7657197164417667  0.2342760540340876  1.0000
  O   O3        1.0  0.7657255125970982  0.23427608591080087  0.23427982655387275  1.0000
  O   O4        1.0  0.2342857656135194  0.7657224368612225  0.7657185217003875  1.0000
  O   O5        1.0  0.2342841385948292  0.7657216856388834  0.23427442723628483  1.0000
  O   O6        1.0  0.7657304212747873  0.2342763204687406  0.7657129307801038  1.0000
