data_image0
_chemical_formula_structural       S2MnO6
_chemical_formula_sum              "S2 Mn1 O6"
_cell_length_a       5.583118391973314
_cell_length_b       5.583117934975043
_cell_length_c       5.58311836732975
_cell_angle_alpha    60.000001131895516
_cell_angle_beta     59.99999794667291
_cell_angle_gamma    59.999995800614634

_space_group_name_H-M_alt    "P 1"
_space_group_IT_number       1

loop_
  _space_group_symop_operation_xyz
  'x, y, z'

loop_
  _atom_site_type_symbol
  _atom_site_label
  _atom_site_symmetry_multiplicity
  _atom_site_fract_x
  _atom_site_fract_y
  _atom_site_fract_z
  _atom_site_occupancy
  S   S1        1.0  0.25000014955732325  0.24999993546883573  0.24999992741362667  1.0000
  S   S2        1.0  0.7499999311557669  0.7500001924902575  0.7499999303483575  1.0000
  Mn  Mn1       1.0  3.202666369436243e-08  0.9999999473522163  0.9999999816527382  1.0000
  O   O1        1.0  0.23192211260687498  0.23192199424759963  0.7680779550434035  1.0000
  O   O2        1.0  0.7680778212031353  0.7680780284159362  0.23192202344455792  1.0000
  O   O3        1.0  0.7680779343809093  0.2319220191750201  0.2319220793223074  1.0000
  O   O4        1.0  0.2319220969069447  0.7680779530343903  0.7680779061027252  1.0000
  O   O5        1.0  0.23192206935395085  0.7680778976114347  0.23192206246450325  1.0000
  O   O6        1.0  0.7680778711624859  0.2319220987282162  0.7680780422545794  1.0000
