data_image0
_chemical_formula_structural       S2NiO6
_chemical_formula_sum              "S2 Ni1 O6"
_cell_length_a       5.630902182303796
_cell_length_b       5.630902558439159
_cell_length_c       5.630901930040225
_cell_angle_alpha    60.00000717747704
_cell_angle_beta     60.00000504181538
_cell_angle_gamma    60.00000666774122

_space_group_name_H-M_alt    "P 1"
_space_group_IT_number       1

loop_
  _space_group_symop_operation_xyz
  'x, y, z'

loop_
  _atom_site_type_symbol
  _atom_site_label
  _atom_site_symmetry_multiplicity
  _atom_site_fract_x
  _atom_site_fract_y
  _atom_site_fract_z
  _atom_site_occupancy
  S   S1        1.0  0.2500012244203275  0.24999894343463006  0.24999940637409018  1.0000
  S   S2        1.0  0.74999898464429  0.7499995273555947  0.7500033581130783  1.0000
  Ni  Ni1       1.0  0.9999999872198763  0.9999999891247917  1.715540868688049e-08  1.0000
  O   O1        1.0  0.22821253068489145  0.22821235125718176  0.7717879885135093  1.0000
  O   O2        1.0  0.7717868514766281  0.7717882249732759  0.22821099511249565  1.0000
  O   O3        1.0  0.7717874268120553  0.2282133908300314  0.22821148009446146  1.0000
  O   O4        1.0  0.22821232878776002  0.7717876399841483  0.7717874908772178  1.0000
  O   O5        1.0  0.2282137125080131  0.7717879150966686  0.22821116715669118  1.0000
  O   O6        1.0  0.7717869842763148  0.22821197164561705  0.7717881450071225  1.0000
