data_image0
_chemical_formula_structural       S2NO6
_chemical_formula_sum              "S2 N1 O6"
_cell_length_a       3.2057856200321133
_cell_length_b       2.3829596735812504
_cell_length_c       3.435839814495992
_cell_angle_alpha    59.054959730076284
_cell_angle_beta     66.82877102118289
_cell_angle_gamma    54.75741059236178

_space_group_name_H-M_alt    "P 1"
_space_group_IT_number       1

loop_
  _space_group_symop_operation_xyz
  'x, y, z'

loop_
  _atom_site_type_symbol
  _atom_site_label
  _atom_site_symmetry_multiplicity
  _atom_site_fract_x
  _atom_site_fract_y
  _atom_site_fract_z
  _atom_site_occupancy
  S   S1        1.0  0.1941665780084676  0.06116998396887352  0.3196689983645248  1.0000
  S   S2        1.0  0.7507301488024287  0.8888031998398684  0.3055416372740075  1.0000
  N   N1        1.0  0.7885770259065594  0.8258750709642405  0.6582544146105616  1.0000
  O   O1        1.0  0.9569573154899689  0.8134008730764053  0.05288955455142963  1.0000
  O   O2        1.0  0.6288290487405338  0.2885644567781205  0.996597732538115  1.0000
  O   O3        1.0  0.7128617212458841  0.320255814722769  0.5186950091434518  1.0000
  O   O4        1.0  0.3162623382790875  0.5699198608832201  0.8291193791692442  1.0000
  O   O5        1.0  0.5791732710787251  0.738348765081494  0.017637404074135832  1.0000
  O   O6        1.0  0.8017057322132869  0.36138186639104936  0.7287000080935135  1.0000
