data_image0
_chemical_formula_structural       S2NO6
_chemical_formula_sum              "S2 N1 O6"
_cell_length_a       3.3775624918408553
_cell_length_b       3.0548756284618133
_cell_length_c       4.213091768010257
_cell_angle_alpha    30.594670000110725
_cell_angle_beta     59.865525297427055
_cell_angle_gamma    50.63390019764392

_space_group_name_H-M_alt    "P 1"
_space_group_IT_number       1

loop_
  _space_group_symop_operation_xyz
  'x, y, z'

loop_
  _atom_site_type_symbol
  _atom_site_label
  _atom_site_symmetry_multiplicity
  _atom_site_fract_x
  _atom_site_fract_y
  _atom_site_fract_z
  _atom_site_occupancy
  S   S1        1.0  0.2877585965466867  0.9014634565352417  0.047509220841917124  1.0000
  S   S2        1.0  0.9694706991156996  0.6926217267260754  0.5554865677795752  1.0000
  N   N1        1.0  0.3900032645868058  0.43765203599201963  0.9825742746732838  1.0000
  O   O1        1.0  0.8923824830681741  0.2506141137742046  0.08798948033128529  1.0000
  O   O2        1.0  0.4766782556328704  0.8895516882065103  0.8195271985737596  1.0000
  O   O3        1.0  0.3565345349671202  0.9228777036273624  0.6067337006043511  1.0000
  O   O4        1.0  0.7873468841382507  0.8476903787543009  0.7066404529246831  1.0000
  O   O5        1.0  0.6206128979210768  0.5725623502613502  0.8045387739294915  1.0000
  O   O6        1.0  0.689983667185171  0.44327350310768304  0.663810195384206  1.0000
