data_image0
_chemical_formula_structural       S2OsO6
_chemical_formula_sum              "S2 Os1 O6"
_cell_length_a       5.676638517346366
_cell_length_b       5.676638552331326
_cell_length_c       5.676638661513506
_cell_angle_alpha    60.000002236777036
_cell_angle_beta     60.000002653709444
_cell_angle_gamma    60.00000374773088

_space_group_name_H-M_alt    "P 1"
_space_group_IT_number       1

loop_
  _space_group_symop_operation_xyz
  'x, y, z'

loop_
  _atom_site_type_symbol
  _atom_site_label
  _atom_site_symmetry_multiplicity
  _atom_site_fract_x
  _atom_site_fract_y
  _atom_site_fract_z
  _atom_site_occupancy
  S   S1        1.0  0.2500000133223073  0.24999996644107012  0.2500000625312809  1.0000
  S   S2        1.0  0.7500000555171338  0.7500001150749795  0.7499998446956997  1.0000
  Os  Os1       1.0  0.9999999660156184  4.315034081959103e-09  0.9999999848873732  1.0000
  O   O1        1.0  0.23261492694237573  0.23261486611050194  0.7673850862140669  1.0000
  O   O2        1.0  0.7673851121678394  0.7673851032146258  0.2326149377747371  1.0000
  O   O3        1.0  0.7673850876938836  0.23261488220274032  0.23261490595351156  1.0000
  O   O4        1.0  0.23261486717455188  0.7673850957524563  0.7673851452715105  1.0000
  O   O5        1.0  0.23261487943491369  0.7673850940256408  0.23261489990095355  1.0000
  O   O6        1.0  0.7673850873915042  0.23261489687466239  0.767385133587707  1.0000
