data_image0
_chemical_formula_structural       S2PdO6
_chemical_formula_sum              "S2 Pd1 O6"
_cell_length_a       3.5069088848443664
_cell_length_b       4.554335452249956
_cell_length_c       3.4970103450449064
_cell_angle_alpha    57.06113861099527
_cell_angle_beta     77.55207242700811
_cell_angle_gamma    48.24380270914169

_space_group_name_H-M_alt    "P 1"
_space_group_IT_number       1

loop_
  _space_group_symop_operation_xyz
  'x, y, z'

loop_
  _atom_site_type_symbol
  _atom_site_label
  _atom_site_symmetry_multiplicity
  _atom_site_fract_x
  _atom_site_fract_y
  _atom_site_fract_z
  _atom_site_occupancy
  S   S1        1.0  0.7975339016424039  0.41347129437103974  0.2618010672380606  1.0000
  S   S2        1.0  0.4212645214319164  0.7758737040592281  0.9430281581909761  1.0000
  Pd  Pd1       1.0  0.5454056989200172  0.9591281973039925  0.17496486672307632  1.0000
  O   O1        1.0  0.9420663115707578  0.2687159307107026  0.8668603451599399  1.0000
  O   O2        1.0  0.7951508603985993  0.4054877523133527  0.28384047872431933  1.0000
  O   O3        1.0  0.9470718661988231  0.08282565292586776  0.04117797406485904  1.0000
  O   O4        1.0  0.15907843091489096  0.060269539002520744  0.3496961521257012  1.0000
  O   O5        1.0  0.054290855960298715  0.5782273281447474  0.03521090944320539  1.0000
  O   O6        1.0  0.4393983992759981  0.7653284974469993  0.9605920482831878  1.0000
