data_image0
_chemical_formula_structural       S2PO6
_chemical_formula_sum              "S2 P1 O6"
_cell_length_a       5.665668872403666
_cell_length_b       5.665669190052697
_cell_length_c       5.665668695146764
_cell_angle_alpha    60.00000026960049
_cell_angle_beta     60.000001845195655
_cell_angle_gamma    59.99999943743235

_space_group_name_H-M_alt    "P 1"
_space_group_IT_number       1

loop_
  _space_group_symop_operation_xyz
  'x, y, z'

loop_
  _atom_site_type_symbol
  _atom_site_label
  _atom_site_symmetry_multiplicity
  _atom_site_fract_x
  _atom_site_fract_y
  _atom_site_fract_z
  _atom_site_occupancy
  S   S1        1.0  0.24999987178297986  0.25000004924222924  0.24999990235520014  1.0000
  S   S2        1.0  0.7499997465093594  0.7499999315571668  0.7500003337906916  1.0000
  P   P1        1.0  0.9999999994842697  6.268915607896982e-08  0.9999999283179012  1.0000
  O   O1        1.0  0.21072766781396443  0.2107276453341155  0.7892722513846109  1.0000
  O   O2        1.0  0.7892724740352032  0.7892723116866293  0.2107275830807578  1.0000
  O   O3        1.0  0.7892724721175319  0.2107276378154763  0.21072760145157501  1.0000
  O   O4        1.0  0.21072769659738075  0.7892722997500079  0.7892723828650072  1.0000
  O   O5        1.0  0.2107276955586281  0.7892724354360492  0.2107276023978234  1.0000
  O   O6        1.0  0.7892723208134483  0.21072765344808675  0.7892724106711145  1.0000
