data_image0
_chemical_formula_structural       S2PO6
_chemical_formula_sum              "S2 P1 O6"
_cell_length_a       5.665833158801587
_cell_length_b       5.665833580959318
_cell_length_c       5.665833307046365
_cell_angle_alpha    59.99999887655265
_cell_angle_beta     60.00000093384735
_cell_angle_gamma    59.999998588697885

_space_group_name_H-M_alt    "P 1"
_space_group_IT_number       1

loop_
  _space_group_symop_operation_xyz
  'x, y, z'

loop_
  _atom_site_type_symbol
  _atom_site_label
  _atom_site_symmetry_multiplicity
  _atom_site_fract_x
  _atom_site_fract_y
  _atom_site_fract_z
  _atom_site_occupancy
  S   S1        1.0  0.25000000762492314  0.2500000393202273  0.2499999582764302  1.0000
  S   S2        1.0  0.7500000741958117  0.7500000985059901  0.7499998465413584  1.0000
  P   P1        1.0  0.999999968462106  1.5131425701887828e-08  3.997261136084417e-08  1.0000
  O   O1        1.0  0.21077086091767935  0.21077088062914995  0.7892291353370149  1.0000
  O   O2        1.0  0.7892291566582831  0.7892290280640418  0.21077090794787925  1.0000
  O   O3        1.0  0.7892290661087727  0.21077080551576488  0.2107709848972757  1.0000
  O   O4        1.0  0.21077087807774147  0.7892291399251776  0.7892290837683273  1.0000
  O   O5        1.0  0.21077089439734847  0.7892291206413834  0.2107708634167555  1.0000
  O   O6        1.0  0.7892290774558754  0.2107708701938386  0.7892291192993203  1.0000
