data_image0
_chemical_formula_structural       S2RhO6
_chemical_formula_sum              "S2 Rh1 O6"
_cell_length_a       4.829158634783029
_cell_length_b       4.829158619971787
_cell_length_c       4.829158513109149
_cell_angle_alpha    59.999998564597476
_cell_angle_beta     59.999999903340104
_cell_angle_gamma    60.00000117344312

_space_group_name_H-M_alt    "P 1"
_space_group_IT_number       1

loop_
  _space_group_symop_operation_xyz
  'x, y, z'

loop_
  _atom_site_type_symbol
  _atom_site_label
  _atom_site_symmetry_multiplicity
  _atom_site_fract_x
  _atom_site_fract_y
  _atom_site_fract_z
  _atom_site_occupancy
  S   S1        1.0  0.2499995325517938  0.25000025713532714  0.2500001207250352  1.0000
  S   S2        1.0  0.7500002819644522  0.7500003022191108  0.7499994357178634  1.0000
  Rh  Rh1       1.0  8.006668370687051e-08  0.99999993913251  2.8249284917698127e-09  1.0000
  O   O1        1.0  0.2716256811551307  0.27162575927453647  0.7283742375798596  1.0000
  O   O2        1.0  0.7283745035345245  0.7283741127844756  0.271625864655081  1.0000
  O   O3        1.0  0.7283744864111996  0.2716254343776705  0.27162596442721043  1.0000
  O   O4        1.0  0.27162557920831637  0.7283743286270816  0.728374320204819  1.0000
  O   O5        1.0  0.2716254006857499  0.7283743103465897  0.2716259511430398  1.0000
  O   O6        1.0  0.7283744755270112  0.27162560482689274  0.7283740911929787  1.0000
