data_image0
_chemical_formula_structural       S2RuO6
_chemical_formula_sum              "S2 Ru1 O6"
_cell_length_a       3.8595740727304726
_cell_length_b       3.638276770270497
_cell_length_c       2.5775680262816296
_cell_angle_alpha    89.8091818497347
_cell_angle_beta     91.96276640890058
_cell_angle_gamma    48.04929648488604

_space_group_name_H-M_alt    "P 1"
_space_group_IT_number       1

loop_
  _space_group_symop_operation_xyz
  'x, y, z'

loop_
  _atom_site_type_symbol
  _atom_site_label
  _atom_site_symmetry_multiplicity
  _atom_site_fract_x
  _atom_site_fract_y
  _atom_site_fract_z
  _atom_site_occupancy
  S   S1        1.0  0.40146455395441333  0.30438542958975595  0.4389559623751948  1.0000
  S   S2        1.0  0.7060484975297752  0.5332720537024701  0.7748605650905799  1.0000
  Ru  Ru1       1.0  0.7172767146419823  0.165272898711675  0.7904062559699085  1.0000
  O   O1        1.0  0.9902116859291012  0.3519559760058926  0.07736841254867755  1.0000
  O   O2        1.0  0.6609835048460738  0.7528809148926731  0.5483463661814003  1.0000
  O   O3        1.0  0.20877981123972594  0.39072431646324723  0.22010483589082752  1.0000
  O   O4        1.0  0.06947026405491236  0.7588845253697449  0.7482229734087459  1.0000
  O   O5        1.0  0.44925053473030424  0.9054107071134492  0.12486566266375591  1.0000
  O   O6        1.0  0.525086167994692  0.2708653068192046  0.8068648025047566  1.0000
