data_image0
_chemical_formula_structural       S2SeO6
_chemical_formula_sum              "S2 Se1 O6"
_cell_length_a       4.697042395710939
_cell_length_b       4.697014605525992
_cell_length_c       4.696985034119158
_cell_angle_alpha    60.000212062827146
_cell_angle_beta     59.99997455227737
_cell_angle_gamma    59.99927589863766

_space_group_name_H-M_alt    "P 1"
_space_group_IT_number       1

loop_
  _space_group_symop_operation_xyz
  'x, y, z'

loop_
  _atom_site_type_symbol
  _atom_site_label
  _atom_site_symmetry_multiplicity
  _atom_site_fract_x
  _atom_site_fract_y
  _atom_site_fract_z
  _atom_site_occupancy
  S   S1        1.0  0.249999230154184  0.2500022793038293  0.2500003606596589  1.0000
  S   S2        1.0  0.7500006470515642  0.7499978420672664  0.749999928624402  1.0000
  Se  Se1       1.0  1.3819457615582595e-07  0.9999995854073436  7.006586025734511e-08  1.0000
  O   O1        1.0  0.266919222430716  0.26691808976780584  0.73308326400626  1.0000
  O   O2        1.0  0.7330805475917196  0.733081549221631  0.26691703690918656  1.0000
  O   O3        1.0  0.7330813154255705  0.2669190537621502  0.2669194220485512  1.0000
  O   O4        1.0  0.26691983614110565  0.7330809320064334  0.7330799954674538  1.0000
  O   O5        1.0  0.26691976079146046  0.7330817822836492  0.2669194973259033  1.0000
  O   O6        1.0  0.7330794024353406  0.26691882149233265  0.7330801839112919  1.0000
