data_image0
_chemical_formula_structural       S2SiO6
_chemical_formula_sum              "S2 Si1 O6"
_cell_length_a       5.679134717405647
_cell_length_b       5.679137748691298
_cell_length_c       5.679136084090796
_cell_angle_alpha    59.99998016344725
_cell_angle_beta     59.99998841420814
_cell_angle_gamma    59.99998408610711

_space_group_name_H-M_alt    "P 1"
_space_group_IT_number       1

loop_
  _space_group_symop_operation_xyz
  'x, y, z'

loop_
  _atom_site_type_symbol
  _atom_site_label
  _atom_site_symmetry_multiplicity
  _atom_site_fract_x
  _atom_site_fract_y
  _atom_site_fract_z
  _atom_site_occupancy
  S   S1        1.0  0.2500007259549864  0.24999853146596826  0.2500007132736788  1.0000
  S   S2        1.0  0.7500000492787191  0.7500002051419066  0.750001909458293  1.0000
  Si  Si1       1.0  3.131814729243881e-07  0.9999998900148388  2.3648145032224466e-07  1.0000
  O   O1        1.0  0.2184966813033097  0.21849696154561607  0.7815035668318435  1.0000
  O   O2        1.0  0.78150202507666  0.7815046389868857  0.21849552056290378  1.0000
  O   O3        1.0  0.7815030915580594  0.21849725862607158  0.21849621256846974  1.0000
  O   O4        1.0  0.21849576944980825  0.7815043720984997  0.7815023791859382  1.0000
  O   O5        1.0  0.21849783694942607  0.7815032330531192  0.21849608930939304  1.0000
  O   O6        1.0  0.7815034537036317  0.21849520163602593  0.7815033980426586  1.0000
