data_image0
_chemical_formula_structural       S2TiO6
_chemical_formula_sum              "S2 Ti1 O6"
_cell_length_a       5.515162197103175
_cell_length_b       5.515161937162129
_cell_length_c       5.515162421416683
_cell_angle_alpha    60.000001355569744
_cell_angle_beta     59.99999882654848
_cell_angle_gamma    60.00000146633828

_space_group_name_H-M_alt    "P 1"
_space_group_IT_number       1

loop_
  _space_group_symop_operation_xyz
  'x, y, z'

loop_
  _atom_site_type_symbol
  _atom_site_label
  _atom_site_symmetry_multiplicity
  _atom_site_fract_x
  _atom_site_fract_y
  _atom_site_fract_z
  _atom_site_occupancy
  S   S1        1.0  0.2499998508374643  0.24999995418899892  0.24999999512801696  1.0000
  S   S2        1.0  0.7500001474124236  0.7499999935875515  0.7499998091816358  1.0000
  Ti  Ti1       1.0  5.9436219275076965e-09  0.9999999444828235  0.9999999975890271  1.0000
  O   O1        1.0  0.24330633637885513  0.24330632533934904  0.7566937676928439  1.0000
  O   O2        1.0  0.7566935207668277  0.7566937756646223  0.24330644033461502  1.0000
  O   O3        1.0  0.7566938029607951  0.2433063566842433  0.2433063408020941  1.0000
  O   O4        1.0  0.24330620556513569  0.756693711009417  0.7566936286852558  1.0000
  O   O5        1.0  0.2433062825988837  0.7566935777360241  0.24330640840692183  1.0000
  O   O6        1.0  0.756693779898392  0.2433064411025219  0.7566935349509295  1.0000
