data_image0
_chemical_formula_structural       S2VO6
_chemical_formula_sum              "S2 V1 O6"
_cell_length_a       5.693703785532995
_cell_length_b       5.693703680984216
_cell_length_c       5.693703980166143
_cell_angle_alpha    59.99999791567132
_cell_angle_beta     59.999995915604686
_cell_angle_gamma    59.9999917399848

_space_group_name_H-M_alt    "P 1"
_space_group_IT_number       1

loop_
  _space_group_symop_operation_xyz
  'x, y, z'

loop_
  _atom_site_type_symbol
  _atom_site_label
  _atom_site_symmetry_multiplicity
  _atom_site_fract_x
  _atom_site_fract_y
  _atom_site_fract_z
  _atom_site_occupancy
  S   S1        1.0  0.24999990851948548  0.24999973308390364  0.24999972684252908  1.0000
  S   S2        1.0  0.7499993520630215  0.7499997843377243  0.7500000389552463  1.0000
  V   V1        1.0  1.9788222811446217e-08  2.5812615301728006e-08  0.9999999684179507  1.0000
  O   O1        1.0  0.22797138141718154  0.22797122530047575  0.7720287278097773  1.0000
  O   O2        1.0  0.7720288868643491  0.7720286943676998  0.22797137978544957  1.0000
  O   O3        1.0  0.7720286407866874  0.2279714731276489  0.22797111135841386  1.0000
  O   O4        1.0  0.22797174960180372  0.7720287433856112  0.7720288464758689  1.0000
  O   O5        1.0  0.22797135813684763  0.7720289868190753  0.2279712471754896  1.0000
  O   O6        1.0  0.7720286322549794  0.22797143189304517  0.7720289008866527  1.0000
