data_image0
_chemical_formula_structural       Sb2AsN6
_chemical_formula_sum              "Sb2 As1 N6"
_cell_length_a       5.285469394132138
_cell_length_b       5.2854691314565745
_cell_length_c       5.285469247996236
_cell_angle_alpha    59.99999940101229
_cell_angle_beta     59.99999912086788
_cell_angle_gamma    59.99999952599731

_space_group_name_H-M_alt    "P 1"
_space_group_IT_number       1

loop_
  _space_group_symop_operation_xyz
  'x, y, z'

loop_
  _atom_site_type_symbol
  _atom_site_label
  _atom_site_symmetry_multiplicity
  _atom_site_fract_x
  _atom_site_fract_y
  _atom_site_fract_z
  _atom_site_occupancy
  Sb  Sb1       1.0  0.2500001667348574  0.24999973086146227  0.2500000491946885  1.0000
  Sb  Sb2       1.0  0.7499997631600985  0.7500001519020268  0.7499999588763294  1.0000
  As  As1       1.0  4.369339613314566e-08  4.713894036914377e-16  0.9999999876131991  1.0000
  N   N1        1.0  0.25523297470166056  0.25523274792192335  0.7447671226149831  1.0000
  N   N2        1.0  0.7447669455912649  0.7447672947278415  0.2552329654562397  1.0000
  N   N3        1.0  0.7447671304064705  0.2552328314091265  0.25523290962116923  1.0000
  N   N4        1.0  0.25523299722935366  0.7447673363690285  0.7447669459951204  1.0000
  N   N5        1.0  0.25523293659169244  0.7447671515863188  0.2552328308548241  1.0000
  N   N6        1.0  0.7447670740035223  0.25523273812874875  0.7447672223133154  1.0000
