data_image0
_chemical_formula_structural       Sb2AgTe6
_chemical_formula_sum              "Sb2 Ag1 Te6"
_cell_length_a       7.157376351766831
_cell_length_b       7.157376606065718
_cell_length_c       7.157376368814995
_cell_angle_alpha    60.000000433466354
_cell_angle_beta     60.00000062192963
_cell_angle_gamma    60.000001240136484

_space_group_name_H-M_alt    "P 1"
_space_group_IT_number       1

loop_
  _space_group_symop_operation_xyz
  'x, y, z'

loop_
  _atom_site_type_symbol
  _atom_site_label
  _atom_site_symmetry_multiplicity
  _atom_site_fract_x
  _atom_site_fract_y
  _atom_site_fract_z
  _atom_site_occupancy
  Sb  Sb1       1.0  0.24999996786735745  0.2500001556521838  0.24999995446152457  1.0000
  Sb  Sb2       1.0  0.7500000309972373  0.7499999056946011  0.7500003373954108  1.0000
  Ag  Ag1       1.0  0.999999999510684  2.566746784221744e-08  0.9999999189500838  1.0000
  Te  Te1       1.0  0.2709975245502663  0.2709977130475942  0.7290023800466249  1.0000
  Te  Te2       1.0  0.7290024597303278  0.7290022952530969  0.27099746081083625  1.0000
  Te  Te3       1.0  0.7290023362562039  0.27099773421115303  0.2709975110118536  1.0000
  Te  Te4       1.0  0.2709975862128327  0.7290023288467998  0.7290024549256752  1.0000
  Te  Te5       1.0  0.27099774153540057  0.7290023129681563  0.2709975561880312  1.0000
  Te  Te6       1.0  0.7290023561516962  0.27099752934957977  0.7290024255247781  1.0000
