data_image0
_chemical_formula_structural       Sb2AuSe6
_chemical_formula_sum              "Sb2 Au1 Se6"
_cell_length_a       6.598713367649508
_cell_length_b       6.598713373305791
_cell_length_c       6.598713346657761
_cell_angle_alpha    60.00000110985399
_cell_angle_beta     60.00000070899759
_cell_angle_gamma    59.99999999018909

_space_group_name_H-M_alt    "P 1"
_space_group_IT_number       1

loop_
  _space_group_symop_operation_xyz
  'x, y, z'

loop_
  _atom_site_type_symbol
  _atom_site_label
  _atom_site_symmetry_multiplicity
  _atom_site_fract_x
  _atom_site_fract_y
  _atom_site_fract_z
  _atom_site_occupancy
  Sb  Sb1       1.0  0.24999998417855432  0.25000045913261515  0.24999937468543146  1.0000
  Sb  Sb2       1.0  0.750000112088157  0.7500006572559468  0.7499999197979398  1.0000
  Au  Au1       1.0  4.705287499185824e-08  0.9999999795836052  0.9999999866817599  1.0000
  Se  Se1       1.0  0.2711413499439366  0.2711410049728864  0.7288589369134311  1.0000
  Se  Se2       1.0  0.7288589076194422  0.7288586878361757  0.2711410372056485  1.0000
  Se  Se3       1.0  0.72885895904855  0.27114105131418503  0.2711413215931624  1.0000
  Se  Se4       1.0  0.2711409782521379  0.7288585208525513  0.7288591139344883  1.0000
  Se  Se5       1.0  0.2711410925429113  0.7288588100848373  0.2711412418744321  1.0000
  Se  Se6       1.0  0.7288585694765001  0.27114082147504637  0.7288590636721112  1.0000
