data_image0
_chemical_formula_structural       Sb2AgSe6
_chemical_formula_sum              "Sb2 Ag1 Se6"
_cell_length_a       6.493401117805703
_cell_length_b       6.493401166672751
_cell_length_c       6.493401136381983
_cell_angle_alpha    59.99999906996293
_cell_angle_beta     59.999999236800086
_cell_angle_gamma    59.99999911201095

_space_group_name_H-M_alt    "P 1"
_space_group_IT_number       1

loop_
  _space_group_symop_operation_xyz
  'x, y, z'

loop_
  _atom_site_type_symbol
  _atom_site_label
  _atom_site_symmetry_multiplicity
  _atom_site_fract_x
  _atom_site_fract_y
  _atom_site_fract_z
  _atom_site_occupancy
  Sb  Sb1       1.0  0.2500003625288647  0.25000009026291975  0.24999944870556137  1.0000
  Sb  Sb2       1.0  0.7500000561574838  0.7500001481898038  0.7499998456056904  1.0000
  Ag  Ag1       1.0  9.512648069284359e-08  1.0939598798036231e-07  0.9999997991771651  1.0000
  Se  Se1       1.0  0.27847729419804  0.2784772697277697  0.7215228442672071  1.0000
  Se  Se2       1.0  0.7215226033358442  0.7215226329924389  0.27847730353343614  1.0000
  Se  Se3       1.0  0.7215226030323983  0.2784771905627358  0.2784775505891759  1.0000
  Se  Se4       1.0  0.27847733892433857  0.7215225895585198  0.7215227795218422  1.0000
  Se  Se5       1.0  0.2784772608207302  0.7215226674447175  0.2784774202608434  1.0000
  Se  Se6       1.0  0.7215223954604428  0.27847729751803496  0.7215230126280577  1.0000
