data_image0
_chemical_formula_structural       Sb2AsO6
_chemical_formula_sum              "Sb2 As1 O6"
_cell_length_a       5.303089778156194
_cell_length_b       5.303089690205302
_cell_length_c       5.303089829455505
_cell_angle_alpha    60.00000099648878
_cell_angle_beta     60.00000003358382
_cell_angle_gamma    60.000001263958

_space_group_name_H-M_alt    "P 1"
_space_group_IT_number       1

loop_
  _space_group_symop_operation_xyz
  'x, y, z'

loop_
  _atom_site_type_symbol
  _atom_site_label
  _atom_site_symmetry_multiplicity
  _atom_site_fract_x
  _atom_site_fract_y
  _atom_site_fract_z
  _atom_site_occupancy
  Sb  Sb1       1.0  0.2500001522981587  0.2500000488007247  0.24999957652607016  1.0000
  Sb  Sb2       1.0  0.7499997622136457  0.7500000748079031  0.7500001479612806  1.0000
  As  As1       1.0  0.9999999678445036  1.154746607589764e-08  8.196035376548834e-08  1.0000
  O   O1        1.0  0.24310720185172638  0.24310699798807137  0.7568930249434859  1.0000
  O   O2        1.0  0.7568928716149564  0.7568928969807578  0.2431070926680147  1.0000
  O   O3        1.0  0.7568929571733184  0.24310710747082576  0.24310707799113038  1.0000
  O   O4        1.0  0.24310713485606752  0.7568928036644539  0.7568929845419315  1.0000
  O   O5        1.0  0.24310718438485737  0.7568929043434485  0.2431070623897446  1.0000
  O   O6        1.0  0.7568927865434487  0.24310711533799997  0.7568929536213664  1.0000
