data_image0
_chemical_formula_structural       Sb2AuS6
_chemical_formula_sum              "Sb2 Au1 S6"
_cell_length_a       6.280994957503145
_cell_length_b       6.280995167189738
_cell_length_c       6.2809951444924685
_cell_angle_alpha    60.00000195714199
_cell_angle_beta     60.000002235792245
_cell_angle_gamma    60.00000206418392

_space_group_name_H-M_alt    "P 1"
_space_group_IT_number       1

loop_
  _space_group_symop_operation_xyz
  'x, y, z'

loop_
  _atom_site_type_symbol
  _atom_site_label
  _atom_site_symmetry_multiplicity
  _atom_site_fract_x
  _atom_site_fract_y
  _atom_site_fract_z
  _atom_site_occupancy
  Sb  Sb1       1.0  0.2499998803793897  0.25000039463973434  0.24999991149226222  1.0000
  Sb  Sb2       1.0  0.7499995955989806  0.7500004546485027  0.7499994723031249  1.0000
  Au  Au1       1.0  2.1318487893939666e-08  0.9999999746510189  2.748891715664394e-08  1.0000
  S   S1        1.0  0.26681125469831585  0.26681081193277545  0.733188988905521  1.0000
  S   S2        1.0  0.7331891062602349  0.7331888108547563  0.2668113298602445  1.0000
  S   S3        1.0  0.7331888864367231  0.266810865360963  0.26681125905079245  1.0000
  S   S4        1.0  0.2668112241260846  0.7331888412731978  0.7331890012922334  1.0000
  S   S5        1.0  0.2668110503038019  0.7331888099346686  0.2668110980611523  1.0000
  S   S6        1.0  0.7331889673892671  0.26681104294361335  0.7331889174763797  1.0000
