data_image0
_chemical_formula_structural       Sb2BS6
_chemical_formula_sum              "Sb2 B1 S6"
_cell_length_a       6.170089711602782
_cell_length_b       6.170089609168408
_cell_length_c       6.170089703080017
_cell_angle_alpha    59.99999575723711
_cell_angle_beta     59.999997178624746
_cell_angle_gamma    59.999997303671314

_space_group_name_H-M_alt    "P 1"
_space_group_IT_number       1

loop_
  _space_group_symop_operation_xyz
  'x, y, z'

loop_
  _atom_site_type_symbol
  _atom_site_label
  _atom_site_symmetry_multiplicity
  _atom_site_fract_x
  _atom_site_fract_y
  _atom_site_fract_z
  _atom_site_occupancy
  Sb  Sb1       1.0  0.25000014860360914  0.25000005823298815  0.25000013344143546  1.0000
  Sb  Sb2       1.0  0.7500000408450712  0.7499999186377322  0.7499996352297581  1.0000
  B   B1        1.0  0.999999999224816  7.939876442285354e-09  2.427673945180246e-07  1.0000
  S   S1        1.0  0.23562982341878083  0.23562995960790148  0.7643699941175978  1.0000
  S   S2        1.0  0.7643701437426496  0.7643700609321785  0.23562995786441923  1.0000
  S   S3        1.0  0.764370026713864  0.2356298459002071  0.23562985112672577  1.0000
  S   S4        1.0  0.2356299808832118  0.7643701150907419  0.7643700942048152  1.0000
  S   S5        1.0  0.23562979148746166  0.7643700722262206  0.2356299704043319  1.0000
  S   S6        1.0  0.7643700598517219  0.23562997014853845  0.7643701096075699  1.0000
