data_image0
_chemical_formula_structural       Sb2BiN6
_chemical_formula_sum              "Sb2 Bi1 N6"
_cell_length_a       5.584403325144723
_cell_length_b       5.58440333996101
_cell_length_c       5.584403352330159
_cell_angle_alpha    60.000000107978366
_cell_angle_beta     60.000000044147185
_cell_angle_gamma    60.000000046490904

_space_group_name_H-M_alt    "P 1"
_space_group_IT_number       1

loop_
  _space_group_symop_operation_xyz
  'x, y, z'

loop_
  _atom_site_type_symbol
  _atom_site_label
  _atom_site_symmetry_multiplicity
  _atom_site_fract_x
  _atom_site_fract_y
  _atom_site_fract_z
  _atom_site_occupancy
  Sb  Sb1       1.0  0.24999997874326718  0.24999997199360954  0.2500000350019018  1.0000
  Sb  Sb2       1.0  0.7499999828664161  0.7500000366042214  0.7499999533290413  1.0000
  Bi  Bi1       1.0  0.9999999649741188  0.9999999934205424  7.810512050172797e-08  1.0000
  N   N1        1.0  0.26507388434919865  0.26507384379457927  0.7349261380756856  1.0000
  N   N2        1.0  0.7349261386865857  0.7349261604169467  0.2650738772471091  1.0000
  N   N3        1.0  0.7349261769149043  0.2650738168633326  0.2650738612893113  1.0000
  N   N4        1.0  0.2650738842179134  0.7349261412919887  0.734926100710618  1.0000
  N   N5        1.0  0.26507384098501585  0.7349261626224137  0.2650738580804273  1.0000
  N   N6        1.0  0.734926149802142  0.26507387010009587  0.7349261035994393  1.0000
