data_image0
_chemical_formula_structural       Sb2BTe6
_chemical_formula_sum              "Sb2 B1 Te6"
_cell_length_a       7.024395530219524
_cell_length_b       7.0243956128747564
_cell_length_c       7.024395480086014
_cell_angle_alpha    60.00000056680652
_cell_angle_beta     60.00000035324745
_cell_angle_gamma    60.00000069343408

_space_group_name_H-M_alt    "P 1"
_space_group_IT_number       1

loop_
  _space_group_symop_operation_xyz
  'x, y, z'

loop_
  _atom_site_type_symbol
  _atom_site_label
  _atom_site_symmetry_multiplicity
  _atom_site_fract_x
  _atom_site_fract_y
  _atom_site_fract_z
  _atom_site_occupancy
  Sb  Sb1       1.0  0.2500000401448899  0.24999974327676142  0.25000003721331376  1.0000
  Sb  Sb2       1.0  0.7499998619035257  0.7500001730957352  0.7500000895850483  1.0000
  B   B1        1.0  6.791913070772502e-09  0.9999999598981415  8.214103501029492e-08  1.0000
  Te  Te1       1.0  0.23794427984186062  0.23794416511224364  0.7620557761925159  1.0000
  Te  Te2       1.0  0.7620556926239508  0.7620558802836238  0.23794414838553943  1.0000
  Te  Te3       1.0  0.7620558425554307  0.23794419945979509  0.2379442688171291  1.0000
  Te  Te4       1.0  0.23794426375969638  0.7620558093213321  0.7620556939838516  1.0000
  Te  Te5       1.0  0.23794428033196818  0.7620558465158553  0.2379441744549804  1.0000
  Te  Te6       1.0  0.7620557261559731  0.2379442250333979  0.7620557271533674  1.0000
