data_image0
_chemical_formula_structural       Sb2BO6
_chemical_formula_sum              "Sb2 B1 O6"
_cell_length_a       5.061412273239427
_cell_length_b       5.06141271595546
_cell_length_c       5.061412772267139
_cell_angle_alpha    60.000000861270195
_cell_angle_beta     59.999999922107676
_cell_angle_gamma    60.000003486835716

_space_group_name_H-M_alt    "P 1"
_space_group_IT_number       1

loop_
  _space_group_symop_operation_xyz
  'x, y, z'

loop_
  _atom_site_type_symbol
  _atom_site_label
  _atom_site_symmetry_multiplicity
  _atom_site_fract_x
  _atom_site_fract_y
  _atom_site_fract_z
  _atom_site_occupancy
  Sb  Sb1       1.0  0.25000011567960045  0.2499997146635001  0.2500001848136787  1.0000
  Sb  Sb2       1.0  0.7499998013141213  0.7499999667118694  0.7500003665493623  1.0000
  B   B1        1.0  9.376587352402843e-08  6.775352675804459e-08  0.9999997532787347  1.0000
  O   O1        1.0  0.22634722312694408  0.22634706837132662  0.7736527032930803  1.0000
  O   O2        1.0  0.7736527585004489  0.7736529324135196  0.22634708901303377  1.0000
  O   O3        1.0  0.7736529530807015  0.2263472424604704  0.2263470448692431  1.0000
  O   O4        1.0  0.22634706981709288  0.7736528672139713  0.7736528896874992  1.0000
  O   O5        1.0  0.2263472784401076  0.7736529073070338  0.2263470495857601  1.0000
  O   O6        1.0  0.7736527726408383  0.22634719994763972  0.7736528918466207  1.0000
