data_image0
_chemical_formula_structural       Sb2BiTe6
_chemical_formula_sum              "Sb2 Bi1 Te6"
_cell_length_a       7.551376266904472
_cell_length_b       7.551376277844135
_cell_length_c       7.551376448579205
_cell_angle_alpha    59.99999926483358
_cell_angle_beta     59.99999927303191
_cell_angle_gamma    60.00000060181646

_space_group_name_H-M_alt    "P 1"
_space_group_IT_number       1

loop_
  _space_group_symop_operation_xyz
  'x, y, z'

loop_
  _atom_site_type_symbol
  _atom_site_label
  _atom_site_symmetry_multiplicity
  _atom_site_fract_x
  _atom_site_fract_y
  _atom_site_fract_z
  _atom_site_occupancy
  Sb  Sb1       1.0  0.2500000532874453  0.250000150054127  0.24999987407869245  1.0000
  Sb  Sb2       1.0  0.7499999668614519  0.7499999327817043  0.749999905916716  1.0000
  Bi  Bi1       1.0  0.9999999890337616  0.999999987024936  4.0250799101868635e-09  1.0000
  Te  Te1       1.0  0.2839671667544073  0.2839672329388547  0.7160327925711536  1.0000
  Te  Te2       1.0  0.7160328070278267  0.7160327688028263  0.2839672762791814  1.0000
  Te  Te3       1.0  0.7160327756244892  0.2839672138597973  0.28396719234403933  1.0000
  Te  Te4       1.0  0.28396726979613623  0.7160327197627989  0.7160328575312379  1.0000
  Te  Te5       1.0  0.28396721810678127  0.7160327408972375  0.2839672179950131  1.0000
  Te  Te6       1.0  0.7160327590119756  0.28396724624749653  0.7160328842950336  1.0000
