data_image0
_chemical_formula_structural       Sb2BeS6
_chemical_formula_sum              "Sb2 Be1 S6"
_cell_length_a       6.05550900704363
_cell_length_b       6.055508831921423
_cell_length_c       6.055509013822296
_cell_angle_alpha    59.99999820270515
_cell_angle_beta     59.99999940978588
_cell_angle_gamma    59.99999963304977

_space_group_name_H-M_alt    "P 1"
_space_group_IT_number       1

loop_
  _space_group_symop_operation_xyz
  'x, y, z'

loop_
  _atom_site_type_symbol
  _atom_site_label
  _atom_site_symmetry_multiplicity
  _atom_site_fract_x
  _atom_site_fract_y
  _atom_site_fract_z
  _atom_site_occupancy
  Sb  Sb1       1.0  0.24999991440819433  0.25000005814250437  0.24999987625735257  1.0000
  Sb  Sb2       1.0  0.7499997256993928  0.7500000267828101  0.7500003686097629  1.0000
  Be  Be1       1.0  0.9999999646553394  2.0225300545575983e-08  2.4073568461889504e-08  1.0000
  S   S1        1.0  0.25433315562450953  0.25433305645249893  0.7456668857681851  1.0000
  S   S2        1.0  0.745666968250467  0.7456668585802938  0.25433296601289185  1.0000
  S   S3        1.0  0.7456669751010384  0.25433312704903094  0.2543329622756697  1.0000
  S   S4        1.0  0.2543331359248887  0.7456668951778566  0.745666995912046  1.0000
  S   S5        1.0  0.254333213844558  0.7456669957082929  0.25433291920408435  1.0000
  S   S6        1.0  0.7456669434285271  0.2543329678652223  0.7456669956450733  1.0000
