data_image0
_chemical_formula_structural       Sb2BiSe6
_chemical_formula_sum              "Sb2 Bi1 Se6"
_cell_length_a       6.769822202692186
_cell_length_b       6.76982172586785
_cell_length_c       6.76982274966765
_cell_angle_alpha    59.99999520743471
_cell_angle_beta     59.99999732535521
_cell_angle_gamma    60.000000954631616

_space_group_name_H-M_alt    "P 1"
_space_group_IT_number       1

loop_
  _space_group_symop_operation_xyz
  'x, y, z'

loop_
  _atom_site_type_symbol
  _atom_site_label
  _atom_site_symmetry_multiplicity
  _atom_site_fract_x
  _atom_site_fract_y
  _atom_site_fract_z
  _atom_site_occupancy
  Sb  Sb1       1.0  0.2500003352707425  0.24999918369464208  0.2500001914508181  1.0000
  Sb  Sb2       1.0  0.7499998818202536  0.7500004420645467  0.749999331912253  1.0000
  Bi  Bi1       1.0  0.9999999545857614  0.999999936680646  1.6072113168222217e-07  1.0000
  Se  Se1       1.0  0.2906338100307514  0.2906335489083213  0.7093663993253592  1.0000
  Se  Se2       1.0  0.7093662020794411  0.7093665996877904  0.29063384844149526  1.0000
  Se  Se3       1.0  0.7093662728663972  0.2906333639111333  0.2906338127970046  1.0000
  Se  Se4       1.0  0.2906337761682855  0.709366607390795  0.7093661875688333  1.0000
  Se  Se5       1.0  0.2906334222324419  0.7093666100087426  0.2906337250447262  1.0000
  Se  Se6       1.0  0.7093663466720355  0.2906337104541666  0.7093663353429118  1.0000
