data_image0
_chemical_formula_structural       Sb2CrO6
_chemical_formula_sum              "Sb2 Cr1 O6"
_cell_length_a       5.318969902539088
_cell_length_b       5.318969961450308
_cell_length_c       5.3189699380748205
_cell_angle_alpha    60.000000360506085
_cell_angle_beta     60.00000082721157
_cell_angle_gamma    60.00000009794469

_space_group_name_H-M_alt    "P 1"
_space_group_IT_number       1

loop_
  _space_group_symop_operation_xyz
  'x, y, z'

loop_
  _atom_site_type_symbol
  _atom_site_label
  _atom_site_symmetry_multiplicity
  _atom_site_fract_x
  _atom_site_fract_y
  _atom_site_fract_z
  _atom_site_occupancy
  Sb  Sb1       1.0  0.2499999120398713  0.25000025367270157  0.24999981442807445  1.0000
  Sb  Sb2       1.0  0.7500001163342361  0.7499995682724275  0.750000392888036  1.0000
  Cr  Cr1       1.0  3.5742873468884514e-09  2.3025978341562165e-09  0.9999999820210513  1.0000
  O   O1        1.0  0.24498367700987247  0.2449838846878568  0.7550162688537  1.0000
  O   O2        1.0  0.7550162734483752  0.7550161905430339  0.24498367781163882  1.0000
  O   O3        1.0  0.7550162553999604  0.244983963334752  0.24498359237666312  1.0000
  O   O4        1.0  0.2449837499894778  0.7550160773571712  0.7550163422125014  1.0000
  O   O5        1.0  0.24498380850376364  0.7550162047764155  0.2449837351341974  1.0000
  O   O6        1.0  0.7550161848685285  0.24498385894148592  0.7550162089910569  1.0000
