data_image0
_chemical_formula_structural       Sb2CaO6
_chemical_formula_sum              "Sb2 Ca1 O6"
_cell_length_a       5.51675653469899
_cell_length_b       5.516756688681479
_cell_length_c       5.516756771693095
_cell_angle_alpha    60.00000153672589
_cell_angle_beta     60.00000037838132
_cell_angle_gamma    59.99999945930024

_space_group_name_H-M_alt    "P 1"
_space_group_IT_number       1

loop_
  _space_group_symop_operation_xyz
  'x, y, z'

loop_
  _atom_site_type_symbol
  _atom_site_label
  _atom_site_symmetry_multiplicity
  _atom_site_fract_x
  _atom_site_fract_y
  _atom_site_fract_z
  _atom_site_occupancy
  Sb  Sb1       1.0  0.24999948337615643  0.24999985447236922  0.25000034269766386  1.0000
  Sb  Sb2       1.0  0.7500000646028739  0.7500000385067193  0.7499998527995493  1.0000
  Ca  Ca1       1.0  0.9999999876954606  0.9999999866797291  0.9999999747465612  1.0000
  O   O1        1.0  0.2763450637592867  0.2763452391521602  0.723654897935626  1.0000
  O   O2        1.0  0.7236550642346862  0.7236546782474156  0.2763452019870309  1.0000
  O   O3        1.0  0.723654957843992  0.2763450463922735  0.2763451939775509  1.0000
  O   O4        1.0  0.27634519983024164  0.723655070811357  0.7236546788180804  1.0000
  O   O5        1.0  0.27634507932255953  0.7236549747346405  0.27634519705150323  1.0000
  O   O6        1.0  0.7236550876127544  0.27634509584804284  0.723654669046832  1.0000
