data_image0
_chemical_formula_structural       Sb2CuSe6
_chemical_formula_sum              "Sb2 Cu1 Se6"
_cell_length_a       6.42329812176524
_cell_length_b       6.423298403109197
_cell_length_c       6.4232982977595405
_cell_angle_alpha    60.00000010062827
_cell_angle_beta     59.999999978492845
_cell_angle_gamma    60.00000106761376

_space_group_name_H-M_alt    "P 1"
_space_group_IT_number       1

loop_
  _space_group_symop_operation_xyz
  'x, y, z'

loop_
  _atom_site_type_symbol
  _atom_site_label
  _atom_site_symmetry_multiplicity
  _atom_site_fract_x
  _atom_site_fract_y
  _atom_site_fract_z
  _atom_site_occupancy
  Sb  Sb1       1.0  0.24999994572373022  0.25000049693352683  0.24999967226119918  1.0000
  Sb  Sb2       1.0  0.7500000143194586  0.749999616492203  0.7500002218783183  1.0000
  Cu  Cu1       1.0  0.999999991575567  0.9999999389848753  0.9999999849011367  1.0000
  Se  Se1       1.0  0.26632068850931084  0.26632096339196437  0.7336792360061435  1.0000
  Se  Se2       1.0  0.7336794100671425  0.733678955548054  0.26632077484905564  1.0000
  Se  Se3       1.0  0.7336790790713889  0.2663209631010306  0.26632068949304044  1.0000
  Se  Se4       1.0  0.2663208904150762  0.7336790950297413  0.7336793381074307  1.0000
  Se  Se5       1.0  0.26632087657507003  0.7336791294413127  0.2663208071925969  1.0000
  Se  Se6       1.0  0.7336790978340214  0.2663208276331578  0.7336792996113634  1.0000
