data_image0
_chemical_formula_structural       Sb2CO6
_chemical_formula_sum              "Sb2 C1 O6"
_cell_length_a       4.991541195170336
_cell_length_b       4.991540994531982
_cell_length_c       4.991541497925462
_cell_angle_alpha    59.99999805134997
_cell_angle_beta     59.999996274163294
_cell_angle_gamma    59.99999827665247

_space_group_name_H-M_alt    "P 1"
_space_group_IT_number       1

loop_
  _space_group_symop_operation_xyz
  'x, y, z'

loop_
  _atom_site_type_symbol
  _atom_site_label
  _atom_site_symmetry_multiplicity
  _atom_site_fract_x
  _atom_site_fract_y
  _atom_site_fract_z
  _atom_site_occupancy
  Sb  Sb1       1.0  0.25000014494806294  0.24999981925759093  0.25000015571152967  1.0000
  Sb  Sb2       1.0  0.7499999961680313  0.7500001006266738  0.750000232822047  1.0000
  C   C1        1.0  0.9999999437031598  0.9999989890999704  8.581474647490015e-07  1.0000
  O   O1        1.0  0.2301221719804123  0.23012221575772768  0.7698778119792905  1.0000
  O   O2        1.0  0.7698783487194719  0.7698783003612578  0.23012156175368972  1.0000
  O   O3        1.0  0.7698780172551425  0.23012203638189457  0.2301219612731858  1.0000
  O   O4        1.0  0.23012178337858832  0.7698781484955702  0.7698779601509178  1.0000
  O   O5        1.0  0.23012180088673762  0.7698782420058221  0.23012173290203686  1.0000
  O   O6        1.0  0.7698777941625904  0.2301221293483371  0.7698777392998138  1.0000
