data_image0
_chemical_formula_structural       Sb2CuTe6
_chemical_formula_sum              "Sb2 Cu1 Te6"
_cell_length_a       7.013309582383703
_cell_length_b       7.013309489638966
_cell_length_c       7.013309663849709
_cell_angle_alpha    59.99999933441425
_cell_angle_beta     59.99999927358889
_cell_angle_gamma    59.99999844548213

_space_group_name_H-M_alt    "P 1"
_space_group_IT_number       1

loop_
  _space_group_symop_operation_xyz
  'x, y, z'

loop_
  _atom_site_type_symbol
  _atom_site_label
  _atom_site_symmetry_multiplicity
  _atom_site_fract_x
  _atom_site_fract_y
  _atom_site_fract_z
  _atom_site_occupancy
  Sb  Sb1       1.0  0.24999995544367531  0.24999995743634665  0.2500000857098339  1.0000
  Sb  Sb2       1.0  0.7499999512268029  0.7500001115542189  0.7499999624540135  1.0000
  Cu  Cu1       1.0  0.9999999930147392  2.095578218481047e-08  0.9999999602199519  1.0000
  Te  Te1       1.0  0.2618101460608273  0.26181010333378085  0.7381898458684616  1.0000
  Te  Te2       1.0  0.738189882032651  0.7381898434147204  0.26181012856018043  1.0000
  Te  Te3       1.0  0.7381898760615564  0.2618100437057595  0.26181020462662624  1.0000
  Te  Te4       1.0  0.26181011392974324  0.7381899728953496  0.7381898209422367  1.0000
  Te  Te5       1.0  0.2618101468929872  0.7381899085689949  0.2618101243146  1.0000
  Te  Te6       1.0  0.7381899371795094  0.2618100381795058  0.7381898691779238  1.0000
