data_image0
_chemical_formula_structural       Sb2CrN6
_chemical_formula_sum              "Sb2 Cr1 N6"
_cell_length_a       5.30963372231555
_cell_length_b       5.309633780767207
_cell_length_c       5.309633918112012
_cell_angle_alpha    59.99999894534902
_cell_angle_beta     59.99999920047516
_cell_angle_gamma    59.99999974832078

_space_group_name_H-M_alt    "P 1"
_space_group_IT_number       1

loop_
  _space_group_symop_operation_xyz
  'x, y, z'

loop_
  _atom_site_type_symbol
  _atom_site_label
  _atom_site_symmetry_multiplicity
  _atom_site_fract_x
  _atom_site_fract_y
  _atom_site_fract_z
  _atom_site_occupancy
  Sb  Sb1       1.0  0.24999976709841557  0.25000053904187874  0.24999963658850272  1.0000
  Sb  Sb2       1.0  0.750000509687057  0.749999603423137  0.7499998171637554  1.0000
  Cr  Cr1       1.0  0.9999999730024712  9.226586082701155e-09  9.552044590196923e-08  1.0000
  N   N1        1.0  0.2475803385264396  0.24758096399379578  0.7524193532763419  1.0000
  N   N2        1.0  0.7524197015454965  0.7524190469923607  0.2475805482437756  1.0000
  N   N3        1.0  0.7524196129459562  0.24758064563826862  0.24758059132470017  1.0000
  N   N4        1.0  0.24758056802736186  0.7524190470306539  0.7524195815901386  1.0000
  N   N5        1.0  0.24758034715140112  0.7524192335029215  0.24758098066120177  1.0000
  N   N6        1.0  0.7524192292399613  0.2475809158820298  0.7524194413399161  1.0000
