data_image0
_chemical_formula_structural       Sb2CoS6
_chemical_formula_sum              "Sb2 Co1 S6"
_cell_length_a       6.156055863749806
_cell_length_b       6.156055866261162
_cell_length_c       6.156055721000714
_cell_angle_alpha    60.00000068825209
_cell_angle_beta     60.00000063580526
_cell_angle_gamma    60.000000566470064

_space_group_name_H-M_alt    "P 1"
_space_group_IT_number       1

loop_
  _space_group_symop_operation_xyz
  'x, y, z'

loop_
  _atom_site_type_symbol
  _atom_site_label
  _atom_site_symmetry_multiplicity
  _atom_site_fract_x
  _atom_site_fract_y
  _atom_site_fract_z
  _atom_site_occupancy
  Sb  Sb1       1.0  0.24999999657079136  0.2500002306015341  0.250000033732075  1.0000
  Sb  Sb2       1.0  0.7500002803901821  0.7499996453296984  0.749999598660897  1.0000
  Co  Co1       1.0  0.9999999927247031  0.9999999880630239  0.9999999332585494  1.0000
  S   S1        1.0  0.25169422122229274  0.2516946005267311  0.7483055641714093  1.0000
  S   S2        1.0  0.7483056239795756  0.7483054902700704  0.2516946639933549  1.0000
  S   S3        1.0  0.7483055069574349  0.25169439636249824  0.25169447640753323  1.0000
  S   S4        1.0  0.25169443220252163  0.7483055870015185  0.7483056431609901  1.0000
  S   S5        1.0  0.25169439724680587  0.7483053843462767  0.2516944886846486  1.0000
  S   S6        1.0  0.7483055300509123  0.25169469650304493  0.7483056075653424  1.0000
