data_image0
_chemical_formula_structural       Sb2CrS6
_chemical_formula_sum              "Sb2 Cr1 S6"
_cell_length_a       6.187173040691277
_cell_length_b       6.187172427646791
_cell_length_c       6.187173259030824
_cell_angle_alpha    59.999999234341516
_cell_angle_beta     59.99999895398594
_cell_angle_gamma    59.99999776743376

_space_group_name_H-M_alt    "P 1"
_space_group_IT_number       1

loop_
  _space_group_symop_operation_xyz
  'x, y, z'

loop_
  _atom_site_type_symbol
  _atom_site_label
  _atom_site_symmetry_multiplicity
  _atom_site_fract_x
  _atom_site_fract_y
  _atom_site_fract_z
  _atom_site_occupancy
  Sb  Sb1       1.0  0.24999971102807872  0.2500005989130627  0.2499997924875313  1.0000
  Sb  Sb2       1.0  0.7500004890440065  0.749999425309607  0.7500004153264392  1.0000
  Cr  Cr1       1.0  1.0311439508788802e-08  1.3856433266299804e-08  0.9999999846835701  1.0000
  S   S1        1.0  0.25875142069573387  0.2587517510053854  0.7412483926459216  1.0000
  S   S2        1.0  0.7412485412459623  0.7412482989506401  0.2587514267949946  1.0000
  S   S3        1.0  0.7412484496608911  0.25875176658685095  0.25875137372129015  1.0000
  S   S4        1.0  0.258751417912345  0.741248208148541  0.7412486485001993  1.0000
  S   S5        1.0  0.25875161701190685  0.741248275342454  0.25875147914348595  1.0000
  S   S6        1.0  0.7412483527928156  0.2587516558441456  0.741248474946728  1.0000
