data_image0
_chemical_formula_structural       Sb2CuO6
_chemical_formula_sum              "Sb2 Cu1 O6"
_cell_length_a       5.253082759708088
_cell_length_b       5.2530831577084305
_cell_length_c       5.253082837607798
_cell_angle_alpha    59.9999997527379
_cell_angle_beta     60.00000023483279
_cell_angle_gamma    59.99999972219581

_space_group_name_H-M_alt    "P 1"
_space_group_IT_number       1

loop_
  _space_group_symop_operation_xyz
  'x, y, z'

loop_
  _atom_site_type_symbol
  _atom_site_label
  _atom_site_symmetry_multiplicity
  _atom_site_fract_x
  _atom_site_fract_y
  _atom_site_fract_z
  _atom_site_occupancy
  Sb  Sb1       1.0  0.2499999678156101  0.24999969018188573  0.25000052811254647  1.0000
  Sb  Sb2       1.0  0.749999837464087  0.7500000334461573  0.7500005952438279  1.0000
  Cu  Cu1       1.0  0.9999999963808819  0.9999999976685215  1.630080681112176e-08  1.0000
  O   O1        1.0  0.25067972621647855  0.2506795676480796  0.7493201564383847  1.0000
  O   O2        1.0  0.7493202422967399  0.7493205103646788  0.2506794269564063  1.0000
  O   O3        1.0  0.7493204027490146  0.2506797600638054  0.2506795082672861  1.0000
  O   O4        1.0  0.250679575752894  0.749320485815376  0.7493201594315558  1.0000
  O   O5        1.0  0.2506797939758767  0.7493204137095697  0.25067943840008394  1.0000
  O   O6        1.0  0.7493204495066741  0.25067953840335877  0.7493202208478412  1.0000
