data_image0
_chemical_formula_structural       Sb2CrSe6
_chemical_formula_sum              "Sb2 Cr1 Se6"
_cell_length_a       6.4653943363901805
_cell_length_b       6.465394512114767
_cell_length_c       6.465394483134697
_cell_angle_alpha    59.99999981928093
_cell_angle_beta     59.99999982066582
_cell_angle_gamma    59.99999965582254

_space_group_name_H-M_alt    "P 1"
_space_group_IT_number       1

loop_
  _space_group_symop_operation_xyz
  'x, y, z'

loop_
  _atom_site_type_symbol
  _atom_site_label
  _atom_site_symmetry_multiplicity
  _atom_site_fract_x
  _atom_site_fract_y
  _atom_site_fract_z
  _atom_site_occupancy
  Sb  Sb1       1.0  0.24999984695311284  0.25000053936408057  0.24999974828266677  1.0000
  Sb  Sb2       1.0  0.7499999864768654  0.7500000401336477  0.7500004111366007  1.0000
  Cr  Cr1       1.0  0.9999999880213035  3.7886158824749454e-09  4.8949225181862764e-08  1.0000
  Se  Se1       1.0  0.2578832681375559  0.2578832862570314  0.742116749084279  1.0000
  Se  Se2       1.0  0.7421168810072416  0.7421165336231782  0.25788314353039493  1.0000
  Se  Se3       1.0  0.7421167162127432  0.25788332755500437  0.25788315281781454  1.0000
  Se  Se4       1.0  0.2578832169007506  0.7421165510487557  0.7421168308243029  1.0000
  Se  Se5       1.0  0.2578834121070717  0.7421166107296505  0.2578831367875442  1.0000
  Se  Se6       1.0  0.742116684254138  0.25788310496361827  0.7421167832714247  1.0000
