data_image0
_chemical_formula_structural       Sb2CoSe6
_chemical_formula_sum              "Sb2 Co1 Se6"
_cell_length_a       6.432031791902966
_cell_length_b       6.432031695223693
_cell_length_c       6.432031523419754
_cell_angle_alpha    60.00000048057556
_cell_angle_beta     59.99999991250295
_cell_angle_gamma    60.000000692118185

_space_group_name_H-M_alt    "P 1"
_space_group_IT_number       1

loop_
  _space_group_symop_operation_xyz
  'x, y, z'

loop_
  _atom_site_type_symbol
  _atom_site_label
  _atom_site_symmetry_multiplicity
  _atom_site_fract_x
  _atom_site_fract_y
  _atom_site_fract_z
  _atom_site_occupancy
  Sb  Sb1       1.0  0.2500000087594432  0.2500001014797815  0.2499998991015491  1.0000
  Sb  Sb2       1.0  0.7499998706811987  0.7499998341183072  0.7500002341432345  1.0000
  Co  Co1       1.0  0.9999999874333582  0.9999999999999999  2.6494664804738543e-08  1.0000
  Se  Se1       1.0  0.25320394759809733  0.25320395364929416  0.7467960810222544  1.0000
  Se  Se2       1.0  0.7467960972219173  0.7467959705239934  0.2532039472603041  1.0000
  Se  Se3       1.0  0.7467960689601512  0.2532040145324063  0.2532038525595841  1.0000
  Se  Se4       1.0  0.2532040390726169  0.7467959839020978  0.7467960401330821  1.0000
  Se  Se5       1.0  0.2532040274954377  0.7467960405425185  0.2532038829173894  1.0000
  Se  Se6       1.0  0.7467959485579655  0.2532041007020161  0.7467960401184762  1.0000
