data_image0
_chemical_formula_structural       Sb2CS6
_chemical_formula_sum              "Sb2 C1 S6"
_cell_length_a       6.116241843447971
_cell_length_b       6.11624194667007
_cell_length_c       6.116241566823868
_cell_angle_alpha    59.99999841929984
_cell_angle_beta     60.00000313044307
_cell_angle_gamma    60.00000276135892

_space_group_name_H-M_alt    "P 1"
_space_group_IT_number       1

loop_
  _space_group_symop_operation_xyz
  'x, y, z'

loop_
  _atom_site_type_symbol
  _atom_site_label
  _atom_site_symmetry_multiplicity
  _atom_site_fract_x
  _atom_site_fract_y
  _atom_site_fract_z
  _atom_site_occupancy
  Sb  Sb1       1.0  0.25000116685336515  0.24999952800421102  0.24999959754844617  1.0000
  Sb  Sb2       1.0  0.7500007494668588  0.7500000237717059  0.7500006483957509  1.0000
  C   C1        1.0  1.529245516282827e-06  0.9999995694739756  0.9999998741029573  1.0000
  S   S1        1.0  0.23504361158680054  0.23504418621485731  0.7649560571896056  1.0000
  S   S2        1.0  0.7649552945727968  0.7649558040968724  0.2350440488547853  1.0000
  S   S3        1.0  0.7649552706975123  0.23504443756594567  0.2350442590177341  1.0000
  S   S4        1.0  0.23504359907112232  0.7649558771421453  0.764955946637609  1.0000
  S   S5        1.0  0.23504367933818401  0.764956340787375  0.235043792590262  1.0000
  S   S6        1.0  0.7649551086540403  0.2350442362412649  0.764955760356095  1.0000
