data_image0
_chemical_formula_structural       Sb2CdTe6
_chemical_formula_sum              "Sb2 Cd1 Te6"
_cell_length_a       7.301212772556908
_cell_length_b       7.3012126801762225
_cell_length_c       7.301212832498855
_cell_angle_alpha    59.99999939757428
_cell_angle_beta     59.99999942614702
_cell_angle_gamma    60.000000072906744

_space_group_name_H-M_alt    "P 1"
_space_group_IT_number       1

loop_
  _space_group_symop_operation_xyz
  'x, y, z'

loop_
  _atom_site_type_symbol
  _atom_site_label
  _atom_site_symmetry_multiplicity
  _atom_site_fract_x
  _atom_site_fract_y
  _atom_site_fract_z
  _atom_site_occupancy
  Sb  Sb1       1.0  0.24999994689744456  0.25000033179651177  0.24999986760949233  1.0000
  Sb  Sb2       1.0  0.7499999513854969  0.7499998899473175  0.7500000700710232  1.0000
  Cd  Cd1       1.0  0.9999999817398763  4.529125917555298e-08  0.9999999768969842  1.0000
  Te  Te1       1.0  0.2771061485535385  0.27710621576699096  0.7228938156784938  1.0000
  Te  Te2       1.0  0.7228939823307117  0.7228936402918572  0.27710619950094084  1.0000
  Te  Te3       1.0  0.7228937619844941  0.2771062388517898  0.27710609406917086  1.0000
  Te  Te4       1.0  0.2771062191487805  0.7228937295964784  0.7228938918538008  1.0000
  Te  Te5       1.0  0.2771062302337124  0.7228937051597152  0.27710614727934757  1.0000
  Te  Te6       1.0  0.7228937783774526  0.2771062045776618  0.7228939405471584  1.0000
