data_image0
_chemical_formula_structural       Sb2CuS6
_chemical_formula_sum              "Sb2 Cu1 S6"
_cell_length_a       6.158153824142562
_cell_length_b       6.158153683839878
_cell_length_c       6.158153709846591
_cell_angle_alpha    59.99999881584561
_cell_angle_beta     59.99999964563776
_cell_angle_gamma    59.999999070049775

_space_group_name_H-M_alt    "P 1"
_space_group_IT_number       1

loop_
  _space_group_symop_operation_xyz
  'x, y, z'

loop_
  _atom_site_type_symbol
  _atom_site_label
  _atom_site_symmetry_multiplicity
  _atom_site_fract_x
  _atom_site_fract_y
  _atom_site_fract_z
  _atom_site_occupancy
  Sb  Sb1       1.0  0.24999987600369533  0.25000040439352306  0.24999986331833554  1.0000
  Sb  Sb2       1.0  0.7499999055100819  0.7499997056562785  0.7500001383892672  1.0000
  Cu  Cu1       1.0  4.16871229994923e-08  9.94409187759057e-09  0.9999999498264422  1.0000
  S   S1        1.0  0.2627269128053834  0.26272702579255547  0.7372729958760479  1.0000
  S   S2        1.0  0.737273071580677  0.737272835654955  0.262727066045416  1.0000
  S   S3        1.0  0.7372730012315459  0.2627270879255662  0.26272694882090963  1.0000
  S   S4        1.0  0.2627270604647271  0.7372729803590495  0.7372730765780096  1.0000
  S   S5        1.0  0.2627271107559566  0.7372728490017285  0.26272695154079134  1.0000
  S   S6        1.0  0.7372730244680484  0.26272709995378857  0.7372730090701919  1.0000
