data_image0
_chemical_formula_structural       Sb2CdSe6
_chemical_formula_sum              "Sb2 Cd1 Se6"
_cell_length_a       6.563675981608081
_cell_length_b       6.563676078351286
_cell_length_c       6.56367618593279
_cell_angle_alpha    59.999999851048415
_cell_angle_beta     60.000000284961246
_cell_angle_gamma    59.999998724510114

_space_group_name_H-M_alt    "P 1"
_space_group_IT_number       1

loop_
  _space_group_symop_operation_xyz
  'x, y, z'

loop_
  _atom_site_type_symbol
  _atom_site_label
  _atom_site_symmetry_multiplicity
  _atom_site_fract_x
  _atom_site_fract_y
  _atom_site_fract_z
  _atom_site_occupancy
  Sb  Sb1       1.0  0.24999924086016914  0.24999960343565988  0.2500008883814776  1.0000
  Sb  Sb2       1.0  0.7499998390138602  0.7500002825363746  0.7499995605717261  1.0000
  Cd  Cd1       1.0  0.9999999860328881  0.9999999944021697  4.025320020262425e-08  1.0000
  Se  Se1       1.0  0.281014482239706  0.2810142446410985  0.7189855052118145  1.0000
  Se  Se2       1.0  0.7189856871303004  0.7189856133417649  0.2810144800236013  1.0000
  Se  Se3       1.0  0.718985916650621  0.281014239209597  0.281014478113684  1.0000
  Se  Se4       1.0  0.28101449816966895  0.7189860012916818  0.7189853302556676  1.0000
  Se  Se5       1.0  0.2810141938157701  0.7189856936344329  0.2810145346153289  1.0000
  Se  Se6       1.0  0.7189861494128706  0.28101433414928717  0.7189851782369374  1.0000
