data_image0
_chemical_formula_structural       Sb2CN6
_chemical_formula_sum              "Sb2 C1 N6"
_cell_length_a       5.110657687275856
_cell_length_b       5.110657776491972
_cell_length_c       5.110657886900747
_cell_angle_alpha    59.99999781053012
_cell_angle_beta     59.999998382188224
_cell_angle_gamma    59.9999986172278

_space_group_name_H-M_alt    "P 1"
_space_group_IT_number       1

loop_
  _space_group_symop_operation_xyz
  'x, y, z'

loop_
  _atom_site_type_symbol
  _atom_site_label
  _atom_site_symmetry_multiplicity
  _atom_site_fract_x
  _atom_site_fract_y
  _atom_site_fract_z
  _atom_site_occupancy
  Sb  Sb1       1.0  0.2499999797202462  0.2500001405650756  0.24999994947720056  1.0000
  Sb  Sb2       1.0  0.7500000452234193  0.7499999543869756  0.749999960570058  1.0000
  C   C1        1.0  8.8461145585021e-08  0.9999998634022053  0.9999998773161823  1.0000
  N   N1        1.0  0.2293885055045275  0.22938860856936014  0.7706114071842649  1.0000
  N   N2        1.0  0.770611580740488  0.770611431264281  0.2293885428188196  1.0000
  N   N3        1.0  0.7706112882411723  0.22938869475208667  0.22938863903439505  1.0000
  N   N4        1.0  0.22938841737166898  0.7706115583658311  0.7706116411862381  1.0000
  N   N5        1.0  0.2293885919054846  0.7706113654464234  0.2293885023593614  1.0000
  N   N6        1.0  0.770611465770219  0.229388434741962  0.770611480002857  1.0000
