data_image0
_chemical_formula_structural       Sb2CoO6
_chemical_formula_sum              "Sb2 Co1 O6"
_cell_length_a       5.224011486684121
_cell_length_b       5.224011835504544
_cell_length_c       5.224011723488851
_cell_angle_alpha    59.99999801430746
_cell_angle_beta     59.999998915417784
_cell_angle_gamma    59.9999982614232

_space_group_name_H-M_alt    "P 1"
_space_group_IT_number       1

loop_
  _space_group_symop_operation_xyz
  'x, y, z'

loop_
  _atom_site_type_symbol
  _atom_site_label
  _atom_site_symmetry_multiplicity
  _atom_site_fract_x
  _atom_site_fract_y
  _atom_site_fract_z
  _atom_site_occupancy
  Sb  Sb1       1.0  0.2500004808186294  0.2499997165765735  0.24999986794699336  1.0000
  Sb  Sb2       1.0  0.7499997401629576  0.7500001320554569  0.7499999848811661  1.0000
  Co  Co1       1.0  0.9999999883007405  0.9999999953110941  2.925069709679518e-08  1.0000
  O   O1        1.0  0.24372454305783228  0.24372427346448078  0.7562755887854514  1.0000
  O   O2        1.0  0.756275408924907  0.7562757721015818  0.24372443598598498  1.0000
  O   O3        1.0  0.7562754404121322  0.24372432826295065  0.24372452175200718  1.0000
  O   O4        1.0  0.24372448857433157  0.7562756868252268  0.756275524013797  1.0000
  O   O5        1.0  0.24372448197040744  0.7562757267324489  0.24372431457657945  1.0000
  O   O6        1.0  0.7562753972922305  0.24372438447829  0.7562757864735992  1.0000
