data_image0
_chemical_formula_structural       Sb2CrTe6
_chemical_formula_sum              "Sb2 Cr1 Te6"
_cell_length_a       7.065391312010633
_cell_length_b       7.065391127408663
_cell_length_c       7.065391420638158
_cell_angle_alpha    59.999999366665314
_cell_angle_beta     59.99999935067183
_cell_angle_gamma    59.99999959857027

_space_group_name_H-M_alt    "P 1"
_space_group_IT_number       1

loop_
  _space_group_symop_operation_xyz
  'x, y, z'

loop_
  _atom_site_type_symbol
  _atom_site_label
  _atom_site_symmetry_multiplicity
  _atom_site_fract_x
  _atom_site_fract_y
  _atom_site_fract_z
  _atom_site_occupancy
  Sb  Sb1       1.0  0.24999997695695392  0.24999990638644917  0.2500000778140565  1.0000
  Sb  Sb2       1.0  0.7500000315320013  0.7500000398461986  0.7500000001225796  1.0000
  Cr  Cr1       1.0  6.817623100646742e-09  1.3867539300105526e-08  0.9999999641811234  1.0000
  Te  Te1       1.0  0.2590440218828455  0.25904400986142434  0.7409560036093914  1.0000
  Te  Te2       1.0  0.7409559554211558  0.7409560005085933  0.25904404369753986  1.0000
  Te  Te3       1.0  0.740955973380382  0.259044020602844  0.2590440326138656  1.0000
  Te  Te4       1.0  0.25904398756355873  0.7409560192356942  0.7409559189718014  1.0000
  Te  Te5       1.0  0.25904404659944846  0.7409560010716604  0.25904401463737803  1.0000
  Te  Te6       1.0  0.7409560013762239  0.2590439884970477  0.7409559468743327  1.0000
