data_image0
_chemical_formula_structural       Sb2CdO6
_chemical_formula_sum              "Sb2 Cd1 O6"
_cell_length_a       5.481561011901909
_cell_length_b       5.481560886086713
_cell_length_c       5.481560916061563
_cell_angle_alpha    60.00000051374023
_cell_angle_beta     60.00000026957835
_cell_angle_gamma    59.99999900503386

_space_group_name_H-M_alt    "P 1"
_space_group_IT_number       1

loop_
  _space_group_symop_operation_xyz
  'x, y, z'

loop_
  _atom_site_type_symbol
  _atom_site_label
  _atom_site_symmetry_multiplicity
  _atom_site_fract_x
  _atom_site_fract_y
  _atom_site_fract_z
  _atom_site_occupancy
  Sb  Sb1       1.0  0.2500000447045862  0.25000006460299257  0.25000000846057574  1.0000
  Sb  Sb2       1.0  0.7499999549100473  0.7500002384949678  0.7499999193322892  1.0000
  Cd  Cd1       1.0  3.596050754737155e-08  0.9999999553140098  1.530852832958694e-08  1.0000
  O   O1        1.0  0.2746042651284502  0.2746042508824947  0.7253957325679664  1.0000
  O   O2        1.0  0.7253958019862147  0.7253956790874483  0.2746042495268034  1.0000
  O   O3        1.0  0.7253957040838472  0.27460415702011026  0.27460435345429324  1.0000
  O   O4        1.0  0.2746042315541706  0.7253957818870324  0.725395717274669  1.0000
  O   O5        1.0  0.2746042788517231  0.7253956884392889  0.2746042326316638  1.0000
  O   O6        1.0  0.7253957044075034  0.27460418343886767  0.7253957657077815  1.0000
