data_image0
_chemical_formula_structural       Sb2FeO6
_chemical_formula_sum              "Sb2 Fe1 O6"
_cell_length_a       5.289900444023266
_cell_length_b       5.289900550427135
_cell_length_c       5.2899007062034835
_cell_angle_alpha    60.0000006050984
_cell_angle_beta     60.00000092888673
_cell_angle_gamma    60.00000081545244

_space_group_name_H-M_alt    "P 1"
_space_group_IT_number       1

loop_
  _space_group_symop_operation_xyz
  'x, y, z'

loop_
  _atom_site_type_symbol
  _atom_site_label
  _atom_site_symmetry_multiplicity
  _atom_site_fract_x
  _atom_site_fract_y
  _atom_site_fract_z
  _atom_site_occupancy
  Sb  Sb1       1.0  0.25000015177966783  0.2500001946740694  0.25000022344449796  1.0000
  Sb  Sb2       1.0  0.7500003559123816  0.7499997690537864  0.7500013316936264  1.0000
  Fe  Fe1       1.0  3.703622789752863e-09  3.47287680901082e-08  0.999999986454989  1.0000
  O   O1        1.0  0.2457958522684089  0.24579608228828503  0.7542038918028028  1.0000
  O   O2        1.0  0.754203985885662  0.7542039647885924  0.2457953533563531  1.0000
  O   O3        1.0  0.7542038924665808  0.2457962262117302  0.24579563741821686  1.0000
  O   O4        1.0  0.24579561186423876  0.7542040037699944  0.7542039573073612  1.0000
  O   O5        1.0  0.2457961688481295  0.7542038977314344  0.2457956804612461  1.0000
  O   O6        1.0  0.7542039878077893  0.2457958159492731  0.7542039388816356  1.0000
