data_image0
_chemical_formula_structural       Sb2FeTe6
_chemical_formula_sum              "Sb2 Fe1 Te6"
_cell_length_a       7.048765756802391
_cell_length_b       7.048765241962285
_cell_length_c       7.048765405069559
_cell_angle_alpha    60.000003215900435
_cell_angle_beta     60.00000216846513
_cell_angle_gamma    60.00000510086063

_space_group_name_H-M_alt    "P 1"
_space_group_IT_number       1

loop_
  _space_group_symop_operation_xyz
  'x, y, z'

loop_
  _atom_site_type_symbol
  _atom_site_label
  _atom_site_symmetry_multiplicity
  _atom_site_fract_x
  _atom_site_fract_y
  _atom_site_fract_z
  _atom_site_occupancy
  Sb  Sb1       1.0  0.2500000677879803  0.24999978907982479  0.2500000811257508  1.0000
  Sb  Sb2       1.0  0.7500000152790387  0.7500000101259391  0.7499999932774795  1.0000
  Fe  Fe1       1.0  0.999999999156807  0.9999999582992583  8.085686871732821e-08  1.0000
  Te  Te1       1.0  0.24307949806734283  0.24307954400850487  0.7569204652278076  1.0000
  Te  Te2       1.0  0.7569203273882087  0.7569206496167842  0.24307949111731894  1.0000
  Te  Te3       1.0  0.7569204826222995  0.2430795147552568  0.24307959347160074  1.0000
  Te  Te4       1.0  0.24307954193080217  0.7569204894791628  0.7569203835565675  1.0000
  Te  Te5       1.0  0.24307963406387045  0.7569204360174635  0.24307956631390976  1.0000
  Te  Te6       1.0  0.7569204337428862  0.24307959080486077  0.7569203678626624  1.0000
