data_image0
_chemical_formula_structural       Sb2FeS6
_chemical_formula_sum              "Sb2 Fe1 S6"
_cell_length_a       6.160587881110212
_cell_length_b       6.160587862669974
_cell_length_c       6.160588044643165
_cell_angle_alpha    60.000002140595186
_cell_angle_beta     60.0000009630819
_cell_angle_gamma    60.0000004574971

_space_group_name_H-M_alt    "P 1"
_space_group_IT_number       1

loop_
  _space_group_symop_operation_xyz
  'x, y, z'

loop_
  _atom_site_type_symbol
  _atom_site_label
  _atom_site_symmetry_multiplicity
  _atom_site_fract_x
  _atom_site_fract_y
  _atom_site_fract_z
  _atom_site_occupancy
  Sb  Sb1       1.0  0.25000001095139895  0.24999990346105888  0.2499998505066528  1.0000
  Sb  Sb2       1.0  0.7499997601560059  0.7500003485416006  0.74999975511661  1.0000
  Fe  Fe1       1.0  2.247251226708118e-08  3.379655175440515e-08  0.9999999929673508  1.0000
  S   S1        1.0  0.25199214527052527  0.25199179293606205  0.748008136980184  1.0000
  S   S2        1.0  0.748007938877029  0.7480080316396408  0.2519921897341388  1.0000
  S   S3        1.0  0.7480081224643873  0.25199194285684934  0.251991930952022  1.0000
  S   S4        1.0  0.25199202815545413  0.7480079015991715  0.7480081496832912  1.0000
  S   S5        1.0  0.25199193736486064  0.7480081857242241  0.2519918727656965  1.0000
  S   S6        1.0  0.748008043463525  0.2519918475948777  0.7480081431442696  1.0000
