data_image0
_chemical_formula_structural       Sb2FeN6
_chemical_formula_sum              "Sb2 Fe1 N6"
_cell_length_a       5.361742664055854
_cell_length_b       5.361742780347067
_cell_length_c       5.36174257175097
_cell_angle_alpha    60.00000122913557
_cell_angle_beta     60.00000062050872
_cell_angle_gamma    60.00000057835716

_space_group_name_H-M_alt    "P 1"
_space_group_IT_number       1

loop_
  _space_group_symop_operation_xyz
  'x, y, z'

loop_
  _atom_site_type_symbol
  _atom_site_label
  _atom_site_symmetry_multiplicity
  _atom_site_fract_x
  _atom_site_fract_y
  _atom_site_fract_z
  _atom_site_occupancy
  Sb  Sb1       1.0  0.24999985804321084  0.25000012898299323  0.24999984125250613  1.0000
  Sb  Sb2       1.0  0.7500001268413296  0.7500003892332058  0.7499991791172064  1.0000
  Fe  Fe1       1.0  0.9999998173590174  0.9999999406100462  4.641285626574197e-08  1.0000
  N   N1        1.0  0.2451981233962941  0.2451979390620232  0.7548019908124748  1.0000
  N   N2        1.0  0.754802175032145  0.7548019098750655  0.2451983320592179  1.0000
  N   N3        1.0  0.754802130602225  0.24519773767118683  0.24519822066418553  1.0000
  N   N4        1.0  0.24519800794171226  0.7548019125379768  0.7548021080626481  1.0000
  N   N5        1.0  0.24519773530955077  0.7548021094139366  0.2451982562658105  1.0000
  N   N6        1.0  0.7548020241087209  0.24519792226147819  0.7548020041483792  1.0000
