data_image0
_chemical_formula_structural       Sb2GeN6
_chemical_formula_sum              "Sb2 Ge1 N6"
_cell_length_a       5.3149067437754915
_cell_length_b       5.314906772922426
_cell_length_c       5.314906855087728
_cell_angle_alpha    59.99999939916582
_cell_angle_beta     59.99999955317658
_cell_angle_gamma    59.999998423800626

_space_group_name_H-M_alt    "P 1"
_space_group_IT_number       1

loop_
  _space_group_symop_operation_xyz
  'x, y, z'

loop_
  _atom_site_type_symbol
  _atom_site_label
  _atom_site_symmetry_multiplicity
  _atom_site_fract_x
  _atom_site_fract_y
  _atom_site_fract_z
  _atom_site_occupancy
  Sb  Sb1       1.0  0.2499996803286865  0.24999988229678727  0.25000041888419733  1.0000
  Sb  Sb2       1.0  0.7499996673521644  0.7500004856767271  0.7500002305622768  1.0000
  Ge  Ge1       1.0  0.9999999695614119  3.9174089358718284e-08  0.9999999786987446  1.0000
  N   N1        1.0  0.26089482692104304  0.26089435197938154  0.7391054588201919  1.0000
  N   N2        1.0  0.7391054871922283  0.739105313164878  0.2608944793225424  1.0000
  N   N3        1.0  0.7391054080803954  0.26089448831010414  0.2608946519601753  1.0000
  N   N4        1.0  0.26089444348611257  0.7391056976191086  0.7391052231964536  1.0000
  N   N5        1.0  0.26089478537008515  0.7391055026780227  0.2608943307401037  1.0000
  N   N6        1.0  0.7391057242292371  0.26089424081441237  0.7391051807344378  1.0000
