data_image0
_chemical_formula_structural       Sb2GeO6
_chemical_formula_sum              "Sb2 Ge1 O6"
_cell_length_a       5.304371307207352
_cell_length_b       5.304370963933495
_cell_length_c       5.30437107986126
_cell_angle_alpha    60.000001704921054
_cell_angle_beta     60.00000030940954
_cell_angle_gamma    60.00000327967109

_space_group_name_H-M_alt    "P 1"
_space_group_IT_number       1

loop_
  _space_group_symop_operation_xyz
  'x, y, z'

loop_
  _atom_site_type_symbol
  _atom_site_label
  _atom_site_symmetry_multiplicity
  _atom_site_fract_x
  _atom_site_fract_y
  _atom_site_fract_z
  _atom_site_occupancy
  Sb  Sb1       1.0  0.2500004064134838  0.2499999552338171  0.2499999725014458  1.0000
  Sb  Sb2       1.0  0.7500002045292659  0.7499996902223462  0.7500006294842214  1.0000
  Ge  Ge1       1.0  5.6512264438859445e-08  0.9999999284230146  4.52371114300493e-08  1.0000
  O   O1        1.0  0.2501752436680237  0.25017529084913886  0.7498246956723441  1.0000
  O   O2        1.0  0.7498246103486729  0.7498248163939861  0.2501750038055196  1.0000
  O   O3        1.0  0.749824521763979  0.25017550794085064  0.2501749825454526  1.0000
  O   O4        1.0  0.2501751192649665  0.7498248856102195  0.7498246256004298  1.0000
  O   O5        1.0  0.2501752392806785  0.7498247774082274  0.25017518150431384  1.0000
  O   O6        1.0  0.7498246189163036  0.25017518668092836  0.7498248457379455  1.0000
