data_image0
_chemical_formula_structural       Sb2GeSe6
_chemical_formula_sum              "Sb2 Ge1 Se6"
_cell_length_a       6.564889069275027
_cell_length_b       6.564889024041859
_cell_length_c       6.564889181989219
_cell_angle_alpha    59.99999782389274
_cell_angle_beta     59.99999884248856
_cell_angle_gamma    59.99999859952925

_space_group_name_H-M_alt    "P 1"
_space_group_IT_number       1

loop_
  _space_group_symop_operation_xyz
  'x, y, z'

loop_
  _atom_site_type_symbol
  _atom_site_label
  _atom_site_symmetry_multiplicity
  _atom_site_fract_x
  _atom_site_fract_y
  _atom_site_fract_z
  _atom_site_occupancy
  Sb  Sb1       1.0  0.24999957214639573  0.24999963166793926  0.25000010023146446  1.0000
  Sb  Sb2       1.0  0.7500004599234978  0.7499997960880114  0.7500005427929666  1.0000
  Ge  Ge1       1.0  0.9999999877760657  2.6118383691948423e-08  0.9999999443086164  1.0000
  Se  Se1       1.0  0.26282649662442553  0.262826676287833  0.7371734611189229  1.0000
  Se  Se2       1.0  0.7371733918429968  0.7371734566644683  0.26282626286473415  1.0000
  Se  Se3       1.0  0.7371736544106929  0.2628268436133429  0.2628263748064656  1.0000
  Se  Se4       1.0  0.26282629726741336  0.737173479630033  0.7371733579960011  1.0000
  Se  Se5       1.0  0.26282656149425865  0.7371736557646917  0.26282665858702836  1.0000
  Se  Se6       1.0  0.7371735852484852  0.26282643054763527  0.7371732901252802  1.0000
