data_image0
_chemical_formula_structural       Sb2GaN6
_chemical_formula_sum              "Sb2 Ga1 N6"
_cell_length_a       5.577842538309473
_cell_length_b       5.323649035007906
_cell_length_c       10.556507054190787
_cell_angle_alpha    53.00606776805506
_cell_angle_beta     70.05991787980388
_cell_angle_gamma    48.30415866146722

_space_group_name_H-M_alt    "P 1"
_space_group_IT_number       1

loop_
  _space_group_symop_operation_xyz
  'x, y, z'

loop_
  _atom_site_type_symbol
  _atom_site_label
  _atom_site_symmetry_multiplicity
  _atom_site_fract_x
  _atom_site_fract_y
  _atom_site_fract_z
  _atom_site_occupancy
  Sb  Sb1       1.0  0.18942884559450313  0.26865012963699725  0.41417632031290796  1.0000
  Sb  Sb2       1.0  0.839588925443426  0.6865206457422441  0.5764816060728865  1.0000
  Ga  Ga1       1.0  0.8754910465688482  0.1997297897394458  0.0012164189811646382  1.0000
  N   N1        1.0  0.34880015013883253  0.15796032847004893  0.8393047282058688  1.0000
  N   N2        1.0  0.7016873828549743  0.7573422870241171  0.1710362889731159  1.0000
  N   N3        1.0  0.49589361443401114  0.7406312225037894  0.1832657334442372  1.0000
  N   N4        1.0  0.5349171586101457  0.21027182733146887  0.8197609487518515  1.0000
  N   N5        1.0  0.2994079550259179  0.6936163319749662  0.20307282119725462  1.0000
  N   N6        1.0  0.7147712763727408  0.2853081788066915  0.7916684131431122  1.0000
