data_image0
_chemical_formula_structural       Sb2GaTe6
_chemical_formula_sum              "Sb2 Ga1 Te6"
_cell_length_a       7.196418177578877
_cell_length_b       7.196418280384956
_cell_length_c       7.196418215495399
_cell_angle_alpha    59.99999924634945
_cell_angle_beta     59.99999933975594
_cell_angle_gamma    60.00000077232522

_space_group_name_H-M_alt    "P 1"
_space_group_IT_number       1

loop_
  _space_group_symop_operation_xyz
  'x, y, z'

loop_
  _atom_site_type_symbol
  _atom_site_label
  _atom_site_symmetry_multiplicity
  _atom_site_fract_x
  _atom_site_fract_y
  _atom_site_fract_z
  _atom_site_occupancy
  Sb  Sb1       1.0  0.25000000979550907  0.25000011916686854  0.2499999120824485  1.0000
  Sb  Sb2       1.0  0.7499999293290847  0.7499998826757587  0.750000063986319  1.0000
  Ga  Ga1       1.0  0.999999990275374  5.105643106985942e-09  3.010109472470608e-08  1.0000
  Te  Te1       1.0  0.2679478063129251  0.2679479539947109  0.7320521062412564  1.0000
  Te  Te2       1.0  0.732052176215124  0.7320520716742529  0.2679478570563171  1.0000
  Te  Te3       1.0  0.7320520721738766  0.26794791917048627  0.2679478305704562  1.0000
  Te  Te4       1.0  0.26794798703329215  0.7320520401251119  0.7320522109490505  1.0000
  Te  Te5       1.0  0.26794791249265226  0.7320520924599557  0.26794784957280066  1.0000
  Te  Te6       1.0  0.7320521148821352  0.2679479093826719  0.7320521421228166  1.0000
