data_image0
_chemical_formula_structural       Sb2GaS6
_chemical_formula_sum              "Sb2 Ga1 S6"
_cell_length_a       6.2512373773273335
_cell_length_b       6.251237132862759
_cell_length_c       6.251237243154234
_cell_angle_alpha    60.00000065590213
_cell_angle_beta     60.00000117116123
_cell_angle_gamma    59.99999993690282

_space_group_name_H-M_alt    "P 1"
_space_group_IT_number       1

loop_
  _space_group_symop_operation_xyz
  'x, y, z'

loop_
  _atom_site_type_symbol
  _atom_site_label
  _atom_site_symmetry_multiplicity
  _atom_site_fract_x
  _atom_site_fract_y
  _atom_site_fract_z
  _atom_site_occupancy
  Sb  Sb1       1.0  0.25000032395343424  0.24999969911367556  0.24999965709357663  1.0000
  Sb  Sb2       1.0  0.750000192456376  0.7500000612693971  0.7499997412478283  1.0000
  Ga  Ga1       1.0  0.9999999812115271  0.9999999843263675  0.9999999644415026  1.0000
  S   S1        1.0  0.26356791824995457  0.2635680627558973  0.7364321067614398  1.0000
  S   S2        1.0  0.7364319352102057  0.7364321404072828  0.26356799834661976  1.0000
  S   S3        1.0  0.7364319925511508  0.2635679641693656  0.26356807318125414  1.0000
  S   S4        1.0  0.2635679006725584  0.7364320587470475  0.7364320701747465  1.0000
  S   S5        1.0  0.26356791190804535  0.7364320960290278  0.26356814473595225  1.0000
  S   S6        1.0  0.7364318439731155  0.2635679288465916  0.7364322566740349  1.0000
