data_image0
_chemical_formula_structural       Sb2HgO6
_chemical_formula_sum              "Sb2 Hg1 O6"
_cell_length_a       5.4395131830027585
_cell_length_b       5.439513190868351
_cell_length_c       5.439513147661759
_cell_angle_alpha    60.000000597920106
_cell_angle_beta     60.00000033619216
_cell_angle_gamma    60.00000044800734

_space_group_name_H-M_alt    "P 1"
_space_group_IT_number       1

loop_
  _space_group_symop_operation_xyz
  'x, y, z'

loop_
  _atom_site_type_symbol
  _atom_site_label
  _atom_site_symmetry_multiplicity
  _atom_site_fract_x
  _atom_site_fract_y
  _atom_site_fract_z
  _atom_site_occupancy
  Sb  Sb1       1.0  0.24999992094247567  0.24999996851837902  0.25000006645807843  1.0000
  Sb  Sb2       1.0  0.7500000535224279  0.7499999123098495  0.7500001149933726  1.0000
  Hg  Hg1       1.0  5.8923356884617584e-08  2.7018848481382476e-08  0.9999998963617033  1.0000
  O   O1        1.0  0.26984146812021814  0.26984150937459406  0.7301585199668745  1.0000
  O   O2        1.0  0.7301584831851309  0.7301584727743164  0.26984147717042706  1.0000
  O   O3        1.0  0.7301585185412884  0.2698415269787153  0.26984148027195587  1.0000
  O   O4        1.0  0.26984146267453696  0.7301585564908778  0.7301584825025635  1.0000
  O   O5        1.0  0.26984149974248567  0.730158500915143  0.2698414758712514  1.0000
  O   O6        1.0  0.7301585220861957  0.26984153076832346  0.7301584759443049  1.0000
