data_image0
_chemical_formula_structural       Sb2HfN6
_chemical_formula_sum              "Sb2 Hf1 N6"
_cell_length_a       5.258993929350307
_cell_length_b       5.25899423031993
_cell_length_c       5.25899390015819
_cell_angle_alpha    59.99999877825837
_cell_angle_beta     60.00000021880362
_cell_angle_gamma    60.00000156009149

_space_group_name_H-M_alt    "P 1"
_space_group_IT_number       1

loop_
  _space_group_symop_operation_xyz
  'x, y, z'

loop_
  _atom_site_type_symbol
  _atom_site_label
  _atom_site_symmetry_multiplicity
  _atom_site_fract_x
  _atom_site_fract_y
  _atom_site_fract_z
  _atom_site_occupancy
  Sb  Sb1       1.0  0.24999973027320066  0.2499997425474769  0.25000043995341836  1.0000
  Sb  Sb2       1.0  0.7499999548925248  0.7500003804269956  0.7499993821567207  1.0000
  Hf  Hf1       1.0  0.9999999565965447  1.1644287189683938e-08  2.3485601288901658e-08  1.0000
  N   N1        1.0  0.2858757461882352  0.28587514000135184  0.7141242988261448  1.0000
  N   N2        1.0  0.7141245273368916  0.7141244496647184  0.28587595211956235  1.0000
  N   N3        1.0  0.7141244265580928  0.28587488831376967  0.28587616634026786  1.0000
  N   N4        1.0  0.28587559603279405  0.7141251182178114  0.7141239541021837  1.0000
  N   N5        1.0  0.2858751390881897  0.7141247430399909  0.2858758148775253  1.0000
  N   N6        1.0  0.7141249160342343  0.2858755150082203  0.7141239657843798  1.0000
