data_image0
_chemical_formula_structural       Sb2IrN6
_chemical_formula_sum              "Sb2 Ir1 N6"
_cell_length_a       5.324172525298754
_cell_length_b       5.324172666981685
_cell_length_c       5.324172880267329
_cell_angle_alpha    59.99999838807342
_cell_angle_beta     59.99999908193824
_cell_angle_gamma    59.99999917170006

_space_group_name_H-M_alt    "P 1"
_space_group_IT_number       1

loop_
  _space_group_symop_operation_xyz
  'x, y, z'

loop_
  _atom_site_type_symbol
  _atom_site_label
  _atom_site_symmetry_multiplicity
  _atom_site_fract_x
  _atom_site_fract_y
  _atom_site_fract_z
  _atom_site_occupancy
  Sb  Sb1       1.0  0.2499998177194259  0.25000023465638205  0.2500002123340573  1.0000
  Sb  Sb2       1.0  0.7500000517781414  0.7499999816599444  0.7499994197749339  1.0000
  Ir  Ir1       1.0  0.9999999683439411  2.99045201930901e-08  1.6803788408878635e-07  1.0000
  N   N1        1.0  0.2651606894872562  0.2651607003451041  0.7348391567807704  1.0000
  N   N2        1.0  0.7348394366567754  0.7348391364138297  0.265161083347458  1.0000
  N   N3        1.0  0.7348392594127959  0.26516058788614516  0.2651608283811545  1.0000
  N   N4        1.0  0.26516086821965373  0.73483932248392  0.7348391431754995  1.0000
  N   N5        1.0  0.2651604986496676  0.734839137667082  0.2651608700596177  1.0000
  N   N6        1.0  0.7348393813010424  0.2651608716179399  0.734839140194131  1.0000
