data_image0
_chemical_formula_structural       Sb2IrSe6
_chemical_formula_sum              "Sb2 Ir1 Se6"
_cell_length_a       6.603826605188106
_cell_length_b       6.603826483572857
_cell_length_c       6.603826735135102
_cell_angle_alpha    59.99999810122436
_cell_angle_beta     59.99999923095528
_cell_angle_gamma    59.999999150099384

_space_group_name_H-M_alt    "P 1"
_space_group_IT_number       1

loop_
  _space_group_symop_operation_xyz
  'x, y, z'

loop_
  _atom_site_type_symbol
  _atom_site_label
  _atom_site_symmetry_multiplicity
  _atom_site_fract_x
  _atom_site_fract_y
  _atom_site_fract_z
  _atom_site_occupancy
  Sb  Sb1       1.0  0.24999982929408032  0.2500001894844447  0.2500001228053182  1.0000
  Sb  Sb2       1.0  0.7500001698010872  0.7500000491656644  0.7499998918749778  1.0000
  Ir  Ir1       1.0  2.923111754265665e-08  0.9999999647626218  5.903125099090725e-08  1.0000
  Se  Se1       1.0  0.2608949719965487  0.26089507899729153  0.7391049252908652  1.0000
  Se  Se2       1.0  0.7391050134498791  0.7391049278279632  0.26089500921357645  1.0000
  Se  Se3       1.0  0.7391050149496187  0.2608949815041676  0.2608950916749912  1.0000
  Se  Se4       1.0  0.26089501891031264  0.7391049010629643  0.7391049428369753  1.0000
  Se  Se5       1.0  0.2608949591767897  0.7391048616559699  0.2608950912906518  1.0000
  Se  Se6       1.0  0.7391049985598453  0.2608950394571508  0.7391048629822746  1.0000
