data_image0
_chemical_formula_structural       Sb2IrS6
_chemical_formula_sum              "Sb2 Ir1 S6"
_cell_length_a       6.304909201658236
_cell_length_b       6.30490888134065
_cell_length_c       6.304908996147195
_cell_angle_alpha    59.9999978568183
_cell_angle_beta     59.99999827751461
_cell_angle_gamma    59.9999965091542

_space_group_name_H-M_alt    "P 1"
_space_group_IT_number       1

loop_
  _space_group_symop_operation_xyz
  'x, y, z'

loop_
  _atom_site_type_symbol
  _atom_site_label
  _atom_site_symmetry_multiplicity
  _atom_site_fract_x
  _atom_site_fract_y
  _atom_site_fract_z
  _atom_site_occupancy
  Sb  Sb1       1.0  0.2500001801451938  0.2499996542683836  0.25000005269099446  1.0000
  Sb  Sb2       1.0  0.7499998957141077  0.7500001827114566  0.7500000306732041  1.0000
  Ir  Ir1       1.0  0.999999991045973  2.136778543145183e-08  1.7584106462626203e-08  1.0000
  S   S1        1.0  0.2597900632148839  0.259789934856861  0.7402100247724615  1.0000
  S   S2        1.0  0.7402098746172517  0.7402101293985178  0.25978998066017084  1.0000
  S   S3        1.0  0.7402099421713825  0.25978996055511977  0.25979007971735596  1.0000
  S   S4        1.0  0.259790040614953  0.7402100512520581  0.7402098723639109  1.0000
  S   S5        1.0  0.25979002826252406  0.7402101070074549  0.25978999181101964  1.0000
  S   S6        1.0  0.740209989727254  0.25978994753529305  0.7402099546081193  1.0000
