data_image0
_chemical_formula_structural       Sb2InTe6
_chemical_formula_sum              "Sb2 In1 Te6"
_cell_length_a       7.38129821078903
_cell_length_b       7.381298171997029
_cell_length_c       7.381298339471898
_cell_angle_alpha    59.99999934446067
_cell_angle_beta     59.999998709366224
_cell_angle_gamma    59.999999799649245

_space_group_name_H-M_alt    "P 1"
_space_group_IT_number       1

loop_
  _space_group_symop_operation_xyz
  'x, y, z'

loop_
  _atom_site_type_symbol
  _atom_site_label
  _atom_site_symmetry_multiplicity
  _atom_site_fract_x
  _atom_site_fract_y
  _atom_site_fract_z
  _atom_site_occupancy
  Sb  Sb1       1.0  0.2500000950444904  0.25000011713362763  0.24999994832311723  1.0000
  Sb  Sb2       1.0  0.7499997816538646  0.7499999282911006  0.750000038663782  1.0000
  In  In1       1.0  2.4034761482461006e-08  0.9999999701334275  0.9999999974968046  1.0000
  Te  Te1       1.0  0.2751968569096055  0.2751967694059733  0.7248031517571376  1.0000
  Te  Te2       1.0  0.724803226997334  0.7248031565524657  0.2751968712903501  1.0000
  Te  Te3       1.0  0.7248030936518958  0.27519685536817173  0.2751967902642497  1.0000
  Te  Te4       1.0  0.2751968942895055  0.7248032083083518  0.7248031956496629  1.0000
  Te  Te5       1.0  0.2751969043174036  0.7248030987596532  0.2751967361794067  1.0000
  Te  Te6       1.0  0.7248031178040719  0.27519689522820107  0.7248032701983538  1.0000
