data_image0
_chemical_formula_structural       Sb2MoN6
_chemical_formula_sum              "Sb2 Mo1 N6"
_cell_length_a       5.3295871995045685
_cell_length_b       5.329587409527042
_cell_length_c       5.329587217308258
_cell_angle_alpha    59.9999999044487
_cell_angle_beta     60.00000001246086
_cell_angle_gamma    60.00000150828917

_space_group_name_H-M_alt    "P 1"
_space_group_IT_number       1

loop_
  _space_group_symop_operation_xyz
  'x, y, z'

loop_
  _atom_site_type_symbol
  _atom_site_label
  _atom_site_symmetry_multiplicity
  _atom_site_fract_x
  _atom_site_fract_y
  _atom_site_fract_z
  _atom_site_occupancy
  Sb  Sb1       1.0  0.24999981797880538  0.2500000657347392  0.24999988544847176  1.0000
  Sb  Sb2       1.0  0.7500000349794227  0.7499999490190639  0.7500001241119488  1.0000
  Mo  Mo1       1.0  2.1294124862906707e-08  0.9999999816159163  0.9999999141106732  1.0000
  N   N1        1.0  0.2653773428201823  0.2653773230083133  0.734622661500355  1.0000
  N   N2        1.0  0.7346227283511316  0.7346226480832907  0.26537719136085963  1.0000
  N   N3        1.0  0.7346228459471188  0.26537733364197963  0.26537734630728166  1.0000
  N   N4        1.0  0.2653772229487345  0.7346226052774707  0.7346228277412435  1.0000
  N   N5        1.0  0.2653772889648399  0.7346228214692482  0.26537731396037284  1.0000
  N   N6        1.0  0.7346226811842023  0.2653772966950327  0.7346227560443317  1.0000
