data_image0
_chemical_formula_structural       Sb2MgO6
_chemical_formula_sum              "Sb2 Mg1 O6"
_cell_length_a       5.287675440669246
_cell_length_b       5.287675555824977
_cell_length_c       5.287675273192242
_cell_angle_alpha    60.00000158072921
_cell_angle_beta     59.99999955967456
_cell_angle_gamma    60.000000373106054

_space_group_name_H-M_alt    "P 1"
_space_group_IT_number       1

loop_
  _space_group_symop_operation_xyz
  'x, y, z'

loop_
  _atom_site_type_symbol
  _atom_site_label
  _atom_site_symmetry_multiplicity
  _atom_site_fract_x
  _atom_site_fract_y
  _atom_site_fract_z
  _atom_site_occupancy
  Sb  Sb1       1.0  0.24999930609991958  0.2499996608661104  0.25000006389182905  1.0000
  Sb  Sb2       1.0  0.7499997668300832  0.7499995755520263  0.7500003363728268  1.0000
  Mg  Mg1       1.0  9.163084063855521e-08  0.9999999281970112  0.9999998936353697  1.0000
  O   O1        1.0  0.26276703492915243  0.262767250556028  0.7372329800361618  1.0000
  O   O2        1.0  0.7372328752465184  0.737232933198297  0.26276708962106377  1.0000
  O   O3        1.0  0.7372333085919107  0.2627674080748829  0.26276687221878714  1.0000
  O   O4        1.0  0.26276719779134666  0.73723292623409  0.7372330566737167  1.0000
  O   O5        1.0  0.26276723329147017  0.7372332210510986  0.262767051542078  1.0000
  O   O6        1.0  0.7372331992414085  0.2627670924118452  0.7372326599319937  1.0000
