data_image0
_chemical_formula_structural       Sb2MgS6
_chemical_formula_sum              "Sb2 Mg1 S6"
_cell_length_a       6.205951875581661
_cell_length_b       6.205951750854497
_cell_length_c       6.205951792586361
_cell_angle_alpha    60.00000051490896
_cell_angle_beta     60.000000130408345
_cell_angle_gamma    60.00000207332837

_space_group_name_H-M_alt    "P 1"
_space_group_IT_number       1

loop_
  _space_group_symop_operation_xyz
  'x, y, z'

loop_
  _atom_site_type_symbol
  _atom_site_label
  _atom_site_symmetry_multiplicity
  _atom_site_fract_x
  _atom_site_fract_y
  _atom_site_fract_z
  _atom_site_occupancy
  Sb  Sb1       1.0  0.2499997869569345  0.2500001172310397  0.2500001137612531  1.0000
  Sb  Sb2       1.0  0.7500001404476944  0.7499998326625166  0.7499999177437499  1.0000
  Mg  Mg1       1.0  1.608787279252746e-08  1.973500961394769e-09  3.860164116823929e-09  1.0000
  S   S1        1.0  0.26746099062208606  0.2674610189407121  0.7325389505436832  1.0000
  S   S2        1.0  0.7325390769879289  0.7325389289793468  0.26746098928638556  1.0000
  S   S3        1.0  0.7325389978341547  0.26746106345754517  0.26746094838083356  1.0000
  S   S4        1.0  0.2674610795659047  0.7325389890580385  0.7325390003220627  1.0000
  S   S5        1.0  0.26746093689026035  0.732538880026726  0.2674610871472776  1.0000
  S   S6        1.0  0.7325389895920736  0.2674611507803495  0.7325389865412887  1.0000
