data_image0
_chemical_formula_structural       Sb2MnSe6
_chemical_formula_sum              "Sb2 Mn1 Se6"
_cell_length_a       6.509946149258064
_cell_length_b       6.509946170589638
_cell_length_c       6.509946085111283
_cell_angle_alpha    59.99999960608597
_cell_angle_beta     60.000000869944905
_cell_angle_gamma    59.99999977187909

_space_group_name_H-M_alt    "P 1"
_space_group_IT_number       1

loop_
  _space_group_symop_operation_xyz
  'x, y, z'

loop_
  _atom_site_type_symbol
  _atom_site_label
  _atom_site_symmetry_multiplicity
  _atom_site_fract_x
  _atom_site_fract_y
  _atom_site_fract_z
  _atom_site_occupancy
  Sb  Sb1       1.0  0.2500000539326981  0.25000008024643305  0.24999990279464565  1.0000
  Sb  Sb2       1.0  0.7500001593851082  0.7499999020973613  0.7499999418919532  1.0000
  Mn  Mn1       1.0  1.8973251062877596e-08  2.82201609555079e-08  1.3269958663611087e-08  1.0000
  Se  Se1       1.0  0.2535292714981443  0.25352931988561833  0.7464707966810551  1.0000
  Se  Se2       1.0  0.7464706505837098  0.746470711373121  0.25352935503548063  1.0000
  Se  Se3       1.0  0.7464706442678365  0.2535293439953786  0.25352930480776614  1.0000
  Se  Se4       1.0  0.25352928238208905  0.746470726771589  0.746470645145629  1.0000
  Se  Se5       1.0  0.2535292623399065  0.7464705819057823  0.2535293225487799  1.0000
  Se  Se6       1.0  0.746470656895407  0.25352931954021674  0.7464707050196292  1.0000
