data_image0
_chemical_formula_structural       Sb2MnS6
_chemical_formula_sum              "Sb2 Mn1 S6"
_cell_length_a       6.228605334310593
_cell_length_b       6.228605448816053
_cell_length_c       6.228605452358268
_cell_angle_alpha    60.00000013440582
_cell_angle_beta     60.00000315919794
_cell_angle_gamma    60.000003185222965

_space_group_name_H-M_alt    "P 1"
_space_group_IT_number       1

loop_
  _space_group_symop_operation_xyz
  'x, y, z'

loop_
  _atom_site_type_symbol
  _atom_site_label
  _atom_site_symmetry_multiplicity
  _atom_site_fract_x
  _atom_site_fract_y
  _atom_site_fract_z
  _atom_site_occupancy
  Sb  Sb1       1.0  0.2500001519581636  0.249999496029492  0.2500000475953953  1.0000
  Sb  Sb2       1.0  0.749999739805628  0.7500000690119468  0.7499999929261268  1.0000
  Mn  Mn1       1.0  6.814325702217021e-08  2.3595872778197637e-08  1.1468001878492713e-07  1.0000
  S   S1        1.0  0.25387438592419886  0.2538743962485535  0.7461257060010434  1.0000
  S   S2        1.0  0.7461255564303848  0.7461255620574329  0.2538744577744116  1.0000
  S   S3        1.0  0.7461255824234235  0.2538744612648631  0.2538743952664372  1.0000
  S   S4        1.0  0.2538744834621901  0.7461257271008908  0.7461254070816038  1.0000
  S   S5        1.0  0.2538745295642874  0.7461257549180152  0.2538742950696899  1.0000
  S   S6        1.0  0.7461255131559881  0.2538745140669698  0.7461255604316906  1.0000
