data_image0
_chemical_formula_structural       Sb2MnTe6
_chemical_formula_sum              "Sb2 Mn1 Te6"
_cell_length_a       7.02439850139454
_cell_length_b       7.024398011916884
_cell_length_c       7.024398418057929
_cell_angle_alpha    60.000000776076085
_cell_angle_beta     60.00000063392248
_cell_angle_gamma    59.999999165176995

_space_group_name_H-M_alt    "P 1"
_space_group_IT_number       1

loop_
  _space_group_symop_operation_xyz
  'x, y, z'

loop_
  _atom_site_type_symbol
  _atom_site_label
  _atom_site_symmetry_multiplicity
  _atom_site_fract_x
  _atom_site_fract_y
  _atom_site_fract_z
  _atom_site_occupancy
  Sb  Sb1       1.0  0.24999998740394294  0.2500000076631655  0.24999999248116697  1.0000
  Sb  Sb2       1.0  0.7500000136010927  0.7500001153980894  0.7499996962739844  1.0000
  Mn  Mn1       1.0  0.9999999980399007  4.5332519300969125e-08  0.9999999370291167  1.0000
  Te  Te1       1.0  0.25163314851044527  0.2516330515222063  0.7483669029852817  1.0000
  Te  Te2       1.0  0.748366899704601  0.7483668657991606  0.25163329211764085  1.0000
  Te  Te3       1.0  0.7483668639924426  0.2516330397006112  0.2516331932690765  1.0000
  Te  Te4       1.0  0.2516331281154161  0.7483669177225968  0.748366874593622  1.0000
  Te  Te5       1.0  0.25163306053604423  0.7483669047790683  0.25163317449233547  1.0000
  Te  Te6       1.0  0.7483669019826479  0.25163305264414043  0.7483669280954779  1.0000
