data_image0
_chemical_formula_structural       Sb2MoSe6
_chemical_formula_sum              "Sb2 Mo1 Se6"
_cell_length_a       6.70450040099302
_cell_length_b       6.704500611390156
_cell_length_c       6.704500566053631
_cell_angle_alpha    60.000001591249635
_cell_angle_beta     60.00000029586471
_cell_angle_gamma    60.00000104454432

_space_group_name_H-M_alt    "P 1"
_space_group_IT_number       1

loop_
  _space_group_symop_operation_xyz
  'x, y, z'

loop_
  _atom_site_type_symbol
  _atom_site_label
  _atom_site_symmetry_multiplicity
  _atom_site_fract_x
  _atom_site_fract_y
  _atom_site_fract_z
  _atom_site_occupancy
  Sb  Sb1       1.0  0.2499999564331484  0.24999998933064138  0.249999974669844  1.0000
  Sb  Sb2       1.0  0.7500000322202749  0.7499999442441718  0.7500000334072437  1.0000
  Mo  Mo1       1.0  0.9999999840309145  0.9999999342369893  2.5950693191211322e-08  1.0000
  Se  Se1       1.0  0.25909266408390846  0.2590926536746202  0.7409073614765207  1.0000
  Se  Se2       1.0  0.7409074172918168  0.7409074150797151  0.2590925997687507  1.0000
  Se  Se3       1.0  0.7409073453959467  0.2590927314095484  0.25909257997998575  1.0000
  Se  Se4       1.0  0.25909271512143406  0.7409073172505337  0.7409073987585132  1.0000
  Se  Se5       1.0  0.2590925918383133  0.740907417753888  0.2590926488288341  1.0000
  Se  Se6       1.0  0.7409073017406176  0.2590925943711883  0.7409073749680454  1.0000
