data_image0
_chemical_formula_structural       Sb2NbTe6
_chemical_formula_sum              "Sb2 Nb1 Te6"
_cell_length_a       7.270267002611064
_cell_length_b       7.270267175517244
_cell_length_c       7.270267309503984
_cell_angle_alpha    60.00000052417555
_cell_angle_beta     59.9999995734052
_cell_angle_gamma    60.0000019200196

_space_group_name_H-M_alt    "P 1"
_space_group_IT_number       1

loop_
  _space_group_symop_operation_xyz
  'x, y, z'

loop_
  _atom_site_type_symbol
  _atom_site_label
  _atom_site_symmetry_multiplicity
  _atom_site_fract_x
  _atom_site_fract_y
  _atom_site_fract_z
  _atom_site_occupancy
  Sb  Sb1       1.0  0.24999982894525183  0.25000031087754304  0.24999997192246892  1.0000
  Sb  Sb2       1.0  0.7500001223593376  0.7500000600129398  0.7499998775124199  1.0000
  Nb  Nb1       1.0  1.6188065132354182e-08  0.9999999562005567  9.083174250629446e-08  1.0000
  Te  Te1       1.0  0.26307649158046587  0.263076547102495  0.7369234780317651  1.0000
  Te  Te2       1.0  0.7369235960964178  0.7369233908473293  0.26307651968730306  1.0000
  Te  Te3       1.0  0.7369234342804734  0.2630765369388738  0.2630765780818643  1.0000
  Te  Te4       1.0  0.26307656206515634  0.7369233319425946  0.736923491584216  1.0000
  Te  Te5       1.0  0.26307652572547985  0.7369233174809929  0.2630766110400668  1.0000
  Te  Te6       1.0  0.7369234246572274  0.263076546346692  0.7369233851008685  1.0000
