data_image0
_chemical_formula_structural       Sb2NiSe6
_chemical_formula_sum              "Sb2 Ni1 Se6"
_cell_length_a       6.447994296110869
_cell_length_b       6.4479942209660335
_cell_length_c       6.447994443774815
_cell_angle_alpha    59.99999843370377
_cell_angle_beta     59.99999854679269
_cell_angle_gamma    59.99999950656289

_space_group_name_H-M_alt    "P 1"
_space_group_IT_number       1

loop_
  _space_group_symop_operation_xyz
  'x, y, z'

loop_
  _atom_site_type_symbol
  _atom_site_label
  _atom_site_symmetry_multiplicity
  _atom_site_fract_x
  _atom_site_fract_y
  _atom_site_fract_z
  _atom_site_occupancy
  Sb  Sb1       1.0  0.25000005894511923  0.2500000523406939  0.24999996366255378  1.0000
  Sb  Sb2       1.0  0.749999984333124  0.7500002348982985  0.7499997777049902  1.0000
  Ni  Ni1       1.0  0.9999999855836859  0.9999999734081205  2.8258446096287053e-08  1.0000
  Se  Se1       1.0  0.2551416011669129  0.2551415170972539  0.7448584536337086  1.0000
  Se  Se2       1.0  0.7448584896000241  0.7448584396426664  0.25514157657165837  1.0000
  Se  Se3       1.0  0.7448584302278922  0.2551414304792661  0.2551416818089672  1.0000
  Se  Se4       1.0  0.25514150436168503  0.7448584521832747  0.7448584480150722  1.0000
  Se  Se5       1.0  0.2551415456088357  0.7448583924641198  0.2551415914047367  1.0000
  Se  Se6       1.0  0.7448583990923439  0.25514149209784115  0.744858482785957  1.0000
