data_image0
_chemical_formula_structural       Sb2NiO6
_chemical_formula_sum              "Sb2 Ni1 O6"
_cell_length_a       5.178907125871658
_cell_length_b       5.1789069476109315
_cell_length_c       5.178907249268217
_cell_angle_alpha    59.999998045683235
_cell_angle_beta     59.99999868630462
_cell_angle_gamma    59.99999838586045

_space_group_name_H-M_alt    "P 1"
_space_group_IT_number       1

loop_
  _space_group_symop_operation_xyz
  'x, y, z'

loop_
  _atom_site_type_symbol
  _atom_site_label
  _atom_site_symmetry_multiplicity
  _atom_site_fract_x
  _atom_site_fract_y
  _atom_site_fract_z
  _atom_site_occupancy
  Sb  Sb1       1.0  0.25000026572038325  0.2500000844378765  0.2499998615993799  1.0000
  Sb  Sb2       1.0  0.7500005586884011  0.7499998583801013  0.74999929326486  1.0000
  Ni  Ni1       1.0  0.9999999559485565  0.9999999716215429  2.4629494901506986e-08  1.0000
  O   O1        1.0  0.2450365979530698  0.24503687286695638  0.7549632135035207  1.0000
  O   O2        1.0  0.7549631852646395  0.7549632236676628  0.24503701843617964  1.0000
  O   O3        1.0  0.754963122952611  0.24503664392213906  0.2450369068532815  1.0000
  O   O4        1.0  0.24503669105483863  0.7549632799768666  0.7549632511911605  1.0000
  O   O5        1.0  0.2450364650880124  0.7549632034474166  0.2450370390403111  1.0000
  O   O6        1.0  0.754963158655698  0.2450368765331026  0.754963350426173  1.0000
