data_image0
_chemical_formula_structural       Sb2NiN6
_chemical_formula_sum              "Sb2 Ni1 N6"
_cell_length_a       5.353710157181938
_cell_length_b       5.353710093204283
_cell_length_c       5.35371000996065
_cell_angle_alpha    60.00000122686755
_cell_angle_beta     60.000001129694255
_cell_angle_gamma    59.999999873770534

_space_group_name_H-M_alt    "P 1"
_space_group_IT_number       1

loop_
  _space_group_symop_operation_xyz
  'x, y, z'

loop_
  _atom_site_type_symbol
  _atom_site_label
  _atom_site_symmetry_multiplicity
  _atom_site_fract_x
  _atom_site_fract_y
  _atom_site_fract_z
  _atom_site_occupancy
  Sb  Sb1       1.0  0.2499999760168919  0.24999984471361852  0.2500001054093421  1.0000
  Sb  Sb2       1.0  0.7500000382763058  0.7500002387389932  0.749999736972696  1.0000
  Ni  Ni1       1.0  0.9999999961647915  5.032843819818801e-08  0.9999999225853413  1.0000
  N   N1        1.0  0.2459909656412654  0.24599071469364395  0.7540091559699945  1.0000
  N   N2        1.0  0.75400909861032  0.7540091994724029  0.24599095154112605  1.0000
  N   N3        1.0  0.7540091289727299  0.24599075668815948  0.24599098054305255  1.0000
  N   N4        1.0  0.24599084288306994  0.7540092146692949  0.7540090586485321  1.0000
  N   N5        1.0  0.24599081294143352  0.7540091652351628  0.24599093057241514  1.0000
  N   N6        1.0  0.7540091454500949  0.2459908335741674  0.7540091053610948  1.0000
