data_image0
_chemical_formula_structural       Sb2NbS6
_chemical_formula_sum              "Sb2 Nb1 S6"
_cell_length_a       6.411134163485189
_cell_length_b       6.41113402787252
_cell_length_c       6.411134083336247
_cell_angle_alpha    60.00000029458586
_cell_angle_beta     59.99999955395561
_cell_angle_gamma    59.99999868900958

_space_group_name_H-M_alt    "P 1"
_space_group_IT_number       1

loop_
  _space_group_symop_operation_xyz
  'x, y, z'

loop_
  _atom_site_type_symbol
  _atom_site_label
  _atom_site_symmetry_multiplicity
  _atom_site_fract_x
  _atom_site_fract_y
  _atom_site_fract_z
  _atom_site_occupancy
  Sb  Sb1       1.0  0.24999974270697475  0.2500003840651355  0.2500005269860075  1.0000
  Sb  Sb2       1.0  0.7500002466906952  0.7499994959301939  0.7499999360346031  1.0000
  Nb  Nb1       1.0  0.9999999838807329  2.6744766439209305e-08  0.999999971290454  1.0000
  S   S1        1.0  0.26240587203221477  0.2624062830770871  0.7375937778716637  1.0000
  S   S2        1.0  0.7375940950219171  0.7375937612075183  0.26240620239245904  1.0000
  S   S3        1.0  0.7375938008873444  0.26240613380547  0.26240599127616915  1.0000
  S   S4        1.0  0.26240607538196964  0.7375940747684147  0.737593791577721  1.0000
  S   S5        1.0  0.2624060344519913  0.7375936803869797  0.26240610481595134  1.0000
  S   S6        1.0  0.7375941520288652  0.2624061594911919  0.7375936885625832  1.0000
