data_image0
_chemical_formula_structural       Sb2NO6
_chemical_formula_sum              "Sb2 N1 O6"
_cell_length_a       5.090248019331942
_cell_length_b       5.090247596793495
_cell_length_c       5.09024791550566
_cell_angle_alpha    59.999999575712856
_cell_angle_beta     60.00000038355999
_cell_angle_gamma    59.99999967046006

_space_group_name_H-M_alt    "P 1"
_space_group_IT_number       1

loop_
  _space_group_symop_operation_xyz
  'x, y, z'

loop_
  _atom_site_type_symbol
  _atom_site_label
  _atom_site_symmetry_multiplicity
  _atom_site_fract_x
  _atom_site_fract_y
  _atom_site_fract_z
  _atom_site_occupancy
  Sb  Sb1       1.0  0.24999982483549374  0.24999994634670203  0.2500000918728388  1.0000
  Sb  Sb2       1.0  0.7499999943917386  0.7500000555856488  0.7499998602541375  1.0000
  N   N1        1.0  0.9999999217480309  9.864852802126809e-08  3.394899944105511e-07  1.0000
  O   O1        1.0  0.240697087516134  0.24069709008396561  0.759302932229934  1.0000
  O   O2        1.0  0.7593029540198152  0.7593029118483925  0.24069713466487794  1.0000
  O   O3        1.0  0.7593030934573097  0.24069685616921652  0.24069702056479547  1.0000
  O   O4        1.0  0.24069727224396179  0.7593028401933275  0.7593027384220475  1.0000
  O   O5        1.0  0.24069700991409984  0.7593030464859979  0.24069701602941881  1.0000
  O   O6        1.0  0.7593028664569096  0.24069713108884547  0.759302880605191  1.0000
