data_image0
_chemical_formula_structural       Sb2NbSe6
_chemical_formula_sum              "Sb2 Nb1 Se6"
_cell_length_a       6.702712259108907
_cell_length_b       6.702712467637951
_cell_length_c       6.702712299465138
_cell_angle_alpha    59.999999692000465
_cell_angle_beta     60.00000017065175
_cell_angle_gamma    59.999998127117266

_space_group_name_H-M_alt    "P 1"
_space_group_IT_number       1

loop_
  _space_group_symop_operation_xyz
  'x, y, z'

loop_
  _atom_site_type_symbol
  _atom_site_label
  _atom_site_symmetry_multiplicity
  _atom_site_fract_x
  _atom_site_fract_y
  _atom_site_fract_z
  _atom_site_occupancy
  Sb  Sb1       1.0  0.25000000395698185  0.24999999891206726  0.2500000508636373  1.0000
  Sb  Sb2       1.0  0.7500000720114981  0.7499999145105105  0.7499997399244115  1.0000
  Nb  Nb1       1.0  9.229624665533633e-08  3.8371989947472547e-08  0.9999998705127476  1.0000
  Se  Se1       1.0  0.261473038063518  0.26147306523587455  0.7385269573556923  1.0000
  Se  Se2       1.0  0.7385268462453035  0.7385269011765963  0.2614732280087081  1.0000
  Se  Se3       1.0  0.7385269372962102  0.26147300525129347  0.2614731310657101  1.0000
  Se  Se4       1.0  0.26147302895451074  0.7385270305962072  0.7385269920376254  1.0000
  Se  Se5       1.0  0.2614729319112251  0.7385269752909822  0.2614730314072341  1.0000
  Se  Se6       1.0  0.7385270479123821  0.26147307151994537  0.7385269958796773  1.0000
