data_image0
_chemical_formula_structural       Sb2NiTe6
_chemical_formula_sum              "Sb2 Ni1 Te6"
_cell_length_a       6.995923510067336
_cell_length_b       6.995923794925744
_cell_length_c       6.995923779906934
_cell_angle_alpha    59.99999992314482
_cell_angle_beta     59.99999986849285
_cell_angle_gamma    60.000001051826054

_space_group_name_H-M_alt    "P 1"
_space_group_IT_number       1

loop_
  _space_group_symop_operation_xyz
  'x, y, z'

loop_
  _atom_site_type_symbol
  _atom_site_label
  _atom_site_symmetry_multiplicity
  _atom_site_fract_x
  _atom_site_fract_y
  _atom_site_fract_z
  _atom_site_occupancy
  Sb  Sb1       1.0  0.24999981660206216  0.2500001359538466  0.2499999584295547  1.0000
  Sb  Sb2       1.0  0.7500001494610569  0.7499996953449767  0.7499999946424167  1.0000
  Ni  Ni1       1.0  2.26412157764498e-08  0.9999999667375556  6.53455739055483e-08  1.0000
  Te  Te1       1.0  0.2545690279925171  0.25456931614278044  0.7454308312923063  1.0000
  Te  Te2       1.0  0.7454308905511455  0.7454307567464251  0.2545691991314648  1.0000
  Te  Te3       1.0  0.7454309040497697  0.2545692552825005  0.254569097927689  1.0000
  Te  Te4       1.0  0.2545692314489735  0.7454307213206839  0.7454308764497655  1.0000
  Te  Te5       1.0  0.25456911386895664  0.745430829305514  0.2545692155066709  1.0000
  Te  Te6       1.0  0.7454308383175146  0.25456932586447445  0.7454307655317274  1.0000
