data_image0
_chemical_formula_structural       Sb2NbN6
_chemical_formula_sum              "Sb2 Nb1 N6"
_cell_length_a       5.349803703769905
_cell_length_b       5.349803875155773
_cell_length_c       5.349803736725137
_cell_angle_alpha    59.99999886847921
_cell_angle_beta     59.999998774749294
_cell_angle_gamma    59.99999933724144

_space_group_name_H-M_alt    "P 1"
_space_group_IT_number       1

loop_
  _space_group_symop_operation_xyz
  'x, y, z'

loop_
  _atom_site_type_symbol
  _atom_site_label
  _atom_site_symmetry_multiplicity
  _atom_site_fract_x
  _atom_site_fract_y
  _atom_site_fract_z
  _atom_site_occupancy
  Sb  Sb1       1.0  0.25000012454244797  0.24999957201235848  0.2500000379284257  1.0000
  Sb  Sb2       1.0  0.750000225067553  0.7500000552931876  0.7499997838673953  1.0000
  Nb  Nb1       1.0  0.999999978546949  0.9999999931320207  0.9999999767759664  1.0000
  N   N1        1.0  0.2745189652776561  0.27451900235855564  0.7254811245742898  1.0000
  N   N2        1.0  0.7254808107555631  0.7254811995679852  0.2745191490524634  1.0000
  N   N3        1.0  0.7254810345690544  0.27451895404253734  0.2745190968403664  1.0000
  N   N4        1.0  0.2745188360858185  0.7254811906508416  0.7254808309773373  1.0000
  N   N5        1.0  0.27451892569714326  0.7254811235228465  0.2745190800669126  1.0000
  N   N6        1.0  0.725481076055217  0.2745188998362153  0.7254809381998065  1.0000
