data_image0
_chemical_formula_structural       Sb2OsN6
_chemical_formula_sum              "Sb2 Os1 N6"
_cell_length_a       5.306681507221828
_cell_length_b       5.306681407738264
_cell_length_c       5.306681541715829
_cell_angle_alpha    59.99999923193632
_cell_angle_beta     59.99999918843241
_cell_angle_gamma    59.99999902848453

_space_group_name_H-M_alt    "P 1"
_space_group_IT_number       1

loop_
  _space_group_symop_operation_xyz
  'x, y, z'

loop_
  _atom_site_type_symbol
  _atom_site_label
  _atom_site_symmetry_multiplicity
  _atom_site_fract_x
  _atom_site_fract_y
  _atom_site_fract_z
  _atom_site_occupancy
  Sb  Sb1       1.0  0.2499996710902221  0.25000057464170117  0.24999990800713603  1.0000
  Sb  Sb2       1.0  0.7499996530234085  0.7500001245296594  0.7499994293474387  1.0000
  Os  Os1       1.0  4.617735766525664e-08  5.077445852874221e-08  8.056596571607399e-09  1.0000
  N   N1        1.0  0.25849882987430095  0.25849870416710297  0.7415011958177148  1.0000
  N   N2        1.0  0.7415013599045305  0.7415010626005681  0.25849917930026955  1.0000
  N   N3        1.0  0.7415012056826608  0.25849860341968334  0.25849902388726687  1.0000
  N   N4        1.0  0.25849920400170395  0.7415009279391345  0.7415013476758754  1.0000
  N   N5        1.0  0.2584987499383903  0.7415009149433058  0.2584989156316537  1.0000
  N   N6        1.0  0.7415013021151986  0.2584990756935671  0.7415009622698959  1.0000
