data_image0
_chemical_formula_structural       Sb2PdO6
_chemical_formula_sum              "Sb2 Pd1 O6"
_cell_length_a       5.321929208981981
_cell_length_b       5.321929138494448
_cell_length_c       5.3219292482042535
_cell_angle_alpha    59.99999940080714
_cell_angle_beta     60.00000036484384
_cell_angle_gamma    59.999999989808494

_space_group_name_H-M_alt    "P 1"
_space_group_IT_number       1

loop_
  _space_group_symop_operation_xyz
  'x, y, z'

loop_
  _atom_site_type_symbol
  _atom_site_label
  _atom_site_symmetry_multiplicity
  _atom_site_fract_x
  _atom_site_fract_y
  _atom_site_fract_z
  _atom_site_occupancy
  Sb  Sb1       1.0  0.24999989025853017  0.24999966723243883  0.2500002311850721  1.0000
  Sb  Sb2       1.0  0.7500001271048107  0.7499995724240659  0.7499997422160773  1.0000
  Pd  Pd1       1.0  0.9999999653073357  0.9999999608776017  1.515276193275538e-07  1.0000
  O   O1        1.0  0.2594956360630499  0.259495659848278  0.7405043481005869  1.0000
  O   O2        1.0  0.7405042997573854  0.740504442802298  0.2594958001593498  1.0000
  O   O3        1.0  0.7405043657889782  0.25949576157353355  0.25949564369868294  1.0000
  O   O4        1.0  0.25949578566301995  0.7405044492389676  0.7405041284564771  1.0000
  O   O5        1.0  0.2594955855555028  0.7405044614006858  0.2594957327235479  1.0000
  O   O6        1.0  0.740504341755148  0.259496011762012  0.7405042195030775  1.0000
