data_image0
_chemical_formula_structural       Sb2PdSe6
_chemical_formula_sum              "Sb2 Pd1 Se6"
_cell_length_a       6.60565207263806
_cell_length_b       6.605652045784731
_cell_length_c       6.605652079935475
_cell_angle_alpha    59.99999906576529
_cell_angle_beta     60.00000026632304
_cell_angle_gamma    60.00000021281392

_space_group_name_H-M_alt    "P 1"
_space_group_IT_number       1

loop_
  _space_group_symop_operation_xyz
  'x, y, z'

loop_
  _atom_site_type_symbol
  _atom_site_label
  _atom_site_symmetry_multiplicity
  _atom_site_fract_x
  _atom_site_fract_y
  _atom_site_fract_z
  _atom_site_occupancy
  Sb  Sb1       1.0  0.25000010881665147  0.24999963819646132  0.2500000681020666  1.0000
  Sb  Sb2       1.0  0.7499999567777994  0.7500001809303103  0.7499996742236312  1.0000
  Pd  Pd1       1.0  2.6659961762477756e-09  1.2978603528792077e-08  3.759335266981775e-08  1.0000
  Se  Se1       1.0  0.2643418076090666  0.26434164341833805  0.7356583205059081  1.0000
  Se  Se2       1.0  0.7356581649296995  0.7356583499925388  0.26434181719584343  1.0000
  Se  Se3       1.0  0.7356582640300292  0.2643416272328529  0.26434187709146073  1.0000
  Se  Se4       1.0  0.26434180548154906  0.7356583531994216  0.7356581232403154  1.0000
  Se  Se5       1.0  0.2643416285988936  0.7356584023147179  0.26434182012114565  1.0000
  Se  Se6       1.0  0.7356582586882919  0.2643417839211312  0.7356582653077639  1.0000
