data_image0
_chemical_formula_structural       Sb2PS6
_chemical_formula_sum              "Sb2 P1 S6"
_cell_length_a       6.2816508591128235
_cell_length_b       6.281651038694134
_cell_length_c       6.281650782062798
_cell_angle_alpha    59.999997529537374
_cell_angle_beta     59.999997720396074
_cell_angle_gamma    59.99999943355269

_space_group_name_H-M_alt    "P 1"
_space_group_IT_number       1

loop_
  _space_group_symop_operation_xyz
  'x, y, z'

loop_
  _atom_site_type_symbol
  _atom_site_label
  _atom_site_symmetry_multiplicity
  _atom_site_fract_x
  _atom_site_fract_y
  _atom_site_fract_z
  _atom_site_occupancy
  Sb  Sb1       1.0  0.24999992293078754  0.24999962940183115  0.2500004119590722  1.0000
  Sb  Sb2       1.0  0.7500005597772357  0.7500001769692505  0.7499982586140275  1.0000
  P   P1        1.0  0.9999999855364476  0.9999999551564828  2.9653536356584396e-08  1.0000
  S   S1        1.0  0.24562261311890585  0.2456226651950451  0.7543773134126167  1.0000
  S   S2        1.0  0.7543772796662652  0.754377455080594  0.2456232622210637  1.0000
  S   S3        1.0  0.7543773166321809  0.24562224996796084  0.2456231272632185  1.0000
  S   S4        1.0  0.245622720393873  0.7543775037606811  0.7543772140729318  1.0000
  S   S5        1.0  0.24562218297682537  0.7543774036574369  0.24562318132956124  1.0000
  S   S6        1.0  0.7543774231172511  0.24562297008156472  0.7543772055579526  1.0000
