data_image0
_chemical_formula_structural       Sb2PdN6
_chemical_formula_sum              "Sb2 Pd1 N6"
_cell_length_a       5.257429565024739
_cell_length_b       5.2574297903390095
_cell_length_c       5.257429795069008
_cell_angle_alpha    59.99999858340993
_cell_angle_beta     59.99999926647857
_cell_angle_gamma    59.99999954926139

_space_group_name_H-M_alt    "P 1"
_space_group_IT_number       1

loop_
  _space_group_symop_operation_xyz
  'x, y, z'

loop_
  _atom_site_type_symbol
  _atom_site_label
  _atom_site_symmetry_multiplicity
  _atom_site_fract_x
  _atom_site_fract_y
  _atom_site_fract_z
  _atom_site_occupancy
  Sb  Sb1       1.0  0.2500004947204351  0.25000002241520675  0.24999965693866888  1.0000
  Sb  Sb2       1.0  0.7500000116972454  0.7499998855406544  0.7500010247357259  1.0000
  Pd  Pd1       1.0  0.9999999800998782  6.988650895291881e-09  6.351783814496935e-08  1.0000
  N   N1        1.0  0.26843369076070606  0.2684336913156383  0.7315664055401839  1.0000
  N   N2        1.0  0.7315662067847847  0.7315663960156505  0.2684329996596308  1.0000
  N   N3        1.0  0.7315661549960862  0.26843401300187436  0.2684333946086274  1.0000
  N   N4        1.0  0.2684335416183203  0.731566130238625  0.7315663665105672  1.0000
  N   N5        1.0  0.2684339796518848  0.7315663018376735  0.2684334883817836  1.0000
  N   N6        1.0  0.7315659260395314  0.26843355020899173  0.7315666067146219  1.0000
