data_image0
_chemical_formula_structural       Sb2PSe6
_chemical_formula_sum              "Sb2 P1 Se6"
_cell_length_a       6.474579328984984
_cell_length_b       6.474579037769001
_cell_length_c       6.4745797927418876
_cell_angle_alpha    60.00000205122496
_cell_angle_beta     60.00000233688201
_cell_angle_gamma    60.00000298719862

_space_group_name_H-M_alt    "P 1"
_space_group_IT_number       1

loop_
  _space_group_symop_operation_xyz
  'x, y, z'

loop_
  _atom_site_type_symbol
  _atom_site_label
  _atom_site_symmetry_multiplicity
  _atom_site_fract_x
  _atom_site_fract_y
  _atom_site_fract_z
  _atom_site_occupancy
  Sb  Sb1       1.0  0.25000025956569666  0.25000049597131974  0.24999960732383353  1.0000
  Sb  Sb2       1.0  0.7500000884332431  0.7500005250789816  0.7500002879445814  1.0000
  P   P1        1.0  0.999999902507557  0.9999998751530188  3.0545786058917217e-09  1.0000
  Se  Se1       1.0  0.2539451919508642  0.25394489243985763  0.7460550457110513  1.0000
  Se  Se2       1.0  0.7460550459331541  0.7460546077472802  0.25394502253359474  1.0000
  Se  Se3       1.0  0.7460546852485491  0.2539450672843776  0.2539450176859569  1.0000
  Se  Se4       1.0  0.2539449762543633  0.7460548244682452  0.7460550024168348  1.0000
  Se  Se5       1.0  0.25394510090455785  0.7460548513319601  0.25394496864040245  1.0000
  Se  Se6       1.0  0.7460547586712397  0.2539448474753457  0.7460550504431053  1.0000
