data_image0
_chemical_formula_structural       Sb2PO6
_chemical_formula_sum              "Sb2 P1 O6"
_cell_length_a       5.210620706331493
_cell_length_b       5.210621069065002
_cell_length_c       5.21062058782285
_cell_angle_alpha    59.99999889991038
_cell_angle_beta     59.99999927768038
_cell_angle_gamma    59.999998309832016

_space_group_name_H-M_alt    "P 1"
_space_group_IT_number       1

loop_
  _space_group_symop_operation_xyz
  'x, y, z'

loop_
  _atom_site_type_symbol
  _atom_site_label
  _atom_site_symmetry_multiplicity
  _atom_site_fract_x
  _atom_site_fract_y
  _atom_site_fract_z
  _atom_site_occupancy
  Sb  Sb1       1.0  0.2500000576493355  0.24999996600952298  0.2500000631449183  1.0000
  Sb  Sb2       1.0  0.7499999014220192  0.7500001142725392  0.7499999445554377  1.0000
  P   P1        1.0  0.9999999809273246  7.051433387171866e-08  0.9999999474109681  1.0000
  O   O1        1.0  0.231979522469243  0.2319794768629627  0.7680204832047764  1.0000
  O   O2        1.0  0.7680204792678648  0.7680205352552449  0.23197951229558836  1.0000
  O   O3        1.0  0.7680205090938622  0.23197949360500478  0.2319794228201524  1.0000
  O   O4        1.0  0.2319795007470241  0.7680204809055573  0.7680206258152911  1.0000
  O   O5        1.0  0.2319794899884255  0.768020437355411  0.23197946307235107  1.0000
  O   O6        1.0  0.7680205706219925  0.23197943138365373  0.7680205554893622  1.0000
