data_image0
_chemical_formula_structural       Sb2PtSe6
_chemical_formula_sum              "Sb2 Pt1 Se6"
_cell_length_a       6.617781786070722
_cell_length_b       6.6177816944367
_cell_length_c       6.617781765887714
_cell_angle_alpha    60.00000051460055
_cell_angle_beta     60.000001082437215
_cell_angle_gamma    60.00000099361876

_space_group_name_H-M_alt    "P 1"
_space_group_IT_number       1

loop_
  _space_group_symop_operation_xyz
  'x, y, z'

loop_
  _atom_site_type_symbol
  _atom_site_label
  _atom_site_symmetry_multiplicity
  _atom_site_fract_x
  _atom_site_fract_y
  _atom_site_fract_z
  _atom_site_occupancy
  Sb  Sb1       1.0  0.24999983563898054  0.2500002737691559  0.25000004959506544  1.0000
  Sb  Sb2       1.0  0.7500001854142744  0.749999827488057  0.7499997685016286  1.0000
  Pt  Pt1       1.0  6.223385338118866e-08  0.9999999389272994  5.07961555922417e-08  1.0000
  Se  Se1       1.0  0.2603462380492815  0.2603464367275924  0.7396536427021815  1.0000
  Se  Se2       1.0  0.7396537434199069  0.7396536053076079  0.2603464378598813  1.0000
  Se  Se3       1.0  0.7396537203345867  0.2603462599963565  0.26034634274001306  1.0000
  Se  Se4       1.0  0.2603462819336979  0.7396536672961926  0.7396537364392555  1.0000
  Se  Se5       1.0  0.26034622844369726  0.7396535884590225  0.2603463439691517  1.0000
  Se  Se6       1.0  0.739653707695832  0.2603463906527872  0.7396536290338374  1.0000
