data_image0
_chemical_formula_structural       Sb2PbN6
_chemical_formula_sum              "Sb2 Pb1 N6"
_cell_length_a       5.4962909885693945
_cell_length_b       5.49629131166664
_cell_length_c       5.49629096794192
_cell_angle_alpha    60.00000122215518
_cell_angle_beta     59.99999946267384
_cell_angle_gamma    60.00000082394748

_space_group_name_H-M_alt    "P 1"
_space_group_IT_number       1

loop_
  _space_group_symop_operation_xyz
  'x, y, z'

loop_
  _atom_site_type_symbol
  _atom_site_label
  _atom_site_symmetry_multiplicity
  _atom_site_fract_x
  _atom_site_fract_y
  _atom_site_fract_z
  _atom_site_occupancy
  Sb  Sb1       1.0  0.24999917673718608  0.2500009532510898  0.24999998965519943  1.0000
  Sb  Sb2       1.0  0.7499998965377653  0.7500002860536024  0.7500007985964329  1.0000
  Pb  Pb1       1.0  0.9999999816856162  4.23379161502775e-08  1.7098773986199736e-08  1.0000
  N   N1        1.0  0.2806972231350714  0.28069706402444067  0.7193027608057274  1.0000
  N   N2        1.0  0.7193032822001338  0.7193024505672447  0.2806964780833098  1.0000
  N   N3        1.0  0.7193031398050992  0.2806972405151615  0.28069717746342565  1.0000
  N   N4        1.0  0.280696807458958  0.7193024545697418  0.7193033782480166  1.0000
  N   N5        1.0  0.28069747930817773  0.7193026158928056  0.2806967608510196  1.0000
  N   N6        1.0  0.7193030369137057  0.2806968786440761  0.7193026354524172  1.0000
