data_image0
_chemical_formula_structural       Sb2PtN6
_chemical_formula_sum              "Sb2 Pt1 N6"
_cell_length_a       5.288081301566576
_cell_length_b       5.288081341378996
_cell_length_c       5.288081477927918
_cell_angle_alpha    59.99999864713028
_cell_angle_beta     59.99999898527924
_cell_angle_gamma    59.999999048116734

_space_group_name_H-M_alt    "P 1"
_space_group_IT_number       1

loop_
  _space_group_symop_operation_xyz
  'x, y, z'

loop_
  _atom_site_type_symbol
  _atom_site_label
  _atom_site_symmetry_multiplicity
  _atom_site_fract_x
  _atom_site_fract_y
  _atom_site_fract_z
  _atom_site_occupancy
  Sb  Sb1       1.0  0.24999977893056968  0.2499999318209843  0.2500002499436954  1.0000
  Sb  Sb2       1.0  0.7500004051539  0.7500003374181285  0.7499990615543899  1.0000
  Pt  Pt1       1.0  7.947419257371392e-10  0.9999999583111406  0.999999997754519  1.0000
  N   N1        1.0  0.26730390272593985  0.2673038209582682  0.7326960412778345  1.0000
  N   N2        1.0  0.7326961637588959  0.7326961263502036  0.26730420101830665  1.0000
  N   N3        1.0  0.7326962135403944  0.2673035478400108  0.26730424921031637  1.0000
  N   N4        1.0  0.26730379575488333  0.7326962303969763  0.7326959889715572  1.0000
  N   N5        1.0  0.26730351056685137  0.7326961938107813  0.2673042510628279  1.0000
  N   N6        1.0  0.7326962258854118  0.26730384613960195  0.7326959964659436  1.0000
