data_image0
_chemical_formula_structural       Sb2PtO6
_chemical_formula_sum              "Sb2 Pt1 O6"
_cell_length_a       5.374562999493526
_cell_length_b       5.374562930741245
_cell_length_c       5.374562881596811
_cell_angle_alpha    59.9999998965521
_cell_angle_beta     59.999999875676835
_cell_angle_gamma    60.00000003127219

_space_group_name_H-M_alt    "P 1"
_space_group_IT_number       1

loop_
  _space_group_symop_operation_xyz
  'x, y, z'

loop_
  _atom_site_type_symbol
  _atom_site_label
  _atom_site_symmetry_multiplicity
  _atom_site_fract_x
  _atom_site_fract_y
  _atom_site_fract_z
  _atom_site_occupancy
  Sb  Sb1       1.0  0.24999981577955444  0.2499995848519661  0.250000293441615  1.0000
  Sb  Sb2       1.0  0.7499999283203544  0.7499994450263632  0.7500015933090295  1.0000
  Pt  Pt1       1.0  0.99999997914472  4.557560700962019e-09  4.3500571897263105e-08  1.0000
  O   O1        1.0  0.2578391792648079  0.25783930661925664  0.7421608138533416  1.0000
  O   O2        1.0  0.7421607093916687  0.7421608558129406  0.2578385513982541  1.0000
  O   O3        1.0  0.7421608490508553  0.2578397393764344  0.25783871518246076  1.0000
  O   O4        1.0  0.257839064076147  0.7421609426176966  0.7421605492296148  1.0000
  O   O5        1.0  0.25783961637713426  0.7421609159454816  0.25783886952138657  1.0000
  O   O6        1.0  0.7421608645156165  0.2578392100262307  0.7421605601957341  1.0000
