data_image0
_chemical_formula_structural       Sb2PN6
_chemical_formula_sum              "Sb2 P1 N6"
_cell_length_a       5.256224003752024
_cell_length_b       5.2562237528983715
_cell_length_c       5.2562240174959385
_cell_angle_alpha    60.00000375333034
_cell_angle_beta     60.0000028149105
_cell_angle_gamma    60.00000385011702

_space_group_name_H-M_alt    "P 1"
_space_group_IT_number       1

loop_
  _space_group_symop_operation_xyz
  'x, y, z'

loop_
  _atom_site_type_symbol
  _atom_site_label
  _atom_site_symmetry_multiplicity
  _atom_site_fract_x
  _atom_site_fract_y
  _atom_site_fract_z
  _atom_site_occupancy
  Sb  Sb1       1.0  0.2499999765708862  0.25000012832435886  0.24999994448504892  1.0000
  Sb  Sb2       1.0  0.7499998689860902  0.7499999212861573  0.7500001013693898  1.0000
  P   P1        1.0  0.9999999576815572  1.071839098866415e-07  0.9999999732747892  1.0000
  N   N1        1.0  0.24142300715045367  0.24142294961576158  0.7585769935158682  1.0000
  N   N2        1.0  0.7585770365662893  0.7585769998011018  0.2414229576953596  1.0000
  N   N3        1.0  0.7585770151861677  0.24142305719806464  0.24142299038047282  1.0000
  N   N4        1.0  0.2414230488350407  0.7585768642577818  0.7585770160267036  1.0000
  N   N5        1.0  0.24142304172505522  0.7585769127236527  0.24142301352608758  1.0000
  N   N6        1.0  0.758576995511609  0.24142306931440236  0.7585769569571943  1.0000
