data_image0
_chemical_formula_structural       Sb2RuO6
_chemical_formula_sum              "Sb2 Ru1 O6"
_cell_length_a       5.40146783694252
_cell_length_b       5.401467825235926
_cell_length_c       5.401467856301185
_cell_angle_alpha    60.00000054407295
_cell_angle_beta     60.000001267899876
_cell_angle_gamma    59.999999666584344

_space_group_name_H-M_alt    "P 1"
_space_group_IT_number       1

loop_
  _space_group_symop_operation_xyz
  'x, y, z'

loop_
  _atom_site_type_symbol
  _atom_site_label
  _atom_site_symmetry_multiplicity
  _atom_site_fract_x
  _atom_site_fract_y
  _atom_site_fract_z
  _atom_site_occupancy
  Sb  Sb1       1.0  0.24999980095917762  0.25000043596589516  0.24999978406262638  1.0000
  Sb  Sb2       1.0  0.750000099793392  0.749999550639643  0.7499996935214102  1.0000
  Ru  Ru1       1.0  0.999999999740647  1.360457837177504e-08  2.584130431848327e-09  1.0000
  O   O1        1.0  0.2473594216612251  0.24735954626101672  0.7526405540125578  1.0000
  O   O2        1.0  0.7526406320166736  0.7526404176702254  0.2473596952555347  1.0000
  O   O3        1.0  0.7526406098744118  0.24735949792724082  0.24735945973639872  1.0000
  O   O4        1.0  0.24735958081611673  0.7526403435627946  0.7526406674623695  1.0000
  O   O5        1.0  0.24735932739753821  0.7526403964221166  0.24735961961554115  1.0000
  O   O6        1.0  0.7526405336193961  0.24735980558924792  0.752640497713404  1.0000
