data_image0
_chemical_formula_structural       Sb2RhO6
_chemical_formula_sum              "Sb2 Rh1 O6"
_cell_length_a       5.355338343569367
_cell_length_b       5.355338225930181
_cell_length_c       5.355338333476845
_cell_angle_alpha    60.00000073898298
_cell_angle_beta     60.00000047144477
_cell_angle_gamma    59.99999994280118

_space_group_name_H-M_alt    "P 1"
_space_group_IT_number       1

loop_
  _space_group_symop_operation_xyz
  'x, y, z'

loop_
  _atom_site_type_symbol
  _atom_site_label
  _atom_site_symmetry_multiplicity
  _atom_site_fract_x
  _atom_site_fract_y
  _atom_site_fract_z
  _atom_site_occupancy
  Sb  Sb1       1.0  0.24999970260722407  0.25000053215857604  0.24999983996804523  1.0000
  Sb  Sb2       1.0  0.7500003951888595  0.7500000436293308  0.7499994005588148  1.0000
  Rh  Rh1       1.0  2.1714907347466643e-08  0.9999999542607836  4.542971482307299e-09  1.0000
  O   O1        1.0  0.2555792128015962  0.25557940642304156  0.7444207007083548  1.0000
  O   O2        1.0  0.7444208212141389  0.7444204809896697  0.2555795395730187  1.0000
  O   O3        1.0  0.7444207549218502  0.2555791048211517  0.255579500385439  1.0000
  O   O4        1.0  0.25557925561904304  0.7444205813390078  0.7444208298520812  1.0000
  O   O5        1.0  0.25557913182441555  0.7444204874136605  0.2555795514863278  1.0000
  O   O6        1.0  0.7444207109239578  0.25557940457297035  0.7444206159524528  1.0000
