data_image0
_chemical_formula_structural       Sb2RuN6
_chemical_formula_sum              "Sb2 Ru1 N6"
_cell_length_a       5.278246256069056
_cell_length_b       5.278246130462592
_cell_length_c       5.278246023320243
_cell_angle_alpha    60.0000017259806
_cell_angle_beta     60.00000167508199
_cell_angle_gamma    60.0000005551121

_space_group_name_H-M_alt    "P 1"
_space_group_IT_number       1

loop_
  _space_group_symop_operation_xyz
  'x, y, z'

loop_
  _atom_site_type_symbol
  _atom_site_label
  _atom_site_symmetry_multiplicity
  _atom_site_fract_x
  _atom_site_fract_y
  _atom_site_fract_z
  _atom_site_occupancy
  Sb  Sb1       1.0  0.2499998805298376  0.25000018031881033  0.25000017059208596  1.0000
  Sb  Sb2       1.0  0.7500003946491791  0.7499994434245973  0.7500009700922162  1.0000
  Ru  Ru1       1.0  9.391388340572861e-09  4.640726133187358e-09  0.9999999550925677  1.0000
  N   N1        1.0  0.26103713105588133  0.2610379150257867  0.7389625205178627  1.0000
  N   N2        1.0  0.7389626595126483  0.7389623421767831  0.261037083135027  1.0000
  N   N3        1.0  0.7389624445116462  0.2610379577237444  0.26103710552011944  1.0000
  N   N4        1.0  0.261037138888848  0.7389624943893419  0.7389624720538621  1.0000
  N   N5        1.0  0.2610378079868523  0.7389623150397596  0.2610373030941355  1.0000
  N   N6        1.0  0.7389625701220949  0.26103734118871846  0.7389623906366127  1.0000
