data_image0
_chemical_formula_structural       Sb2RuS6
_chemical_formula_sum              "Sb2 Ru1 S6"
_cell_length_a       6.243760528754428
_cell_length_b       6.243760456916607
_cell_length_c       6.2437604114666945
_cell_angle_alpha    60.00000022541881
_cell_angle_beta     60.00000008020651
_cell_angle_gamma    59.99999882430003

_space_group_name_H-M_alt    "P 1"
_space_group_IT_number       1

loop_
  _space_group_symop_operation_xyz
  'x, y, z'

loop_
  _atom_site_type_symbol
  _atom_site_label
  _atom_site_symmetry_multiplicity
  _atom_site_fract_x
  _atom_site_fract_y
  _atom_site_fract_z
  _atom_site_occupancy
  Sb  Sb1       1.0  0.25000016688544174  0.250000385732241  0.2499996304302041  1.0000
  Sb  Sb2       1.0  0.7499998722630774  0.7500001018827941  0.7499998148257487  1.0000
  Ru  Ru1       1.0  0.9999999891089154  2.1577050823485227e-08  0.9999999578202415  1.0000
  S   S1        1.0  0.2634915281501788  0.26349141002057025  0.736508521563414  1.0000
  S   S2        1.0  0.7365085745405867  0.7365084930525443  0.2634915221297501  1.0000
  S   S3        1.0  0.7365084994015487  0.26349133888697757  0.26349162390817527  1.0000
  S   S4        1.0  0.26349159158096475  0.7365083052615284  0.7365087328789005  1.0000
  S   S5        1.0  0.26349139354424356  0.7365084632622114  0.26349152363616013  1.0000
  S   S6        1.0  0.7365083848341779  0.26349147511880855  0.7365086821768129  1.0000
