data_image0
_chemical_formula_structural       Sb2RhSe6
_chemical_formula_sum              "Sb2 Rh1 Se6"
_cell_length_a       6.569926122618545
_cell_length_b       6.569926278615561
_cell_length_c       6.569926288607382
_cell_angle_alpha    59.99999954809839
_cell_angle_beta     59.99999909123053
_cell_angle_gamma    60.000000620563576

_space_group_name_H-M_alt    "P 1"
_space_group_IT_number       1

loop_
  _space_group_symop_operation_xyz
  'x, y, z'

loop_
  _atom_site_type_symbol
  _atom_site_label
  _atom_site_symmetry_multiplicity
  _atom_site_fract_x
  _atom_site_fract_y
  _atom_site_fract_z
  _atom_site_occupancy
  Sb  Sb1       1.0  0.25000016753398785  0.25000018085400705  0.24999982425423817  1.0000
  Sb  Sb2       1.0  0.7499998567692824  0.7500001548149978  0.749999969765436  1.0000
  Rh  Rh1       1.0  0.9999999793540872  0.9999999459391173  6.322887844703797e-08  1.0000
  Se  Se1       1.0  0.26088722534795544  0.26088713452987866  0.739112805638513  1.0000
  Se  Se2       1.0  0.7391128481914121  0.7391128003429289  0.2608871900366931  1.0000
  Se  Se3       1.0  0.7391127114069275  0.2608872059437832  0.2608872556586926  1.0000
  Se  Se4       1.0  0.2608872570172815  0.7391126804606463  0.739112863992982  1.0000
  Se  Se5       1.0  0.2608872411709384  0.7391126974192027  0.2608871921004643  1.0000
  Se  Se6       1.0  0.7391127112220499  0.26088720017023714  0.7391128401711772  1.0000
