data_image0
_chemical_formula_structural       Sb2ReN6
_chemical_formula_sum              "Sb2 Re1 N6"
_cell_length_a       5.358879048725726
_cell_length_b       5.358879284740442
_cell_length_c       5.358879045989948
_cell_angle_alpha    60.00000223567679
_cell_angle_beta     60.0000010925793
_cell_angle_gamma    60.00000150023736

_space_group_name_H-M_alt    "P 1"
_space_group_IT_number       1

loop_
  _space_group_symop_operation_xyz
  'x, y, z'

loop_
  _atom_site_type_symbol
  _atom_site_label
  _atom_site_symmetry_multiplicity
  _atom_site_fract_x
  _atom_site_fract_y
  _atom_site_fract_z
  _atom_site_occupancy
  Sb  Sb1       1.0  0.25000015607052434  0.24999996571782138  0.24999980766238578  1.0000
  Sb  Sb2       1.0  0.750000023811763  0.7499999245788642  0.7500001875608046  1.0000
  Re  Re1       1.0  2.685771665896347e-08  2.2854495346887487e-08  0.9999999247602231  1.0000
  N   N1        1.0  0.25963966964425267  0.2596398045562545  0.7403603512265996  1.0000
  N   N2        1.0  0.7403602038686116  0.7403603325689867  0.2596395897942379  1.0000
  N   N3        1.0  0.7403602707750851  0.2596397845809578  0.2596396498235182  1.0000
  N   N4        1.0  0.2596396455302127  0.7403602177027585  0.740360402534031  1.0000
  N   N5        1.0  0.2596397459361683  0.7403603274917907  0.2596396564420911  1.0000
  N   N6        1.0  0.7403602356425192  0.25963967936282456  0.7403604001806141  1.0000
