data_image0
_chemical_formula_structural       Sb2RhN6
_chemical_formula_sum              "Sb2 Rh1 N6"
_cell_length_a       5.251257608026619
_cell_length_b       5.251257535083509
_cell_length_c       5.251257605251689
_cell_angle_alpha    60.00000125471682
_cell_angle_beta     60.00000008374057
_cell_angle_gamma    60.00000085254203

_space_group_name_H-M_alt    "P 1"
_space_group_IT_number       1

loop_
  _space_group_symop_operation_xyz
  'x, y, z'

loop_
  _atom_site_type_symbol
  _atom_site_label
  _atom_site_symmetry_multiplicity
  _atom_site_fract_x
  _atom_site_fract_y
  _atom_site_fract_z
  _atom_site_occupancy
  Sb  Sb1       1.0  0.25000002660532245  0.2499999125991087  0.2499999380134106  1.0000
  Sb  Sb2       1.0  0.7500002008850817  0.7499999616970505  0.7500001519097537  1.0000
  Rh  Rh1       1.0  3.242711408818778e-08  6.763637327955297e-08  1.2810346620305067e-08  1.0000
  N   N1        1.0  0.26785621204417226  0.26785638849398075  0.7321437118212408  1.0000
  N   N2        1.0  0.7321436076468484  0.7321436537269573  0.26785625047948164  1.0000
  N   N3        1.0  0.7321437489545667  0.26785639107246884  0.26785622900510553  1.0000
  N   N4        1.0  0.2678562025830102  0.7321435788475201  0.7321436882883666  1.0000
  N   N5        1.0  0.2678563609290756  0.7321438219205733  0.2678562952000345  1.0000
  N   N6        1.0  0.7321436086874962  0.26785619930976945  0.7321437187958599  1.0000
