data_image0
_chemical_formula_structural       Sb2RhS6
_chemical_formula_sum              "Sb2 Rh1 S6"
_cell_length_a       6.263181607671263
_cell_length_b       6.263181316174992
_cell_length_c       6.263181482420847
_cell_angle_alpha    60.00000010573204
_cell_angle_beta     60.00000192906095
_cell_angle_gamma    60.00000031580494

_space_group_name_H-M_alt    "P 1"
_space_group_IT_number       1

loop_
  _space_group_symop_operation_xyz
  'x, y, z'

loop_
  _atom_site_type_symbol
  _atom_site_label
  _atom_site_symmetry_multiplicity
  _atom_site_fract_x
  _atom_site_fract_y
  _atom_site_fract_z
  _atom_site_occupancy
  Sb  Sb1       1.0  0.2500000893144351  0.2500002384801532  0.2499997922640472  1.0000
  Sb  Sb2       1.0  0.7500000732825041  0.749999579313725  0.7500002321851834  1.0000
  Rh  Rh1       1.0  3.0689929474288965e-08  1.9554677246312344e-09  0.9999999485513835  1.0000
  S   S1        1.0  0.26142980087615886  0.2614300971242339  0.7385701285064353  1.0000
  S   S2        1.0  0.7385701071268016  0.7385700198562011  0.2614299742343627  1.0000
  S   S3        1.0  0.7385698945901467  0.26143010531964017  0.26142984203060055  1.0000
  S   S4        1.0  0.26142993177218293  0.7385699745069066  0.7385701269149063  1.0000
  S   S5        1.0  0.26143005803510255  0.7385699480054143  0.2614298890342578  1.0000
  S   S6        1.0  0.7385700215024319  0.2614300360032175  0.7385700571147482  1.0000
