data_image0
_chemical_formula_structural       Sb2ScTe6
_chemical_formula_sum              "Sb2 Sc1 Te6"
_cell_length_a       7.295708278287216
_cell_length_b       7.295708651345529
_cell_length_c       7.295708513997967
_cell_angle_alpha    60.00000047293897
_cell_angle_beta     60.00000006230826
_cell_angle_gamma    60.000000832499474

_space_group_name_H-M_alt    "P 1"
_space_group_IT_number       1

loop_
  _space_group_symop_operation_xyz
  'x, y, z'

loop_
  _atom_site_type_symbol
  _atom_site_label
  _atom_site_symmetry_multiplicity
  _atom_site_fract_x
  _atom_site_fract_y
  _atom_site_fract_z
  _atom_site_occupancy
  Sb  Sb1       1.0  0.24999994648136845  0.25000038435644617  0.24999963124603997  1.0000
  Sb  Sb2       1.0  0.7499998313639454  0.7499996674025536  0.7500000929322964  1.0000
  Sc  Sc1       1.0  7.08078911476715e-08  0.9999999110278651  0.9999999583673771  1.0000
  Te  Te1       1.0  0.2701653136204125  0.27016538019238  0.7298346696264393  1.0000
  Te  Te2       1.0  0.7298346964529553  0.729834611132714  0.2701653469594125  1.0000
  Te  Te3       1.0  0.7298347338379331  0.270165474217931  0.2701653216469587  1.0000
  Te  Te4       1.0  0.27016542668909044  0.7298345120710024  0.7298348799158803  1.0000
  Te  Te5       1.0  0.27016536836860144  0.7298345668565835  0.27016535766581545  1.0000
  Te  Te6       1.0  0.7298346114082803  0.2701654916172908  0.7298347391820421  1.0000
