data_image0
_chemical_formula_structural       Sb2SnTe6
_chemical_formula_sum              "Sb2 Sn1 Te6"
_cell_length_a       7.397353914536694
_cell_length_b       7.397353915152052
_cell_length_c       7.397353882938775
_cell_angle_alpha    59.99999990511589
_cell_angle_beta     60.00000005734427
_cell_angle_gamma    59.999999924112316

_space_group_name_H-M_alt    "P 1"
_space_group_IT_number       1

loop_
  _space_group_symop_operation_xyz
  'x, y, z'

loop_
  _atom_site_type_symbol
  _atom_site_label
  _atom_site_symmetry_multiplicity
  _atom_site_fract_x
  _atom_site_fract_y
  _atom_site_fract_z
  _atom_site_occupancy
  Sb  Sb1       1.0  0.250000035904427  0.24999998992332806  0.2499999186856816  1.0000
  Sb  Sb2       1.0  0.7499999625895514  0.7500000492413117  0.7500000241024914  1.0000
  Sn  Sn1       1.0  3.413559189328489e-08  3.808001127933012e-08  0.9999999720032068  1.0000
  Te  Te1       1.0  0.2746719264783861  0.27467186413732225  0.7253280955135908  1.0000
  Te  Te2       1.0  0.725328070313989  0.7253281005229475  0.27467187861839515  1.0000
  Te  Te3       1.0  0.7253281072504065  0.2746719091776147  0.27467189387565255  1.0000
  Te  Te4       1.0  0.27467188769693923  0.725328070383529  0.7253281629495045  1.0000
  Te  Te5       1.0  0.2746719007260673  0.7253281260977626  0.27467189896459016  1.0000
  Te  Te6       1.0  0.725328079715404  0.2746718501520757  0.7253281559544786  1.0000
