data_image0
_chemical_formula_structural       Sb2SnN6
_chemical_formula_sum              "Sb2 Sn1 N6"
_cell_length_a       5.440758627773058
_cell_length_b       5.440758785948123
_cell_length_c       5.440758527687482
_cell_angle_alpha    60.000000001051575
_cell_angle_beta     60.00000012835329
_cell_angle_gamma    60.000000407248876

_space_group_name_H-M_alt    "P 1"
_space_group_IT_number       1

loop_
  _space_group_symop_operation_xyz
  'x, y, z'

loop_
  _atom_site_type_symbol
  _atom_site_label
  _atom_site_symmetry_multiplicity
  _atom_site_fract_x
  _atom_site_fract_y
  _atom_site_fract_z
  _atom_site_occupancy
  Sb  Sb1       1.0  0.2500001370867713  0.24999991744313427  0.2499999736705526  1.0000
  Sb  Sb2       1.0  0.7499998373264232  0.7500002453105  0.7500002739444832  1.0000
  Sn  Sn1       1.0  0.9999999636631598  1.3506330034624943e-08  1.0882814287489598e-07  1.0000
  N   N1        1.0  0.2726798832870003  0.2726797188620303  0.7273202226969848  1.0000
  N   N2        1.0  0.7273201681770327  0.7273201872713134  0.27267955228120117  1.0000
  N   N3        1.0  0.7273201309427396  0.2726798435579397  0.27267983609646546  1.0000
  N   N4        1.0  0.27267993284687775  0.7273201211028382  0.727320070711301  1.0000
  N   N5        1.0  0.27267995839147385  0.7273202611775518  0.27267969695468247  1.0000
  N   N6        1.0  0.7273199677051277  0.27267968997689535  0.7273202376653036  1.0000
