data_image0
_chemical_formula_structural       Sb2SnO6
_chemical_formula_sum              "Sb2 Sn1 O6"
_cell_length_a       5.403300792775649
_cell_length_b       5.403300732834069
_cell_length_c       5.403300697694929
_cell_angle_alpha    60.00000007660073
_cell_angle_beta     59.99999938556641
_cell_angle_gamma    60.00000052347791

_space_group_name_H-M_alt    "P 1"
_space_group_IT_number       1

loop_
  _space_group_symop_operation_xyz
  'x, y, z'

loop_
  _atom_site_type_symbol
  _atom_site_label
  _atom_site_symmetry_multiplicity
  _atom_site_fract_x
  _atom_site_fract_y
  _atom_site_fract_z
  _atom_site_occupancy
  Sb  Sb1       1.0  0.24999991869778868  0.25000001113703674  0.24999974221033253  1.0000
  Sb  Sb2       1.0  0.7499998823298833  0.7499999880779029  0.7500000985846056  1.0000
  Sn  Sn1       1.0  0.9999999963296244  4.306655049620433e-08  0.9999999303324558  1.0000
  O   O1        1.0  0.2645630204819965  0.26456287618442803  0.7354371808251987  1.0000
  O   O2        1.0  0.7354370543890081  0.735437032364093  0.26456304771791955  1.0000
  O   O3        1.0  0.7354370590411616  0.26456306320507283  0.2645629428073752  1.0000
  O   O4        1.0  0.2645629761744068  0.735436945076512  0.7354371131914419  1.0000
  O   O5        1.0  0.2645630939995962  0.7354370638199624  0.26456288992062654  1.0000
  O   O6        1.0  0.7354370273230167  0.26456294899494426  0.735437031923417  1.0000
