data_image0
_chemical_formula_structural       Sb2SnS6
_chemical_formula_sum              "Sb2 Sn1 S6"
_cell_length_a       6.4386782934040605
_cell_length_b       6.438678290737409
_cell_length_c       6.4386784630639236
_cell_angle_alpha    59.9999966346394
_cell_angle_beta     59.999998797488
_cell_angle_gamma    59.99999662632507

_space_group_name_H-M_alt    "P 1"
_space_group_IT_number       1

loop_
  _space_group_symop_operation_xyz
  'x, y, z'

loop_
  _atom_site_type_symbol
  _atom_site_label
  _atom_site_symmetry_multiplicity
  _atom_site_fract_x
  _atom_site_fract_y
  _atom_site_fract_z
  _atom_site_occupancy
  Sb  Sb1       1.0  0.2500004248996783  0.25000037669533415  0.2499996464596481  1.0000
  Sb  Sb2       1.0  0.7499996186934925  0.7500005404138693  0.7500005297050337  1.0000
  Sn  Sn1       1.0  2.6086421794568135e-08  0.9999999486414568  4.36983364603974e-08  1.0000
  S   S1        1.0  0.26767138033236504  0.26767118047150534  0.7323286124836449  1.0000
  S   S2        1.0  0.7323286775897626  0.73232867142352  0.2676711215338063  1.0000
  S   S3        1.0  0.7323284272790735  0.267671315853354  0.2676713569727721  1.0000
  S   S4        1.0  0.2676713180166408  0.7323284409332588  0.7323288340696344  1.0000
  S   S5        1.0  0.26767158227376375  0.7323285028720619  0.2676710712541764  1.0000
  S   S6        1.0  0.7323285347990314  0.2676710370673742  0.7323287876126277  1.0000
