data_image0
_chemical_formula_structural       Sb2SO6
_chemical_formula_sum              "Sb2 S1 O6"
_cell_length_a       5.182169061680846
_cell_length_b       5.1821688724284725
_cell_length_c       5.182169359977985
_cell_angle_alpha    60.00000026863508
_cell_angle_beta     59.99999969649223
_cell_angle_gamma    59.999997903025616

_space_group_name_H-M_alt    "P 1"
_space_group_IT_number       1

loop_
  _space_group_symop_operation_xyz
  'x, y, z'

loop_
  _atom_site_type_symbol
  _atom_site_label
  _atom_site_symmetry_multiplicity
  _atom_site_fract_x
  _atom_site_fract_y
  _atom_site_fract_z
  _atom_site_occupancy
  Sb  Sb1       1.0  0.25000028705125016  0.25000009580059734  0.24999957291698027  1.0000
  Sb  Sb2       1.0  0.7500000380261043  0.749999828905567  0.7500001121434305  1.0000
  S   S1        1.0  0.9999999772003485  0.9999999881830872  4.432399451192136e-08  1.0000
  O   O1        1.0  0.2272206508339629  0.22722061410236016  0.7727794243327287  1.0000
  O   O2        1.0  0.7727792582847338  0.7727794287729595  0.22722064311537912  1.0000
  O   O3        1.0  0.7727793282378209  0.22722071135234967  0.22722062213037  1.0000
  O   O4        1.0  0.22722060620226658  0.7727792889820794  0.772779463575956  1.0000
  O   O5        1.0  0.22722060520741214  0.7727793257304924  0.2272206722182561  1.0000
  O   O6        1.0  0.7727792507043673  0.22722070296453234  0.7727794578688637  1.0000
