data_image0
_chemical_formula_structural       Sb2SeS6
_chemical_formula_sum              "Sb2 Se1 S6"
_cell_length_a       6.336219557417822
_cell_length_b       6.336219383064915
_cell_length_c       6.336219236842377
_cell_angle_alpha    60.00000248405255
_cell_angle_beta     60.00000228806277
_cell_angle_gamma    60.00000202794228

_space_group_name_H-M_alt    "P 1"
_space_group_IT_number       1

loop_
  _space_group_symop_operation_xyz
  'x, y, z'

loop_
  _atom_site_type_symbol
  _atom_site_label
  _atom_site_symmetry_multiplicity
  _atom_site_fract_x
  _atom_site_fract_y
  _atom_site_fract_z
  _atom_site_occupancy
  Sb  Sb1       1.0  0.25000012738561866  0.25000029748500807  0.24999999739538326  1.0000
  Sb  Sb2       1.0  0.7499995751364087  0.7499998254793914  0.7499998701930373  1.0000
  Se  Se1       1.0  3.903786891090144e-09  0.999999922682927  3.670664202305892e-08  1.0000
  S   S1        1.0  0.25642918311818125  0.25642918402988346  0.7435707015042777  1.0000
  S   S2        1.0  0.7435708910243112  0.743570819093061  0.256429300602294  1.0000
  S   S3        1.0  0.743570706462483  0.2564290840796963  0.2564292533823347  1.0000
  S   S4        1.0  0.2564294886583537  0.7435708185310574  0.7435709089398074  1.0000
  S   S5        1.0  0.25642919083511057  0.7435706477940994  0.2564291260920041  1.0000
  S   S6        1.0  0.7435708439319251  0.2564294133166482  0.7435707988445818  1.0000
