data_image0
_chemical_formula_structural       Sb2ScO6
_chemical_formula_sum              "Sb2 Sc1 O6"
_cell_length_a       5.395257369894517
_cell_length_b       5.395257189608343
_cell_length_c       5.395257371066001
_cell_angle_alpha    59.99999876578434
_cell_angle_beta     59.99999746278074
_cell_angle_gamma    59.999999658689994

_space_group_name_H-M_alt    "P 1"
_space_group_IT_number       1

loop_
  _space_group_symop_operation_xyz
  'x, y, z'

loop_
  _atom_site_type_symbol
  _atom_site_label
  _atom_site_symmetry_multiplicity
  _atom_site_fract_x
  _atom_site_fract_y
  _atom_site_fract_z
  _atom_site_occupancy
  Sb  Sb1       1.0  0.24999946027403008  0.2500002821181294  0.24999996707607366  1.0000
  Sb  Sb2       1.0  0.7500000111204379  0.7499998271065196  0.7499998700179465  1.0000
  Sc  Sc1       1.0  0.9999999528930197  3.8590675943699825e-08  0.9999998949028509  1.0000
  O   O1        1.0  0.26011491592014235  0.2601150050785585  0.7398851527130333  1.0000
  O   O2        1.0  0.7398851772010846  0.7398847863405245  0.26011508661080857  1.0000
  O   O3        1.0  0.739885275430692  0.2601149554409119  0.2601150394732796  1.0000
  O   O4        1.0  0.2601150838967581  0.7398849426700483  0.7398850727128572  1.0000
  O   O5        1.0  0.2601149733671439  0.7398850477068124  0.26011499185184267  1.0000
  O   O6        1.0  0.7398851578178183  0.260115104648607  0.7398849552979773  1.0000
