data_image0
_chemical_formula_structural       Sb2SeO6
_chemical_formula_sum              "Sb2 Se1 O6"
_cell_length_a       5.270209239976464
_cell_length_b       5.270209518436942
_cell_length_c       5.270209234985075
_cell_angle_alpha    60.000001285264254
_cell_angle_beta     60.00000102575078
_cell_angle_gamma    60.000002161520925

_space_group_name_H-M_alt    "P 1"
_space_group_IT_number       1

loop_
  _space_group_symop_operation_xyz
  'x, y, z'

loop_
  _atom_site_type_symbol
  _atom_site_label
  _atom_site_symmetry_multiplicity
  _atom_site_fract_x
  _atom_site_fract_y
  _atom_site_fract_z
  _atom_site_occupancy
  Sb  Sb1       1.0  0.24999994002470963  0.2499996349590658  0.25000022910924813  1.0000
  Sb  Sb2       1.0  0.7499999065627707  0.7500002295011198  0.7500002891596333  1.0000
  Se  Se1       1.0  1.6730527538922318e-08  4.183023022783828e-08  0.9999998701543539  1.0000
  O   O1        1.0  0.2431708324433523  0.2431706780067848  0.7568292352616042  1.0000
  O   O2        1.0  0.7568291615141485  0.7568293096201921  0.2431706543998255  1.0000
  O   O3        1.0  0.756829297833748  0.24317075056314763  0.2431707287182738  1.0000
  O   O4        1.0  0.24317067540604462  0.7568294043847459  0.7568291047186718  1.0000
  O   O5        1.0  0.24317080297220167  0.7568293743322754  0.24317068125639607  1.0000
  O   O6        1.0  0.7568293599577728  0.24317059935129223  0.7568291840193232  1.0000
