data_image0
_chemical_formula_structural       Sb2SiN6
_chemical_formula_sum              "Sb2 Si1 N6"
_cell_length_a       5.2671014285568925
_cell_length_b       5.267101481070101
_cell_length_c       5.267101698416378
_cell_angle_alpha    59.99999923072327
_cell_angle_beta     59.99999972157494
_cell_angle_gamma    59.99999997208992

_space_group_name_H-M_alt    "P 1"
_space_group_IT_number       1

loop_
  _space_group_symop_operation_xyz
  'x, y, z'

loop_
  _atom_site_type_symbol
  _atom_site_label
  _atom_site_symmetry_multiplicity
  _atom_site_fract_x
  _atom_site_fract_y
  _atom_site_fract_z
  _atom_site_occupancy
  Sb  Sb1       1.0  0.25000009122760225  0.24999986163109428  0.2500001034658138  1.0000
  Sb  Sb2       1.0  0.7499999622598562  0.7500000127435115  0.7500001857335936  1.0000
  Si  Si1       1.0  1.7804278034491275e-08  0.9999999860483623  1.1768405319392326e-07  1.0000
  N   N1        1.0  0.24393729111219178  0.24393713852852345  0.7560627758998039  1.0000
  N   N2        1.0  0.7560627772538779  0.7560628753624611  0.24393707916956694  1.0000
  N   N3        1.0  0.7560626578902283  0.24393729767131184  0.24393717452278718  1.0000
  N   N4        1.0  0.2439371656233652  0.7560628720129621  0.7560627345690617  1.0000
  N   N5        1.0  0.24393726431495044  0.7560628433920187  0.2439370895780781  1.0000
  N   N6        1.0  0.7560628132192263  0.24393714957150883  0.7560627580809262  1.0000
