data_image0
_chemical_formula_structural       Sb2SN6
_chemical_formula_sum              "Sb2 S1 N6"
_cell_length_a       4.8300830306543165
_cell_length_b       4.83008346464163
_cell_length_c       4.830083248145378
_cell_angle_alpha    59.99999840680478
_cell_angle_beta     59.999996180273
_cell_angle_gamma    59.99999856058817

_space_group_name_H-M_alt    "P 1"
_space_group_IT_number       1

loop_
  _space_group_symop_operation_xyz
  'x, y, z'

loop_
  _atom_site_type_symbol
  _atom_site_label
  _atom_site_symmetry_multiplicity
  _atom_site_fract_x
  _atom_site_fract_y
  _atom_site_fract_z
  _atom_site_occupancy
  Sb  Sb1       1.0  0.24999999846756446  0.25000003318074443  0.2499999917517071  1.0000
  Sb  Sb2       1.0  0.7500000449557606  0.7500000082584781  0.7499999629947434  1.0000
  S   S1        1.0  1.646934990032809e-08  0.9999999721077409  1.6063243418733392e-08  1.0000
  N   N1        1.0  0.2398604494307251  0.2398604058844249  0.7601395774190066  1.0000
  N   N2        1.0  0.7601395318856322  0.7601395493423627  0.23986046805000985  1.0000
  N   N3        1.0  0.7601395471679936  0.2398604596475379  0.23986042855950723  1.0000
  N   N4        1.0  0.23986048756285772  0.7601395361498069  0.7601395595651934  1.0000
  N   N5        1.0  0.23986043027672493  0.7601395725313207  0.23986045247539386  1.0000
  N   N6        1.0  0.7601395420073661  0.2398604384799844  0.7601395571953498  1.0000
