data_image0
_chemical_formula_structural       Sb2TiN6
_chemical_formula_sum              "Sb2 Ti1 N6"
_cell_length_a       5.255682139973869
_cell_length_b       5.255682409957121
_cell_length_c       5.255682187148512
_cell_angle_alpha    60.00000104831438
_cell_angle_beta     60.00000085215834
_cell_angle_gamma    60.000000122957616

_space_group_name_H-M_alt    "P 1"
_space_group_IT_number       1

loop_
  _space_group_symop_operation_xyz
  'x, y, z'

loop_
  _atom_site_type_symbol
  _atom_site_label
  _atom_site_symmetry_multiplicity
  _atom_site_fract_x
  _atom_site_fract_y
  _atom_site_fract_z
  _atom_site_occupancy
  Sb  Sb1       1.0  0.24999991564209179  0.24999978392036337  0.2500001776786179  1.0000
  Sb  Sb2       1.0  0.7500000452908441  0.7500001044560933  0.7499994195709744  1.0000
  Ti  Ti1       1.0  0.9999999617172073  4.8936827105938925e-08  3.272703374926888e-08  1.0000
  N   N1        1.0  0.2727599476408612  0.27275978952591845  0.7272400727115155  1.0000
  N   N2        1.0  0.727240043426252  0.7272402852765381  0.2727602191984722  1.0000
  N   N3        1.0  0.7272402084646192  0.272759439360351  0.2727600072065553  1.0000
  N   N4        1.0  0.2727600526458201  0.7272402998752917  0.7272399540489888  1.0000
  N   N5        1.0  0.2727595822731374  0.7272403176548065  0.2727599673218917  1.0000
  N   N6        1.0  0.7272402813839186  0.2727599482343107  0.7272401024795357  1.0000
