data_image0
_chemical_formula_structural       Sb2TiSe6
_chemical_formula_sum              "Sb2 Ti1 Se6"
_cell_length_a       6.584809447613951
_cell_length_b       6.584809263594369
_cell_length_c       6.5848092339608
_cell_angle_alpha    60.000001267958744
_cell_angle_beta     59.99999941235726
_cell_angle_gamma    60.000001194565804

_space_group_name_H-M_alt    "P 1"
_space_group_IT_number       1

loop_
  _space_group_symop_operation_xyz
  'x, y, z'

loop_
  _atom_site_type_symbol
  _atom_site_label
  _atom_site_symmetry_multiplicity
  _atom_site_fract_x
  _atom_site_fract_y
  _atom_site_fract_z
  _atom_site_occupancy
  Sb  Sb1       1.0  0.2500000618412469  0.24999968088652352  0.2500001675557065  1.0000
  Sb  Sb2       1.0  0.7499998994035573  0.7500002534902264  0.7499996986163491  1.0000
  Ti  Ti1       1.0  0.9999999982281681  3.161923332637477e-08  0.9999999516660683  1.0000
  Se  Se1       1.0  0.2602340696270979  0.26023395119942455  0.7397659894381745  1.0000
  Se  Se2       1.0  0.739765962769966  0.7397660222363861  0.2602341344694775  1.0000
  Se  Se3       1.0  0.7397660104487761  0.26023390066660096  0.2602341279944416  1.0000
  Se  Se4       1.0  0.260234081870956  0.7397660876488483  0.7397658704305374  1.0000
  Se  Se5       1.0  0.2602339521277131  0.739766074835751  0.2602340968505898  1.0000
  Se  Se6       1.0  0.7397659690125582  0.26023400089757837  0.7397659510484167  1.0000
