data_image0
_chemical_formula_structural       Sb2TaSe6
_chemical_formula_sum              "Sb2 Ta1 Se6"
_cell_length_a       6.658760608181964
_cell_length_b       6.658760752848741
_cell_length_c       6.6587605776428935
_cell_angle_alpha    60.00000205477442
_cell_angle_beta     60.000000560773664
_cell_angle_gamma    60.000000642024716

_space_group_name_H-M_alt    "P 1"
_space_group_IT_number       1

loop_
  _space_group_symop_operation_xyz
  'x, y, z'

loop_
  _atom_site_type_symbol
  _atom_site_label
  _atom_site_symmetry_multiplicity
  _atom_site_fract_x
  _atom_site_fract_y
  _atom_site_fract_z
  _atom_site_occupancy
  Sb  Sb1       1.0  0.24999994378773996  0.2500000979087554  0.24999992226810785  1.0000
  Sb  Sb2       1.0  0.7500001808026036  0.7499998228658562  0.7499998965967588  1.0000
  Ta  Ta1       1.0  7.041620410765686e-09  0.9999999944821047  1.57577282056909e-08  1.0000
  Se  Se1       1.0  0.263318915035351  0.263318914548007  0.7366810947404239  1.0000
  Se  Se2       1.0  0.7366810690201101  0.736681131298904  0.26331892558548187  1.0000
  Se  Se3       1.0  0.7366811266286846  0.2633189587387096  0.26331888605580844  1.0000
  Se  Se4       1.0  0.26331879650459106  0.7366811294120671  0.7366811751166579  1.0000
  Se  Se5       1.0  0.2633188534792848  0.7366810722878523  0.26331894760464924  1.0000
  Se  Se6       1.0  0.7366811108368491  0.2633188871120311  0.7366811273162142  1.0000
