data_image0
_chemical_formula_structural       Sb2TaS6
_chemical_formula_sum              "Sb2 Ta1 S6"
_cell_length_a       6.401424044627106
_cell_length_b       6.401424055669192
_cell_length_c       6.4014241912125645
_cell_angle_alpha    59.99999955531646
_cell_angle_beta     59.99999940802286
_cell_angle_gamma    59.99999832682322

_space_group_name_H-M_alt    "P 1"
_space_group_IT_number       1

loop_
  _space_group_symop_operation_xyz
  'x, y, z'

loop_
  _atom_site_type_symbol
  _atom_site_label
  _atom_site_symmetry_multiplicity
  _atom_site_fract_x
  _atom_site_fract_y
  _atom_site_fract_z
  _atom_site_occupancy
  Sb  Sb1       1.0  0.25000006352807097  0.2500003011451698  0.24999964418459122  1.0000
  Sb  Sb2       1.0  0.7499999780217167  0.7500000367386234  0.7499996533931383  1.0000
  Ta  Ta1       1.0  1.4011639882716376e-08  0.9999999904338088  0.9999999524748567  1.0000
  S   S1        1.0  0.2628118943552848  0.26281184420429765  0.7371882157237154  1.0000
  S   S2        1.0  0.7371881810733656  0.7371880727671  0.2628120080202432  1.0000
  S   S3        1.0  0.7371881472467613  0.262811830500345  0.26281197972832177  1.0000
  S   S4        1.0  0.2628119339216038  0.7371880692519089  0.7371882294473704  1.0000
  S   S5        1.0  0.26281177765198765  0.7371880107761488  0.26281204346825215  1.0000
  S   S6        1.0  0.7371880025163438  0.2628118449716319  0.7371882835343597  1.0000
