data_image0
_chemical_formula_structural       Sb2TeN6
_chemical_formula_sum              "Sb2 Te1 N6"
_cell_length_a       5.389062751320327
_cell_length_b       5.389062935049128
_cell_length_c       5.389062942923533
_cell_angle_alpha    59.999999321920534
_cell_angle_beta     59.99999921013178
_cell_angle_gamma    59.9999998421339

_space_group_name_H-M_alt    "P 1"
_space_group_IT_number       1

loop_
  _space_group_symop_operation_xyz
  'x, y, z'

loop_
  _atom_site_type_symbol
  _atom_site_label
  _atom_site_symmetry_multiplicity
  _atom_site_fract_x
  _atom_site_fract_y
  _atom_site_fract_z
  _atom_site_occupancy
  Sb  Sb1       1.0  0.24999997179117198  0.24999973329347253  0.25000009476929885  1.0000
  Sb  Sb2       1.0  0.750000019008731  0.7500000203067222  0.7500000393835228  1.0000
  Te  Te1       1.0  0.9999999902818287  2.272649083855141e-08  0.9999999563836367  1.0000
  N   N1        1.0  0.2664499682195848  0.2664499445566372  0.7335500834024995  1.0000
  N   N2        1.0  0.73354998270861  0.7335501022152854  0.26644987214322585  1.0000
  N   N3        1.0  0.7335500385917298  0.2664499179635479  0.2664500017006862  1.0000
  N   N4        1.0  0.2664499730665918  0.7335501651707589  0.7335499479778176  1.0000
  N   N5        1.0  0.266449909547295  0.7335501510059159  0.26645000178345013  1.0000
  N   N6        1.0  0.733550115464672  0.26644994349163537  0.733550017183456  1.0000
