data_image0
_chemical_formula_structural       Sb2TaN6
_chemical_formula_sum              "Sb2 Ta1 N6"
_cell_length_a       5.3495237525702395
_cell_length_b       5.3495240847253305
_cell_length_c       5.349523800804019
_cell_angle_alpha    60.00000008014605
_cell_angle_beta     60.000001260279404
_cell_angle_gamma    60.0000018207114

_space_group_name_H-M_alt    "P 1"
_space_group_IT_number       1

loop_
  _space_group_symop_operation_xyz
  'x, y, z'

loop_
  _atom_site_type_symbol
  _atom_site_label
  _atom_site_symmetry_multiplicity
  _atom_site_fract_x
  _atom_site_fract_y
  _atom_site_fract_z
  _atom_site_occupancy
  Sb  Sb1       1.0  0.25000010407086165  0.2500004673255042  0.2499995663289296  1.0000
  Sb  Sb2       1.0  0.7500001051085128  0.7499998863629769  0.7500005380027236  1.0000
  Ta  Ta1       1.0  0.9999999925219135  0.9999999771055341  9.182861225999134e-08  1.0000
  N   N1        1.0  0.2729729278729038  0.2729729363862064  0.7270271216892307  1.0000
  N   N2        1.0  0.7270271475500203  0.7270270738853329  0.2729725239707973  1.0000
  N   N3        1.0  0.7270271125122866  0.2729732630666704  0.2729727180787927  1.0000
  N   N4        1.0  0.27297277374729834  0.7270267059948269  0.7270272726949316  1.0000
  N   N5        1.0  0.2729730900049022  0.727026804292283  0.2729729345366456  1.0000
  N   N6        1.0  0.7270267359736265  0.2729728923250936  0.7270272282076456  1.0000
