data_image0
_chemical_formula_structural       Sb2TiS6
_chemical_formula_sum              "Sb2 Ti1 S6"
_cell_length_a       6.295547328917432
_cell_length_b       6.295547334713055
_cell_length_c       6.295547343377139
_cell_angle_alpha    60.00000060964374
_cell_angle_beta     60.00000178656334
_cell_angle_gamma    60.000000429364256

_space_group_name_H-M_alt    "P 1"
_space_group_IT_number       1

loop_
  _space_group_symop_operation_xyz
  'x, y, z'

loop_
  _atom_site_type_symbol
  _atom_site_label
  _atom_site_symmetry_multiplicity
  _atom_site_fract_x
  _atom_site_fract_y
  _atom_site_fract_z
  _atom_site_occupancy
  Sb  Sb1       1.0  0.24999991411612255  0.2500007382005571  0.2499996275007682  1.0000
  Sb  Sb2       1.0  0.7500000779746777  0.7499992653533868  0.7500006706058266  1.0000
  Ti  Ti1       1.0  3.146915029686001e-10  1.556331549298882e-08  1.7475784412614254e-08  1.0000
  S   S1        1.0  0.2617663348394336  0.26176658931237673  0.738233516953658  1.0000
  S   S2        1.0  0.738233639335766  0.7382334239686392  0.2617663166620501  1.0000
  S   S3        1.0  0.738233501326736  0.2617667730162013  0.2617661798787827  1.0000
  S   S4        1.0  0.26176645061609416  0.7382332519373013  0.7382337813255331  1.0000
  S   S5        1.0  0.26176656510373486  0.7382333548588832  0.2617663320718011  1.0000
  S   S6        1.0  0.7382335141936514  0.26176659616887055  0.7382335515885368  1.0000
