data_image0
_chemical_formula_structural       Sb2TaO6
_chemical_formula_sum              "Sb2 Ta1 O6"
_cell_length_a       5.384575079474215
_cell_length_b       5.384575193919514
_cell_length_c       5.384575192091719
_cell_angle_alpha    60.000000340044366
_cell_angle_beta     59.999999092978456
_cell_angle_gamma    60.00000042233099

_space_group_name_H-M_alt    "P 1"
_space_group_IT_number       1

loop_
  _space_group_symop_operation_xyz
  'x, y, z'

loop_
  _atom_site_type_symbol
  _atom_site_label
  _atom_site_symmetry_multiplicity
  _atom_site_fract_x
  _atom_site_fract_y
  _atom_site_fract_z
  _atom_site_occupancy
  Sb  Sb1       1.0  0.24999958544662162  0.25000048063463776  0.24999999948011253  1.0000
  Sb  Sb2       1.0  0.7500001335409833  0.7499999930199273  0.7499998132801158  1.0000
  Ta  Ta1       1.0  0.9999999826919191  4.549086286922925e-08  0.9999999636227285  1.0000
  O   O1        1.0  0.2568293801742589  0.2568293210598531  0.7431706622151719  1.0000
  O   O2        1.0  0.7431708318573962  0.7431703747009558  0.2568294378281307  1.0000
  O   O3        1.0  0.7431707162442754  0.256829315692968  0.25682945182573536  1.0000
  O   O4        1.0  0.25682936007679824  0.743170562031293  0.7431706492341703  1.0000
  O   O5        1.0  0.2568293125894035  0.743170482488553  0.2568294719683262  1.0000
  O   O6        1.0  0.7431706788192194  0.2568294248047682  0.7431705527624984  1.0000
