data_image0
_chemical_formula_structural       Sb2VN6
_chemical_formula_sum              "Sb2 V1 N6"
_cell_length_a       5.271309134804768
_cell_length_b       5.271308923630413
_cell_length_c       5.271309202872098
_cell_angle_alpha    60.00000117160961
_cell_angle_beta     60.000001333189104
_cell_angle_gamma    60.00000215100555

_space_group_name_H-M_alt    "P 1"
_space_group_IT_number       1

loop_
  _space_group_symop_operation_xyz
  'x, y, z'

loop_
  _atom_site_type_symbol
  _atom_site_label
  _atom_site_symmetry_multiplicity
  _atom_site_fract_x
  _atom_site_fract_y
  _atom_site_fract_z
  _atom_site_occupancy
  Sb  Sb1       1.0  0.250000171787125  0.2500010218251044  0.24999940038953072  1.0000
  Sb  Sb2       1.0  0.7500002452549143  0.7499995385283391  0.7499990847670966  1.0000
  V   V1        1.0  0.9999999944914116  0.9999999442379923  9.767615475548492e-09  1.0000
  N   N1        1.0  0.2615435183561162  0.2615441378787821  0.7384560800525072  1.0000
  N   N2        1.0  0.7384565163708756  0.7384557556540273  0.261544487159784  1.0000
  N   N3        1.0  0.7384558209955798  0.2615438171256242  0.2615438805700937  1.0000
  N   N4        1.0  0.2615440571668633  0.7384558626528147  0.7384566081100424  1.0000
  N   N5        1.0  0.26154358246600784  0.7384556316158176  0.2615441328279809  1.0000
  N   N6        1.0  0.7384560613049155  0.2615442781808952  0.7384563770093993  1.0000
