data_image0
_chemical_formula_structural       Sb2VSe6
_chemical_formula_sum              "Sb2 V1 Se6"
_cell_length_a       6.552290716633966
_cell_length_b       6.552290595667775
_cell_length_c       6.552290752870836
_cell_angle_alpha    59.999999334210806
_cell_angle_beta     60.00000025543781
_cell_angle_gamma    59.99999939295008

_space_group_name_H-M_alt    "P 1"
_space_group_IT_number       1

loop_
  _space_group_symop_operation_xyz
  'x, y, z'

loop_
  _atom_site_type_symbol
  _atom_site_label
  _atom_site_symmetry_multiplicity
  _atom_site_fract_x
  _atom_site_fract_y
  _atom_site_fract_z
  _atom_site_occupancy
  Sb  Sb1       1.0  0.2499998980727411  0.2500001487480883  0.24999995378451356  1.0000
  Sb  Sb2       1.0  0.7500000950482636  0.7499999733402458  0.7500001782083502  1.0000
  V   V1        1.0  0.9999999926301573  1.682267261169939e-08  2.9045040691505953e-09  1.0000
  Se  Se1       1.0  0.2568253881814496  0.2568254471143255  0.7431746226938061  1.0000
  Se  Se2       1.0  0.7431746895507368  0.7431744581484505  0.25682533579538935  1.0000
  Se  Se3       1.0  0.7431745964153208  0.25682546205544954  0.2568253338006495  1.0000
  Se  Se4       1.0  0.25682534250244193  0.7431746376026546  0.7431745495863957  1.0000
  Se  Se5       1.0  0.25682545099019627  0.7431745330289492  0.25682531799486974  1.0000
  Se  Se6       1.0  0.7431745583519083  0.25682532363499494  0.7431746974625983  1.0000
