data_image0
_chemical_formula_structural       Sb2VS6
_chemical_formula_sum              "Sb2 V1 S6"
_cell_length_a       6.265874360097738
_cell_length_b       6.265874083075742
_cell_length_c       6.265874056790043
_cell_angle_alpha    59.99999811918476
_cell_angle_beta     59.99999863443346
_cell_angle_gamma    59.999998568214366

_space_group_name_H-M_alt    "P 1"
_space_group_IT_number       1

loop_
  _space_group_symop_operation_xyz
  'x, y, z'

loop_
  _atom_site_type_symbol
  _atom_site_label
  _atom_site_symmetry_multiplicity
  _atom_site_fract_x
  _atom_site_fract_y
  _atom_site_fract_z
  _atom_site_occupancy
  Sb  Sb1       1.0  0.2500000218725212  0.2499994400836092  0.2500004210474745  1.0000
  Sb  Sb2       1.0  0.7500004519520271  0.7500000305497863  0.7499997903038987  1.0000
  V   V1        1.0  1.0740860851023356e-08  0.9999999843629813  0.9999999832967205  1.0000
  S   S1        1.0  0.2576162830915488  0.2576166367019402  0.7423835708059725  1.0000
  S   S2        1.0  0.742383387573543  0.7423837838803549  0.2576165176763401  1.0000
  S   S3        1.0  0.7423834637058824  0.25761642513913796  0.2576164819592262  1.0000
  S   S4        1.0  0.2576162364479548  0.7423838019350509  0.7423833916867132  1.0000
  S   S5        1.0  0.25761639590489505  0.7423836766388477  0.25761643507483223  1.0000
  S   S6        1.0  0.7423837569043286  0.2576162318310813  0.7423834034644693  1.0000
