data_image0
_chemical_formula_structural       Sb2VTe6
_chemical_formula_sum              "Sb2 V1 Te6"
_cell_length_a       7.092941956157232
_cell_length_b       7.092941773487835
_cell_length_c       7.092941559114561
_cell_angle_alpha    59.99999942527697
_cell_angle_beta     60.00000124123469
_cell_angle_gamma    60.000000393164235

_space_group_name_H-M_alt    "P 1"
_space_group_IT_number       1

loop_
  _space_group_symop_operation_xyz
  'x, y, z'

loop_
  _atom_site_type_symbol
  _atom_site_label
  _atom_site_symmetry_multiplicity
  _atom_site_fract_x
  _atom_site_fract_y
  _atom_site_fract_z
  _atom_site_occupancy
  Sb  Sb1       1.0  0.24999998375545654  0.25000006121234286  0.25000009751727115  1.0000
  Sb  Sb2       1.0  0.7499997635435074  0.7500000679475026  0.7500003300599732  1.0000
  V   V1        1.0  3.896349386500072e-09  5.180128013987727e-08  0.9999999792004461  1.0000
  Te  Te1       1.0  0.26018422909792854  0.26018403846405475  0.7398158042434798  1.0000
  Te  Te2       1.0  0.73981587660284  0.7398158213291459  0.26018402192452594  1.0000
  Te  Te3       1.0  0.7398158221969444  0.2601841903996003  0.2601840807821204  1.0000
  Te  Te4       1.0  0.26018418620155537  0.7398158489713684  0.7398158579220352  1.0000
  Te  Te5       1.0  0.2601842090635831  0.7398158771464016  0.26018398408686805  1.0000
  Te  Te6       1.0  0.7398159236042473  0.2601840482617537  0.7398158423152548  1.0000
