data_image0
_chemical_formula_structural       Sb2VO6
_chemical_formula_sum              "Sb2 V1 O6"
_cell_length_a       5.335701672309215
_cell_length_b       5.335701985335322
_cell_length_c       5.335701493643894
_cell_angle_alpha    60.00000218627496
_cell_angle_beta     60.00000104698017
_cell_angle_gamma    60.00000213500479

_space_group_name_H-M_alt    "P 1"
_space_group_IT_number       1

loop_
  _space_group_symop_operation_xyz
  'x, y, z'

loop_
  _atom_site_type_symbol
  _atom_site_label
  _atom_site_symmetry_multiplicity
  _atom_site_fract_x
  _atom_site_fract_y
  _atom_site_fract_z
  _atom_site_occupancy
  Sb  Sb1       1.0  0.25000038454323  0.2500000362328567  0.24999982407333945  1.0000
  Sb  Sb2       1.0  0.7500002236132396  0.7500000421326382  0.7499995694392984  1.0000
  V   V1        1.0  3.9370190875948325e-08  0.9999999403201948  0.9999999707972834  1.0000
  O   O1        1.0  0.24856328119574864  0.24856339393493407  0.7514366843825061  1.0000
  O   O2        1.0  0.7514366713914647  0.7514366385230151  0.24856347593378764  1.0000
  O   O3        1.0  0.7514364152872345  0.24856326261561568  0.2485634932136751  1.0000
  O   O4        1.0  0.24856334906810656  0.7514366917995123  0.7514366540548766  1.0000
  O   O5        1.0  0.24856311038106846  0.7514366621678854  0.24856350094423832  1.0000
  O   O6        1.0  0.7514365702081269  0.2485632968379956  0.7514368339712671  1.0000
