data_image0
_chemical_formula_structural       Sb2WN6
_chemical_formula_sum              "Sb2 W1 N6"
_cell_length_a       5.388594574091875
_cell_length_b       5.3885945142010145
_cell_length_c       5.388594573491049
_cell_angle_alpha    59.99999908505258
_cell_angle_beta     59.99999919398594
_cell_angle_gamma    59.99999958892264

_space_group_name_H-M_alt    "P 1"
_space_group_IT_number       1

loop_
  _space_group_symop_operation_xyz
  'x, y, z'

loop_
  _atom_site_type_symbol
  _atom_site_label
  _atom_site_symmetry_multiplicity
  _atom_site_fract_x
  _atom_site_fract_y
  _atom_site_fract_z
  _atom_site_occupancy
  Sb  Sb1       1.0  0.25000027925776047  0.2500000133253242  0.25000000948215595  1.0000
  Sb  Sb2       1.0  0.7499997170573384  0.7500000399759682  0.7500004254965604  1.0000
  W   W1        1.0  0.9999999669471911  4.7729778755277236e-08  3.348848714135087e-08  1.0000
  N   N1        1.0  0.26137304108150394  0.26137290669809843  0.7386269522552427  1.0000
  N   N2        1.0  0.7386269664901489  0.7386270806906444  0.2613727658871176  1.0000
  N   N3        1.0  0.738626874479768  0.2613730753486266  0.2613728995571142  1.0000
  N   N4        1.0  0.2613730373984829  0.7386269484056612  0.7386270152686061  1.0000
  N   N5        1.0  0.2613731950937941  0.7386269112879579  0.26137281293476666  1.0000
  N   N6        1.0  0.7386269035401829  0.26137298291407307  0.7386271141161904  1.0000
