data_image0
_chemical_formula_structural       Sb2YTe6
_chemical_formula_sum              "Sb2 Y1 Te6"
_cell_length_a       7.5549983552517554
_cell_length_b       7.554998196819479
_cell_length_c       7.554998420696562
_cell_angle_alpha    59.99999912872852
_cell_angle_beta     59.9999983656041
_cell_angle_gamma    59.999999420720535

_space_group_name_H-M_alt    "P 1"
_space_group_IT_number       1

loop_
  _space_group_symop_operation_xyz
  'x, y, z'

loop_
  _atom_site_type_symbol
  _atom_site_label
  _atom_site_symmetry_multiplicity
  _atom_site_fract_x
  _atom_site_fract_y
  _atom_site_fract_z
  _atom_site_occupancy
  Sb  Sb1       1.0  0.24999998304061727  0.24999988684803962  0.2500000878178066  1.0000
  Sb  Sb2       1.0  0.7499999746514161  0.749999978280789  0.7500001090274538  1.0000
  Y   Y1        1.0  3.379689065107861e-08  0.9999998573427197  3.060490814279798e-08  1.0000
  Te  Te1       1.0  0.2793476635047824  0.27934769118865976  0.7206523583308108  1.0000
  Te  Te2       1.0  0.7206523028595037  0.7206524138637764  0.2793476228862557  1.0000
  Te  Te3       1.0  0.7206523352859217  0.27934770189820346  0.27934759187846414  1.0000
  Te  Te4       1.0  0.2793476828901115  0.7206523577632796  0.7206523305358701  1.0000
  Te  Te5       1.0  0.2793476786206302  0.720652434404614  0.27934759190731856  1.0000
  Te  Te6       1.0  0.7206523364668036  0.2793476803744547  0.7206522753727284  1.0000
