data_image0
_chemical_formula_structural       Sb2YN6
_chemical_formula_sum              "Sb2 Y1 N6"
_cell_length_a       10.430787509533532
_cell_length_b       5.407678786877655
_cell_length_c       5.690753886400197
_cell_angle_alpha    43.85769033897653
_cell_angle_beta     64.54773797914332
_cell_angle_gamma    76.73781237070098

_space_group_name_H-M_alt    "P 1"
_space_group_IT_number       1

loop_
  _space_group_symop_operation_xyz
  'x, y, z'

loop_
  _atom_site_type_symbol
  _atom_site_label
  _atom_site_symmetry_multiplicity
  _atom_site_fract_x
  _atom_site_fract_y
  _atom_site_fract_z
  _atom_site_occupancy
  Sb  Sb1       1.0  0.4526983708765693  0.19343147615020628  0.07763035684978822  1.0000
  Sb  Sb2       1.0  0.5415451306842644  0.9807499632226369  0.6509411141538269  1.0000
  Y   Y1        1.0  0.20896839796204245  0.6837864266169091  0.06479638972179329  1.0000
  N   N1        1.0  0.23109954511414965  0.3184593578458836  0.6504484356106688  1.0000
  N   N2        1.0  0.9581156178599599  0.6146208907180077  0.28731103327593305  1.0000
  N   N3        1.0  0.3332959291605095  0.19396684512893492  0.7784779224357135  1.0000
  N   N4        1.0  0.25131545882674067  0.7851371825540723  0.5754903644624088  1.0000
  N   N5        1.0  0.18274768755426044  0.6355888212837231  0.5502320331563093  1.0000
  N   N6        1.0  0.840213698862264  0.5942517375568229  0.3646730465498108  1.0000
