data_image0
_chemical_formula_structural       Sb2YSe6
_chemical_formula_sum              "Sb2 Y1 Se6"
_cell_length_a       6.80837755745385
_cell_length_b       6.808377565495979
_cell_length_c       6.8083774363512815
_cell_angle_alpha    59.999999198712295
_cell_angle_beta     59.99999850420066
_cell_angle_gamma    59.99999932059899

_space_group_name_H-M_alt    "P 1"
_space_group_IT_number       1

loop_
  _space_group_symop_operation_xyz
  'x, y, z'

loop_
  _atom_site_type_symbol
  _atom_site_label
  _atom_site_symmetry_multiplicity
  _atom_site_fract_x
  _atom_site_fract_y
  _atom_site_fract_z
  _atom_site_occupancy
  Sb  Sb1       1.0  0.24999963567683547  0.2499995458161094  0.2500000782841001  1.0000
  Sb  Sb2       1.0  0.7500002132406477  0.749999689792654  0.7499998824974626  1.0000
  Y   Y1        1.0  4.764079456295376e-08  8.094956433649597e-08  0.9999999033916868  1.0000
  Se  Se1       1.0  0.27585759038130214  0.2758580254234194  0.7241421970599868  1.0000
  Se  Se2       1.0  0.7241423303526409  0.7241420988316656  0.27585779168761687  1.0000
  Se  Se3       1.0  0.7241425094981994  0.2758575827163855  0.2758578717952783  1.0000
  Se  Se4       1.0  0.2758577803670549  0.7241423652485367  0.72414209837702  1.0000
  Se  Se5       1.0  0.27585763142166186  0.7241426927770159  0.27585791224555933  1.0000
  Se  Se6       1.0  0.7241422421414911  0.2758579189743294  0.7241422573158993  1.0000
