data_image0
_chemical_formula_structural       Sb2ZnS6
_chemical_formula_sum              "Sb2 Zn1 S6"
_cell_length_a       6.208539547057347
_cell_length_b       6.208539564139707
_cell_length_c       6.208539843027837
_cell_angle_alpha    60.00000022794133
_cell_angle_beta     59.99999945749301
_cell_angle_gamma    60.00000040551357

_space_group_name_H-M_alt    "P 1"
_space_group_IT_number       1

loop_
  _space_group_symop_operation_xyz
  'x, y, z'

loop_
  _atom_site_type_symbol
  _atom_site_label
  _atom_site_symmetry_multiplicity
  _atom_site_fract_x
  _atom_site_fract_y
  _atom_site_fract_z
  _atom_site_occupancy
  Sb  Sb1       1.0  0.2499999911581082  0.25000021232223996  0.24999976307905983  1.0000
  Sb  Sb2       1.0  0.7499990010940402  0.7500002621579278  0.7500005008003879  1.0000
  Zn  Zn1       1.0  3.678460711647408e-08  0.9999999566010871  2.2635368747309914e-08  1.0000
  S   S1        1.0  0.26483662777571854  0.2648361248487185  0.7351636576932182  1.0000
  S   S2        1.0  0.7351636523369613  0.735163655248841  0.26483630944726894  1.0000
  S   S3        1.0  0.7351636949350188  0.2648363794409598  0.26483633449336413  1.0000
  S   S4        1.0  0.26483667527600135  0.7351634874544286  0.7351636698324451  1.0000
  S   S5        1.0  0.2648366653284069  0.7351635472259523  0.26483612768964643  1.0000
  S   S6        1.0  0.7351636450093234  0.26483637095905666  0.7351636167757106  1.0000
