data_image0
_chemical_formula_structural       Sb2ZnO6
_chemical_formula_sum              "Sb2 Zn1 O6"
_cell_length_a       5.349712449620185
_cell_length_b       5.34971246336384
_cell_length_c       5.349712442180793
_cell_angle_alpha    60.00000003245611
_cell_angle_beta     59.99999984351503
_cell_angle_gamma    60.00000020008658

_space_group_name_H-M_alt    "P 1"
_space_group_IT_number       1

loop_
  _space_group_symop_operation_xyz
  'x, y, z'

loop_
  _atom_site_type_symbol
  _atom_site_label
  _atom_site_symmetry_multiplicity
  _atom_site_fract_x
  _atom_site_fract_y
  _atom_site_fract_z
  _atom_site_occupancy
  Sb  Sb1       1.0  0.250000038155172  0.24999999446548837  0.24999998852489522  1.0000
  Sb  Sb2       1.0  0.7499999886441081  0.7499999788177333  0.7500000513366086  1.0000
  Zn  Zn1       1.0  1.042184488730106e-08  0.9999999816850736  3.946246834854484e-08  1.0000
  O   O1        1.0  0.25806090963370204  0.258060915350663  0.7419390958594003  1.0000
  O   O2        1.0  0.7419390738434876  0.7419391037198744  0.25806089603800714  1.0000
  O   O3        1.0  0.7419390719298219  0.25806093237984834  0.25806089863722065  1.0000
  O   O4        1.0  0.25806092070483067  0.7419390592182996  0.7419390781172784  1.0000
  O   O5        1.0  0.2580609425650786  0.741939093729014  0.258060881155914  1.0000
  O   O6        1.0  0.741939041413371  0.25806093678835224  0.741939078597818  1.0000
