data_image0
_chemical_formula_structural       Sb2ZnTe6
_chemical_formula_sum              "Sb2 Zn1 Te6"
_cell_length_a       7.120760337815551
_cell_length_b       7.120759337830537
_cell_length_c       7.120760338494712
_cell_angle_alpha    59.99999084014859
_cell_angle_beta     59.999996277957585
_cell_angle_gamma    59.999992510117934

_space_group_name_H-M_alt    "P 1"
_space_group_IT_number       1

loop_
  _space_group_symop_operation_xyz
  'x, y, z'

loop_
  _atom_site_type_symbol
  _atom_site_label
  _atom_site_symmetry_multiplicity
  _atom_site_fract_x
  _atom_site_fract_y
  _atom_site_fract_z
  _atom_site_occupancy
  Sb  Sb1       1.0  0.24999781358022866  0.25000153058629504  0.2499992072536182  1.0000
  Sb  Sb2       1.0  0.7499987287001256  0.7499981023344255  0.7499999105154221  1.0000
  Zn  Zn1       1.0  0.9999993890850656  0.9999999208816922  0.9999992889496422  1.0000
  Te  Te1       1.0  0.26581136495719704  0.26581368172160025  0.7341871064438993  1.0000
  Te  Te2       1.0  0.7341890245272262  0.7341865910256721  0.2658119319044415  1.0000
  Te  Te3       1.0  0.734188197316131  0.26581274460263415  0.26581287611443916  1.0000
  Te  Te4       1.0  0.2658140793564959  0.734186979475983  0.7341887468400989  1.0000
  Te  Te5       1.0  0.26581350410277504  0.7341868265705459  0.26581255821226124  1.0000
  Te  Te6       1.0  0.7341879031684672  0.2658136181730397  0.7341883905949124  1.0000
