data_image0
_chemical_formula_structural       Sb2ZnSe6
_chemical_formula_sum              "Sb2 Zn1 Se6"
_cell_length_a       6.48948656831097
_cell_length_b       6.489486445448055
_cell_length_c       6.48948650084783
_cell_angle_alpha    60.00000110360419
_cell_angle_beta     60.00000139824974
_cell_angle_gamma    60.00000062866579

_space_group_name_H-M_alt    "P 1"
_space_group_IT_number       1

loop_
  _space_group_symop_operation_xyz
  'x, y, z'

loop_
  _atom_site_type_symbol
  _atom_site_label
  _atom_site_symmetry_multiplicity
  _atom_site_fract_x
  _atom_site_fract_y
  _atom_site_fract_z
  _atom_site_occupancy
  Sb  Sb1       1.0  0.24999989099646264  0.2499997863352216  0.25000020440343756  1.0000
  Sb  Sb2       1.0  0.7500002164341986  0.7499998798936922  0.7499997204606742  1.0000
  Zn  Zn1       1.0  6.633242749569985e-09  0.9999999320580834  6.30143697063002e-08  1.0000
  Se  Se1       1.0  0.26763844819266497  0.26763851603879035  0.7323614887887023  1.0000
  Se  Se2       1.0  0.7323615423687136  0.7323616182344439  0.2676385378596095  1.0000
  Se  Se3       1.0  0.7323616045739717  0.2676384745078235  0.2676384485602331  1.0000
  Se  Se4       1.0  0.2676384082923877  0.7323616408926551  0.7323614977833135  1.0000
  Se  Se5       1.0  0.2676382939182278  0.7323616222315085  0.2676385589281995  1.0000
  Se  Se6       1.0  0.7323615937466975  0.26763852713992886  0.7323614730953876  1.0000
