data_image0
_chemical_formula_structural       Sc2AsS6
_chemical_formula_sum              "Sc2 As1 S6"
_cell_length_a       6.2354226706144855
_cell_length_b       6.235422791580313
_cell_length_c       6.235422801058078
_cell_angle_alpha    60.00000077039819
_cell_angle_beta     59.99999885259204
_cell_angle_gamma    59.999999178584126

_space_group_name_H-M_alt    "P 1"
_space_group_IT_number       1

loop_
  _space_group_symop_operation_xyz
  'x, y, z'

loop_
  _atom_site_type_symbol
  _atom_site_label
  _atom_site_symmetry_multiplicity
  _atom_site_fract_x
  _atom_site_fract_y
  _atom_site_fract_z
  _atom_site_occupancy
  Sc  Sc1       1.0  0.24999998251218442  0.2500004088772906  0.24999982736296  1.0000
  Sc  Sc2       1.0  0.7500000632372094  0.7499996906486434  0.7500002403423708  1.0000
  As  As1       1.0  1.6124169302396513e-08  0.9999999960716539  0.9999999890908668  1.0000
  S   S1        1.0  0.2596986877474147  0.25969888339444236  0.7403012021464077  1.0000
  S   S2        1.0  0.7403011811977834  0.7403012298807025  0.2596987418076335  1.0000
  S   S3        1.0  0.740301205859032  0.2596988989993624  0.2596986472889736  1.0000
  S   S4        1.0  0.25969878899532406  0.7403010532136016  0.7403013992398236  1.0000
  S   S5        1.0  0.2596988866628567  0.7403010223810854  0.2596986840777048  1.0000
  S   S6        1.0  0.7403012063968445  0.25969882965905655  0.7403012447580339  1.0000
