data_image0
_chemical_formula_structural       Sc2AsO6
_chemical_formula_sum              "Sc2 As1 O6"
_cell_length_a       5.027412596185912
_cell_length_b       5.027412519350279
_cell_length_c       5.027412952884508
_cell_angle_alpha    60.000000209281765
_cell_angle_beta     59.99999950991686
_cell_angle_gamma    60.000000340536005

_space_group_name_H-M_alt    "P 1"
_space_group_IT_number       1

loop_
  _space_group_symop_operation_xyz
  'x, y, z'

loop_
  _atom_site_type_symbol
  _atom_site_label
  _atom_site_symmetry_multiplicity
  _atom_site_fract_x
  _atom_site_fract_y
  _atom_site_fract_z
  _atom_site_occupancy
  Sc  Sc1       1.0  0.2499999175014344  0.2500000382262975  0.24999995257352947  1.0000
  Sc  Sc2       1.0  0.750000039259141  0.7500000123612869  0.7499999266186372  1.0000
  As  As1       1.0  0.9999999875645867  9.74453452114439e-09  5.323628608898486e-09  1.0000
  O   O1        1.0  0.2529478133669434  0.2529479516134096  0.7470521163936906  1.0000
  O   O2        1.0  0.7470521432782128  0.7470520648683079  0.2529479131784571  1.0000
  O   O3        1.0  0.7470521062496694  0.25294793334966886  0.2529478636564633  1.0000
  O   O4        1.0  0.25294790621552204  0.7470520465900455  0.7470521900912767  1.0000
  O   O5        1.0  0.2529479344068996  0.7470519549503892  0.2529479631678822  1.0000
  O   O6        1.0  0.7470521087527551  0.25294798113892125  0.7470521389288144  1.0000
