data_image0
_chemical_formula_structural       Sc2BiO6
_chemical_formula_sum              "Sc2 Bi1 O6"
_cell_length_a       5.475035985579255
_cell_length_b       5.475036143428738
_cell_length_c       5.475035973654656
_cell_angle_alpha    59.99999993395192
_cell_angle_beta     59.99999981087887
_cell_angle_gamma    60.000000948998064

_space_group_name_H-M_alt    "P 1"
_space_group_IT_number       1

loop_
  _space_group_symop_operation_xyz
  'x, y, z'

loop_
  _atom_site_type_symbol
  _atom_site_label
  _atom_site_symmetry_multiplicity
  _atom_site_fract_x
  _atom_site_fract_y
  _atom_site_fract_z
  _atom_site_occupancy
  Sc  Sc1       1.0  0.2500000105753493  0.2500000967990846  0.24999985301237898  1.0000
  Sc  Sc2       1.0  0.749999890150865  0.7499998989288722  0.7500001433650537  1.0000
  Bi  Bi1       1.0  0.9999999792715701  1.7895697177885753e-08  0.9999999959369502  1.0000
  O   O1        1.0  0.26659164705492594  0.2665916260882928  0.7334083527290564  1.0000
  O   O2        1.0  0.7334083644263126  0.7334084233267564  0.26659156508026133  1.0000
  O   O3        1.0  0.7334083956384954  0.26659168974797276  0.2665916053300605  1.0000
  O   O4        1.0  0.26659167930737176  0.733408238871119  0.7334084708244357  1.0000
  O   O5        1.0  0.26659167358408675  0.7334084052494999  0.26659160019661277  1.0000
  O   O6        1.0  0.7334083572841569  0.2665915860045323  0.7334084301497842  1.0000
