data_image0
_chemical_formula_structural       Sc2BSe6
_chemical_formula_sum              "Sc2 B1 Se6"
_cell_length_a       6.355892690709341
_cell_length_b       6.355892467803802
_cell_length_c       6.355892445821755
_cell_angle_alpha    60.00000014719554
_cell_angle_beta     60.00000024018734
_cell_angle_gamma    59.99999941603035

_space_group_name_H-M_alt    "P 1"
_space_group_IT_number       1

loop_
  _space_group_symop_operation_xyz
  'x, y, z'

loop_
  _atom_site_type_symbol
  _atom_site_label
  _atom_site_symmetry_multiplicity
  _atom_site_fract_x
  _atom_site_fract_y
  _atom_site_fract_z
  _atom_site_occupancy
  Sc  Sc1       1.0  0.24999991152354695  0.2500000513901546  0.2500000303529344  1.0000
  Sc  Sc2       1.0  0.7500000451640633  0.7499999036677456  0.7500001365339211  1.0000
  B   B1        1.0  0.9999999671695657  3.853887954314221e-08  0.9999999530921687  1.0000
  Se  Se1       1.0  0.2410766783067999  0.24107676519310248  0.7589232786559934  1.0000
  Se  Se2       1.0  0.7589233553073045  0.7589232206959006  0.2410766612843136  1.0000
  Se  Se3       1.0  0.7589232620673412  0.24107671522127183  0.24107671031231354  1.0000
  Se  Se4       1.0  0.24107673392733092  0.7589232745216193  0.7589232748309429  1.0000
  Se  Se5       1.0  0.24107670587612007  0.758923254962615  0.24107672271362632  1.0000
  Se  Se6       1.0  0.7589233475930129  0.24107676946526782  0.7589232336566784  1.0000
