data_image0
_chemical_formula_structural       Sc2BO6
_chemical_formula_sum              "Sc2 B1 O6"
_cell_length_a       4.6664343131816866
_cell_length_b       4.666433860637129
_cell_length_c       4.666434046476988
_cell_angle_alpha    60.00000150460402
_cell_angle_beta     60.00000284036947
_cell_angle_gamma    60.0000023205734

_space_group_name_H-M_alt    "P 1"
_space_group_IT_number       1

loop_
  _space_group_symop_operation_xyz
  'x, y, z'

loop_
  _atom_site_type_symbol
  _atom_site_label
  _atom_site_symmetry_multiplicity
  _atom_site_fract_x
  _atom_site_fract_y
  _atom_site_fract_z
  _atom_site_occupancy
  Sc  Sc1       1.0  0.25000005350544724  0.2500000286500458  0.249999913923339  1.0000
  Sc  Sc2       1.0  0.7500000006014198  0.7499999940896855  0.7499998740865929  1.0000
  B   B1        1.0  3.2194012252752885e-08  0.9999999553820678  0.9999999419230403  1.0000
  O   O1        1.0  0.23971012910178263  0.239709971748894  0.7602900000218124  1.0000
  O   O2        1.0  0.7602897947581853  0.7602900037483243  0.2397101081729317  1.0000
  O   O3        1.0  0.7602899242902427  0.23971003015051667  0.23971014081451422  1.0000
  O   O4        1.0  0.23971002726508245  0.7602898771075133  0.7602899897951081  1.0000
  O   O5        1.0  0.2397100672020614  0.7602899279365861  0.23971013640343727  1.0000
  O   O6        1.0  0.7602899555599008  0.2397101814144308  0.760289906844549  1.0000
