data_image0
_chemical_formula_structural       Sc2BiS6
_chemical_formula_sum              "Sc2 Bi1 S6"
_cell_length_a       6.567076157754899
_cell_length_b       6.567076283684533
_cell_length_c       6.567076346955513
_cell_angle_alpha    59.99999916054107
_cell_angle_beta     59.99999930590312
_cell_angle_gamma    60.00000127605239

_space_group_name_H-M_alt    "P 1"
_space_group_IT_number       1

loop_
  _space_group_symop_operation_xyz
  'x, y, z'

loop_
  _atom_site_type_symbol
  _atom_site_label
  _atom_site_symmetry_multiplicity
  _atom_site_fract_x
  _atom_site_fract_y
  _atom_site_fract_z
  _atom_site_occupancy
  Sc  Sc1       1.0  0.24999984254248836  0.2500002446812521  0.24999995688665672  1.0000
  Sc  Sc2       1.0  0.7499999196930628  0.7499999059938066  0.7500000155602635  1.0000
  Bi  Bi1       1.0  0.9999999874784576  1.1189863952104058e-08  1.7416063152268746e-08  1.0000
  S   S1        1.0  0.2660427489022339  0.2660426016262453  0.7339573322867109  1.0000
  S   S2        1.0  0.7339573779847471  0.7339572674372347  0.2660426656411818  1.0000
  S   S3        1.0  0.7339573187081911  0.26604272865622297  0.2660427032138898  1.0000
  S   S4        1.0  0.26604279634896805  0.7339572075464419  0.7339573431967028  1.0000
  S   S5        1.0  0.26604268283571575  0.733957264850899  0.26604273811359963  1.0000
  S   S6        1.0  0.7339573064910196  0.26604277952045247  0.733957233326741  1.0000
