data_image0
_chemical_formula_structural       Sc2BTe6
_chemical_formula_sum              "Sc2 B1 Te6"
_cell_length_a       6.912184097861069
_cell_length_b       6.912184119897685
_cell_length_c       6.912184097566632
_cell_angle_alpha    59.99999872781156
_cell_angle_beta     60.00000100035678
_cell_angle_gamma    60.00000090179037

_space_group_name_H-M_alt    "P 1"
_space_group_IT_number       1

loop_
  _space_group_symop_operation_xyz
  'x, y, z'

loop_
  _atom_site_type_symbol
  _atom_site_label
  _atom_site_symmetry_multiplicity
  _atom_site_fract_x
  _atom_site_fract_y
  _atom_site_fract_z
  _atom_site_occupancy
  Sc  Sc1       1.0  0.2500000107591999  0.2499999602562547  0.2499999618681761  1.0000
  Sc  Sc2       1.0  0.7499999781431188  0.7500000331490454  0.7500000838708704  1.0000
  B   B1        1.0  0.9999999770005437  8.859318698143657e-09  5.6233478330004096e-09  1.0000
  Te  Te1       1.0  0.2403585480423385  0.24035851299309774  0.7596414821643348  1.0000
  Te  Te2       1.0  0.7596414705415527  0.7596414715528844  0.24035851988900786  1.0000
  Te  Te3       1.0  0.7596414445866889  0.240358559458877  0.24035854747346885  1.0000
  Te  Te4       1.0  0.2403585316259652  0.7596414569806536  0.7596414294375824  1.0000
  Te  Te5       1.0  0.24035856400933708  0.7596414794620058  0.24035850974782136  1.0000
  Te  Te6       1.0  0.7596414749075219  0.2403585192588871  0.7596414663712581  1.0000
