data_image0
_chemical_formula_structural       Sc2BS6
_chemical_formula_sum              "Sc2 B1 S6"
_cell_length_a       5.982704927312924
_cell_length_b       5.982705156443432
_cell_length_c       5.982705056111606
_cell_angle_alpha    60.00000001814493
_cell_angle_beta     60.00000088262795
_cell_angle_gamma    60.00000051406155

_space_group_name_H-M_alt    "P 1"
_space_group_IT_number       1

loop_
  _space_group_symop_operation_xyz
  'x, y, z'

loop_
  _atom_site_type_symbol
  _atom_site_label
  _atom_site_symmetry_multiplicity
  _atom_site_fract_x
  _atom_site_fract_y
  _atom_site_fract_z
  _atom_site_occupancy
  Sc  Sc1       1.0  0.2500001123743108  0.24999987858533165  0.24999999347255694  1.0000
  Sc  Sc2       1.0  0.7499998755764316  0.7500000881744385  0.7500001554731321  1.0000
  B   B1        1.0  1.6902266739606002e-08  2.4565707417636413e-08  0.9999999709085895  1.0000
  S   S1        1.0  0.23688560788901356  0.23688555362533675  0.7631143950434157  1.0000
  S   S2        1.0  0.7631143738801225  0.7631145011615545  0.2368854672712636  1.0000
  S   S3        1.0  0.7631144393117658  0.23688556949758816  0.23688553782591265  1.0000
  S   S4        1.0  0.23688562607570224  0.7631143849793297  0.7631144381381254  1.0000
  S   S5        1.0  0.236885589701724  0.7631144282002411  0.236885521460127  1.0000
  S   S6        1.0  0.7631143577945688  0.23688560202094144  0.7631144939636965  1.0000
