data_image0
_chemical_formula_structural       Sc2CoSe6
_chemical_formula_sum              "Sc2 Co1 Se6"
_cell_length_a       6.3889830892376915
_cell_length_b       6.388983271651835
_cell_length_c       6.388982989702091
_cell_angle_alpha    60.00000085068079
_cell_angle_beta     60.000001277108716
_cell_angle_gamma    59.999998731081526

_space_group_name_H-M_alt    "P 1"
_space_group_IT_number       1

loop_
  _space_group_symop_operation_xyz
  'x, y, z'

loop_
  _atom_site_type_symbol
  _atom_site_label
  _atom_site_symmetry_multiplicity
  _atom_site_fract_x
  _atom_site_fract_y
  _atom_site_fract_z
  _atom_site_occupancy
  Sc  Sc1       1.0  0.2499999856476288  0.24999998402585674  0.2500000600829343  1.0000
  Sc  Sc2       1.0  0.7499998839133872  0.7500003067158462  0.7500001458776275  1.0000
  Co  Co1       1.0  9.675640522842192e-09  0.999999998083037  0.9999999084697784  1.0000
  Se  Se1       1.0  0.25293686807360144  0.25293684212559414  0.7470630795005799  1.0000
  Se  Se2       1.0  0.7470630687095866  0.7470632089956554  0.25293676501354334  1.0000
  Se  Se3       1.0  0.7470632625877359  0.25293677753986177  0.25293684450319837  1.0000
  Se  Se4       1.0  0.25293681261452894  0.7470630914698351  0.7470632582015097  1.0000
  Se  Se5       1.0  0.25293685182645226  0.7470631576471645  0.25293676079909955  1.0000
  Se  Se6       1.0  0.7470632355353918  0.25293664235184254  0.7470631684210944  1.0000
