data_image0
_chemical_formula_structural       Sc2CrO6
_chemical_formula_sum              "Sc2 Cr1 O6"
_cell_length_a       5.030645147346102
_cell_length_b       5.030645224965632
_cell_length_c       5.030645172916364
_cell_angle_alpha    60.00000031657917
_cell_angle_beta     60.00000236473525
_cell_angle_gamma    59.99999967803853

_space_group_name_H-M_alt    "P 1"
_space_group_IT_number       1

loop_
  _space_group_symop_operation_xyz
  'x, y, z'

loop_
  _atom_site_type_symbol
  _atom_site_label
  _atom_site_symmetry_multiplicity
  _atom_site_fract_x
  _atom_site_fract_y
  _atom_site_fract_z
  _atom_site_occupancy
  Sc  Sc1       1.0  0.24999967795721545  0.25000003210245475  0.25000009674019436  1.0000
  Sc  Sc2       1.0  0.7499999052190468  0.7499999818826492  0.7499998879054577  1.0000
  Cr  Cr1       1.0  4.534971505570408e-08  2.9214817704208454e-08  0.9999999368761187  1.0000
  O   O1        1.0  0.25333584225711364  0.25333573366364887  0.7466642102966928  1.0000
  O   O2        1.0  0.7466642699596019  0.7466642218918086  0.2533359008261877  1.0000
  O   O3        1.0  0.7466642150408633  0.25333578090510633  0.2533357415575532  1.0000
  O   O4        1.0  0.25333588892138514  0.7466642062997388  0.746664220708521  1.0000
  O   O5        1.0  0.2533357735267639  0.7466643012440656  0.25333576615520603  1.0000
  O   O6        1.0  0.7466643975331911  0.2533356981336191  0.746664204183195  1.0000
