data_image0
_chemical_formula_structural       Sc2CoO6
_chemical_formula_sum              "Sc2 Co1 O6"
_cell_length_a       4.934829353329821
_cell_length_b       4.934828990071359
_cell_length_c       4.934828995419143
_cell_angle_alpha    59.9999991081713
_cell_angle_beta     59.99999961671302
_cell_angle_gamma    59.99999794287025

_space_group_name_H-M_alt    "P 1"
_space_group_IT_number       1

loop_
  _space_group_symop_operation_xyz
  'x, y, z'

loop_
  _atom_site_type_symbol
  _atom_site_label
  _atom_site_symmetry_multiplicity
  _atom_site_fract_x
  _atom_site_fract_y
  _atom_site_fract_z
  _atom_site_occupancy
  Sc  Sc1       1.0  0.25000006369651967  0.250000071631992  0.24999994821600938  1.0000
  Sc  Sc2       1.0  0.7500003188677179  0.749999894738799  0.7499998618074423  1.0000
  Co  Co1       1.0  5.247136522693175e-08  0.9999999478813897  0.9999999876651458  1.0000
  O   O1        1.0  0.2533681043231075  0.25336828932252115  0.7466318113233213  1.0000
  O   O2        1.0  0.7466317873568982  0.7466317738399763  0.2533681896671646  1.0000
  O   O3        1.0  0.7466316391607097  0.2533682847964967  0.2533682475141454  1.0000
  O   O4        1.0  0.25336817584600896  0.7466317907751939  0.746631805872516  1.0000
  O   O5        1.0  0.25336808137115024  0.7466317506659019  0.2533683999501071  1.0000
  O   O6        1.0  0.7466317784506006  0.25336818344098966  0.7466317564745796  1.0000
