data_image0
_chemical_formula_structural       Sc2CrTe6
_chemical_formula_sum              "Sc2 Cr1 Te6"
_cell_length_a       7.018397150368445
_cell_length_b       7.018397222429555
_cell_length_c       7.01839714925205
_cell_angle_alpha    59.99999982000571
_cell_angle_beta     59.99999984960538
_cell_angle_gamma    59.9999989771445

_space_group_name_H-M_alt    "P 1"
_space_group_IT_number       1

loop_
  _space_group_symop_operation_xyz
  'x, y, z'

loop_
  _atom_site_type_symbol
  _atom_site_label
  _atom_site_symmetry_multiplicity
  _atom_site_fract_x
  _atom_site_fract_y
  _atom_site_fract_z
  _atom_site_occupancy
  Sc  Sc1       1.0  0.24999997871822283  0.249999935407883  0.25000004384164537  1.0000
  Sc  Sc2       1.0  0.7499999831310733  0.7500000749612322  0.7499999408969258  1.0000
  Cr  Cr1       1.0  1.2480501611725301e-08  6.980196695731319e-09  1.4491705552984224e-08  1.0000
  Te  Te1       1.0  0.25610345842493026  0.25610342910518646  0.7438965678477333  1.0000
  Te  Te2       1.0  0.7438965158221896  0.7438965638134359  0.25610350490677736  1.0000
  Te  Te3       1.0  0.7438965917053247  0.2561034070035879  0.2561034105663426  1.0000
  Te  Te4       1.0  0.2561034694576712  0.7438965719546399  0.7438965501946095  1.0000
  Te  Te5       1.0  0.25610341341244874  0.7438965745702971  0.2561034259668234  1.0000
  Te  Te6       1.0  0.7438965709884403  0.25610343230871957  0.7438965463913471  1.0000
