data_image0
_chemical_formula_structural       Sc2CO6
_chemical_formula_sum              "Sc2 C1 O6"
_cell_length_a       4.662170600512435
_cell_length_b       4.662170913085846
_cell_length_c       4.662170318636961
_cell_angle_alpha    60.000001534728476
_cell_angle_beta     60.00000071497415
_cell_angle_gamma    60.00000306766057

_space_group_name_H-M_alt    "P 1"
_space_group_IT_number       1

loop_
  _space_group_symop_operation_xyz
  'x, y, z'

loop_
  _atom_site_type_symbol
  _atom_site_label
  _atom_site_symmetry_multiplicity
  _atom_site_fract_x
  _atom_site_fract_y
  _atom_site_fract_z
  _atom_site_occupancy
  Sc  Sc1       1.0  0.24999997177398048  0.25000003226660944  0.2500000163676972  1.0000
  Sc  Sc2       1.0  0.7500000510192555  0.7499999943474561  0.7499999595532129  1.0000
  C   C1        1.0  4.3379485401210106e-08  6.304761837902436e-08  0.9999998674242664  1.0000
  O   O1        1.0  0.23658063506233176  0.23658059699371917  0.7634194222128973  1.0000
  O   O2        1.0  0.7634193162315687  0.7634193691997131  0.23658064755200828  1.0000
  O   O3        1.0  0.7634193808740085  0.23658062851944492  0.23658057867261847  1.0000
  O   O4        1.0  0.23658063363910822  0.7634193560628766  0.7634194245491479  1.0000
  O   O5        1.0  0.23658061047944692  0.7634193642751255  0.2365805925704804  1.0000
  O   O6        1.0  0.7634193635558718  0.2365805782754507  0.7634194948045344  1.0000
