data_image0
_chemical_formula_structural       Sc2CoTe6
_chemical_formula_sum              "Sc2 Co1 Te6"
_cell_length_a       6.92705123649876
_cell_length_b       6.92705109771559
_cell_length_c       6.927051148358978
_cell_angle_alpha    60.00000059925759
_cell_angle_beta     59.99999987809744
_cell_angle_gamma    59.9999996005086

_space_group_name_H-M_alt    "P 1"
_space_group_IT_number       1

loop_
  _space_group_symop_operation_xyz
  'x, y, z'

loop_
  _atom_site_type_symbol
  _atom_site_label
  _atom_site_symmetry_multiplicity
  _atom_site_fract_x
  _atom_site_fract_y
  _atom_site_fract_z
  _atom_site_occupancy
  Sc  Sc1       1.0  0.2500000547673854  0.250000012106189  0.24999994775643694  1.0000
  Sc  Sc2       1.0  0.7499999073558716  0.7500001070410066  0.749999913283383  1.0000
  Co  Co1       1.0  0.9999999965823442  0.9999999752471468  4.007033755213901e-08  1.0000
  Te  Te1       1.0  0.2499679804844274  0.24996786040645344  0.7500320789113577  1.0000
  Te  Te2       1.0  0.7500320954822246  0.7500320872388293  0.249967942326751  1.0000
  Te  Te3       1.0  0.7500320609647445  0.24996786084423042  0.24996799348603646  1.0000
  Te  Te4       1.0  0.24996797992966818  0.7500320319911622  0.7500320698059053  1.0000
  Te  Te5       1.0  0.24996791150190487  0.7500321004559394  0.24996792765664316  1.0000
  Te  Te6       1.0  0.7500320117269875  0.24996796034524543  0.750032084500081  1.0000
