data_image0
_chemical_formula_structural       Sc2CrSe6
_chemical_formula_sum              "Sc2 Cr1 Se6"
_cell_length_a       6.421186618052422
_cell_length_b       6.421186731329796
_cell_length_c       6.421186730811617
_cell_angle_alpha    59.99999925128618
_cell_angle_beta     59.99999922002034
_cell_angle_gamma    59.99999881532202

_space_group_name_H-M_alt    "P 1"
_space_group_IT_number       1

loop_
  _space_group_symop_operation_xyz
  'x, y, z'

loop_
  _atom_site_type_symbol
  _atom_site_label
  _atom_site_symmetry_multiplicity
  _atom_site_fract_x
  _atom_site_fract_y
  _atom_site_fract_z
  _atom_site_occupancy
  Sc  Sc1       1.0  0.24999998628286593  0.250000054178851  0.249999967787417  1.0000
  Sc  Sc2       1.0  0.7500000147071579  0.7499999679868796  0.7499999259874728  1.0000
  Cr  Cr1       1.0  0.9999999982017334  9.237910790577426e-17  0.9999999915550661  1.0000
  Se  Se1       1.0  0.2570572098340195  0.25705717748828616  0.7429428074806602  1.0000
  Se  Se2       1.0  0.7429427867242375  0.7429428256039459  0.2570572506666258  1.0000
  Se  Se3       1.0  0.7429428091210344  0.2570571988159419  0.2570572141502517  1.0000
  Se  Se4       1.0  0.2570572135572722  0.7429428176277382  0.7429428149172183  1.0000
  Se  Se5       1.0  0.2570571873911099  0.7429427641804314  0.2570571935845445  1.0000
  Se  Se6       1.0  0.74294278729813  0.25705719122805787  0.7429428479467525  1.0000
