data_image0
_chemical_formula_structural       Sc2CS6
_chemical_formula_sum              "Sc2 C1 S6"
_cell_length_a       5.9691575418366885
_cell_length_b       5.9691577648245975
_cell_length_c       5.969157538126058
_cell_angle_alpha    60.00000055685679
_cell_angle_beta     60.000000539532856
_cell_angle_gamma    60.00000068548423

_space_group_name_H-M_alt    "P 1"
_space_group_IT_number       1

loop_
  _space_group_symop_operation_xyz
  'x, y, z'

loop_
  _atom_site_type_symbol
  _atom_site_label
  _atom_site_symmetry_multiplicity
  _atom_site_fract_x
  _atom_site_fract_y
  _atom_site_fract_z
  _atom_site_occupancy
  Sc  Sc1       1.0  0.24999990967934563  0.2500000234060768  0.25000002322158077  1.0000
  Sc  Sc2       1.0  0.7499999581440538  0.7499999922502703  0.7500000594315682  1.0000
  C   C1        1.0  0.9999996189914668  6.360544176234517e-08  1.2184542163239322e-07  1.0000
  S   S1        1.0  0.23438199265253376  0.23438200431081177  0.7656180216159008  1.0000
  S   S2        1.0  0.7656181992757759  0.7656181590742984  0.23438179831595943  1.0000
  S   S3        1.0  0.7656181555532445  0.23438186970868055  0.23438184318867308  1.0000
  S   S4        1.0  0.23438197779872136  0.7656180515654011  0.765618001441003  1.0000
  S   S5        1.0  0.2343820025407712  0.7656180096283273  0.2343819788655962  1.0000
  S   S6        1.0  0.7656181558818999  0.23438184804031148  0.7656181530759747  1.0000
