data_image0
_chemical_formula_structural       Sc2CrS6
_chemical_formula_sum              "Sc2 Cr1 S6"
_cell_length_a       6.078379754525506
_cell_length_b       6.078379724108226
_cell_length_c       6.078379660361885
_cell_angle_alpha    60.00000012951666
_cell_angle_beta     59.99999998607082
_cell_angle_gamma    59.99999924747905

_space_group_name_H-M_alt    "P 1"
_space_group_IT_number       1

loop_
  _space_group_symop_operation_xyz
  'x, y, z'

loop_
  _atom_site_type_symbol
  _atom_site_label
  _atom_site_symmetry_multiplicity
  _atom_site_fract_x
  _atom_site_fract_y
  _atom_site_fract_z
  _atom_site_occupancy
  Sc  Sc1       1.0  0.24999997603966748  0.2500000050994436  0.24999986321995485  1.0000
  Sc  Sc2       1.0  0.7500000989392434  0.7499998903732905  0.7500002823635137  1.0000
  Cr  Cr1       1.0  4.0775719031531715e-08  2.014919943630936e-08  0.9999999711827159  1.0000
  S   S1        1.0  0.25765352742112496  0.25765357960184715  0.7423464252385559  1.0000
  S   S2        1.0  0.7423463696952084  0.7423464448257672  0.2576534585382618  1.0000
  S   S3        1.0  0.7423464834906863  0.2576536562907856  0.2576535428818065  1.0000
  S   S4        1.0  0.2576535257268189  0.7423463338831879  0.742346478005001  1.0000
  S   S5        1.0  0.257653586897051  0.7423465114265978  0.25765357790394455  1.0000
  S   S6        1.0  0.742346400482268  0.25765356135909506  0.742346394499168  1.0000
