data_image0
_chemical_formula_structural       Sc2FeS6
_chemical_formula_sum              "Sc2 Fe1 S6"
_cell_length_a       6.013215654971757
_cell_length_b       6.0132153399166075
_cell_length_c       6.013215850738766
_cell_angle_alpha    59.999998254424185
_cell_angle_beta     59.99999852654057
_cell_angle_gamma    59.99999878436232

_space_group_name_H-M_alt    "P 1"
_space_group_IT_number       1

loop_
  _space_group_symop_operation_xyz
  'x, y, z'

loop_
  _atom_site_type_symbol
  _atom_site_label
  _atom_site_symmetry_multiplicity
  _atom_site_fract_x
  _atom_site_fract_y
  _atom_site_fract_z
  _atom_site_occupancy
  Sc  Sc1       1.0  0.24999998435732523  0.24999995297819683  0.2500001397967103  1.0000
  Sc  Sc2       1.0  0.7499999945225436  0.7499998670816099  0.750000206671923  1.0000
  Fe  Fe1       1.0  4.4282724630132206e-08  0.9999999938897335  0.9999999376756754  1.0000
  S   S1        1.0  0.25301898587511606  0.25301901995300335  0.7469810265115514  1.0000
  S   S2        1.0  0.7469809401256277  0.7469810221131409  0.25301897097589476  1.0000
  S   S3        1.0  0.7469810095519896  0.25301909830700064  0.25301886991707107  1.0000
  S   S4        1.0  0.25301892552421706  0.7469810720747349  0.7469810039957281  1.0000
  S   S5        1.0  0.2530190508086123  0.7469808922493009  0.25301893615285015  1.0000
  S   S6        1.0  0.7469810689665244  0.25301905816284975  0.7469809204721972  1.0000
