data_image0
_chemical_formula_structural       Sc2FeTe6
_chemical_formula_sum              "Sc2 Fe1 Te6"
_cell_length_a       6.914573745888436
_cell_length_b       6.914573803414234
_cell_length_c       6.914573973924264
_cell_angle_alpha    59.99999941655519
_cell_angle_beta     59.999998951729424
_cell_angle_gamma    60.00000004773425

_space_group_name_H-M_alt    "P 1"
_space_group_IT_number       1

loop_
  _space_group_symop_operation_xyz
  'x, y, z'

loop_
  _atom_site_type_symbol
  _atom_site_label
  _atom_site_symmetry_multiplicity
  _atom_site_fract_x
  _atom_site_fract_y
  _atom_site_fract_z
  _atom_site_occupancy
  Sc  Sc1       1.0  0.2500000361109153  0.2499999574428139  0.25000000418196466  1.0000
  Sc  Sc2       1.0  0.7500000140715836  0.7499999697472701  0.7499999921661921  1.0000
  Fe  Fe1       1.0  1.9061187419864065e-08  0.9999999929149944  3.5952309301004486e-08  1.0000
  Te  Te1       1.0  0.24524121852845931  0.24524124371216524  0.7547587774990749  1.0000
  Te  Te2       1.0  0.7547587490825405  0.7547587808967473  0.24524124468849345  1.0000
  Te  Te3       1.0  0.7547587537469984  0.24524124879994585  0.24524120145172712  1.0000
  Te  Te4       1.0  0.245241232030873  0.7547587864364753  0.7547587658444717  1.0000
  Te  Te5       1.0  0.24524118685643886  0.7547587710069267  0.2452412317547814  1.0000
  Te  Te6       1.0  0.754758786456133  0.24524124651697995  0.7547587549689863  1.0000
