data_image0
_chemical_formula_structural       Sc2GeS6
_chemical_formula_sum              "Sc2 Ge1 S6"
_cell_length_a       6.273857145746179
_cell_length_b       6.273857044175432
_cell_length_c       6.273856973201263
_cell_angle_alpha    60.00000076250074
_cell_angle_beta     60.00000172075541
_cell_angle_gamma    60.000001007706906

_space_group_name_H-M_alt    "P 1"
_space_group_IT_number       1

loop_
  _space_group_symop_operation_xyz
  'x, y, z'

loop_
  _atom_site_type_symbol
  _atom_site_label
  _atom_site_symmetry_multiplicity
  _atom_site_fract_x
  _atom_site_fract_y
  _atom_site_fract_z
  _atom_site_occupancy
  Sc  Sc1       1.0  0.24999986884309994  0.24999990378910936  0.2500001356185834  1.0000
  Sc  Sc2       1.0  0.7499999723921953  0.7500000217576247  0.7500000830743999  1.0000
  Ge  Ge1       1.0  0.9999999929729531  0.9999999824307381  4.2582555297989134e-08  1.0000
  S   S1        1.0  0.2562800062733971  0.2562799083343119  0.7437200652295838  1.0000
  S   S2        1.0  0.7437200408166257  0.7437201284844155  0.2562798785441844  1.0000
  S   S3        1.0  0.743720072574449  0.2562800265412387  0.25627984390858555  1.0000
  S   S4        1.0  0.25627988894047143  0.7437200903152369  0.7437200101867409  1.0000
  S   S5        1.0  0.25627994918340147  0.7437200467163876  0.25627996409164083  1.0000
  S   S6        1.0  0.743720187070224  0.25627988273462876  0.7437199903780978  1.0000
