data_image0
_chemical_formula_structural       Sc2GaSe6
_chemical_formula_sum              "Sc2 Ga1 Se6"
_cell_length_a       6.523332319955391
_cell_length_b       6.523332109259602
_cell_length_c       6.5233323491281165
_cell_angle_alpha    59.99999929300673
_cell_angle_beta     60.00000016295177
_cell_angle_gamma    60.000000293484774

_space_group_name_H-M_alt    "P 1"
_space_group_IT_number       1

loop_
  _space_group_symop_operation_xyz
  'x, y, z'

loop_
  _atom_site_type_symbol
  _atom_site_label
  _atom_site_symmetry_multiplicity
  _atom_site_fract_x
  _atom_site_fract_y
  _atom_site_fract_z
  _atom_site_occupancy
  Sc  Sc1       1.0  0.24999992120149192  0.24999992665005566  0.2500001183142468  1.0000
  Sc  Sc2       1.0  0.7500001018515001  0.7500000503078044  0.7500000491074523  1.0000
  Ga  Ga1       1.0  1.9989645192476642e-08  3.754967648251932e-09  4.48471707729331e-08  1.0000
  Se  Se1       1.0  0.2622558500445319  0.2622559258983794  0.7377441061231659  1.0000
  Se  Se2       1.0  0.737744057110836  0.7377440642018629  0.26225585513906874  1.0000
  Se  Se3       1.0  0.7377440735708399  0.2622559629426276  0.2622558675034999  1.0000
  Se  Se4       1.0  0.2622558925686649  0.7377441210317937  0.7377440173295774  1.0000
  Se  Se5       1.0  0.2622559526544905  0.7377440531327861  0.26225592956863725  1.0000
  Se  Se6       1.0  0.7377441403991045  0.2622558731330178  0.7377440227823037  1.0000
