data_image0
_chemical_formula_structural       Sc2GeO6
_chemical_formula_sum              "Sc2 Ge1 O6"
_cell_length_a       5.023179635705149
_cell_length_b       5.023179916009535
_cell_length_c       5.0231795158376045
_cell_angle_alpha    60.00000200654593
_cell_angle_beta     60.000001042997305
_cell_angle_gamma    60.00000001653197

_space_group_name_H-M_alt    "P 1"
_space_group_IT_number       1

loop_
  _space_group_symop_operation_xyz
  'x, y, z'

loop_
  _atom_site_type_symbol
  _atom_site_label
  _atom_site_symmetry_multiplicity
  _atom_site_fract_x
  _atom_site_fract_y
  _atom_site_fract_z
  _atom_site_occupancy
  Sc  Sc1       1.0  0.25000005197759156  0.24999996134066937  0.25000006073263437  1.0000
  Sc  Sc2       1.0  0.7500000946076336  0.7500000059313268  0.7499998692163347  1.0000
  Ge  Ge1       1.0  4.713006030207588e-09  3.413460848334981e-08  0.99999993478846  1.0000
  O   O1        1.0  0.2577246975966509  0.25772478475304306  0.7422752250800162  1.0000
  O   O2        1.0  0.742275242727029  0.7422752702936641  0.2577248278170407  1.0000
  O   O3        1.0  0.7422752454562271  0.25772474600903855  0.25772474792712885  1.0000
  O   O4        1.0  0.2577247338305873  0.74227527490306  0.7422752468140779  1.0000
  O   O5        1.0  0.25772468696071316  0.7422752324956272  0.2577247687557264  1.0000
  O   O6        1.0  0.74227527955758  0.25772465431622504  0.7422753014106358  1.0000
