data_image0
_chemical_formula_structural       Sc2GaTe6
_chemical_formula_sum              "Sc2 Ga1 Te6"
_cell_length_a       7.17465206867753
_cell_length_b       7.174651867078462
_cell_length_c       7.174651988711379
_cell_angle_alpha    60.000000624784185
_cell_angle_beta     59.99999988081704
_cell_angle_gamma    59.99999931279485

_space_group_name_H-M_alt    "P 1"
_space_group_IT_number       1

loop_
  _space_group_symop_operation_xyz
  'x, y, z'

loop_
  _atom_site_type_symbol
  _atom_site_label
  _atom_site_symmetry_multiplicity
  _atom_site_fract_x
  _atom_site_fract_y
  _atom_site_fract_z
  _atom_site_occupancy
  Sc  Sc1       1.0  0.25000001650479076  0.24999986239753233  0.2500001239807933  1.0000
  Sc  Sc2       1.0  0.7500000115631364  0.750000058336825  0.749999932338556  1.0000
  Ga  Ga1       1.0  5.2996376618965056e-09  3.4140884315361236e-09  0.9999999844927704  1.0000
  Te  Te1       1.0  0.2629701075470662  0.2629701019308677  0.73702990658384  1.0000
  Te  Te2       1.0  0.7370298890297929  0.7370299229331936  0.262970132929334  1.0000
  Te  Te3       1.0  0.7370299018075325  0.2629700443292918  0.2629700700808185  1.0000
  Te  Te4       1.0  0.26297010379268726  0.7370299293234382  0.7370298804164702  1.0000
  Te  Te5       1.0  0.2629700127850212  0.7370299920668646  0.26297010247066416  1.0000
  Te  Te6       1.0  0.7370299463679916  0.2629700823014811  0.7370298654938875  1.0000
