data_image0
_chemical_formula_structural       Sc2GaTe6
_chemical_formula_sum              "Sc2 Ga1 Te6"
_cell_length_a       7.174652303904247
_cell_length_b       7.174652197194447
_cell_length_c       7.174652284210107
_cell_angle_alpha    60.00000022578965
_cell_angle_beta     59.99999994286348
_cell_angle_gamma    59.99999980847155

_space_group_name_H-M_alt    "P 1"
_space_group_IT_number       1

loop_
  _space_group_symop_operation_xyz
  'x, y, z'

loop_
  _atom_site_type_symbol
  _atom_site_label
  _atom_site_symmetry_multiplicity
  _atom_site_fract_x
  _atom_site_fract_y
  _atom_site_fract_z
  _atom_site_occupancy
  Sc  Sc1       1.0  0.24999996248654652  0.24999995624758806  0.2500001165096041  1.0000
  Sc  Sc2       1.0  0.7500000311997421  0.7499999831147262  0.7499999417136266  1.0000
  Ga  Ga1       1.0  1.1212790618735337e-09  2.5605663705180048e-08  5.744864296475346e-10  1.0000
  Te  Te1       1.0  0.2629700600032193  0.26297010269326876  0.7370299273797861  1.0000
  Te  Te2       1.0  0.7370299432251917  0.7370298708099304  0.26297012851508156  1.0000
  Te  Te3       1.0  0.7370299204348755  0.262970047694864  0.2629700883768536  1.0000
  Te  Te4       1.0  0.2629701224599392  0.7370299275153787  0.7370298576283612  1.0000
  Te  Te5       1.0  0.26297001225447225  0.737029980213359  0.2629700664399798  1.0000
  Te  Te6       1.0  0.7370299352439946  0.2629701025406708  0.7370298762791074  1.0000
