data_image0
_chemical_formula_structural       Sc2GeSe6
_chemical_formula_sum              "Sc2 Ge1 Se6"
_cell_length_a       6.594333705683854
_cell_length_b       6.594333769058968
_cell_length_c       6.594333879697019
_cell_angle_alpha    59.99999982717241
_cell_angle_beta     59.99999965338682
_cell_angle_gamma    59.999999582020635

_space_group_name_H-M_alt    "P 1"
_space_group_IT_number       1

loop_
  _space_group_symop_operation_xyz
  'x, y, z'

loop_
  _atom_site_type_symbol
  _atom_site_label
  _atom_site_symmetry_multiplicity
  _atom_site_fract_x
  _atom_site_fract_y
  _atom_site_fract_z
  _atom_site_occupancy
  Sc  Sc1       1.0  0.24999981708280658  0.25000003684010585  0.25000006416280107  1.0000
  Sc  Sc2       1.0  0.7499999717230583  0.7499997520674841  0.7500000599180863  1.0000
  Ge  Ge1       1.0  0.9999999690819722  2.97162969265464e-08  0.9999999687553441  1.0000
  Se  Se1       1.0  0.2580613333599783  0.2580616031332527  0.741938485044629  1.0000
  Se  Se2       1.0  0.741938582383181  0.7419384773654998  0.2580615313744089  1.0000
  Se  Se3       1.0  0.7419386064335203  0.2580615147580703  0.2580613684389897  1.0000
  Se  Se4       1.0  0.2580615780699809  0.7419385211662356  0.7419385722819829  1.0000
  Se  Se5       1.0  0.2580615347579122  0.741938564606636  0.25806141825323703  1.0000
  Se  Se6       1.0  0.7419386035809853  0.2580615047485041  0.7419385333839804  1.0000
