data_image0
_chemical_formula_structural       Sc2GaS6
_chemical_formula_sum              "Sc2 Ga1 S6"
_cell_length_a       6.172004572600732
_cell_length_b       6.172004377340452
_cell_length_c       6.172004650551113
_cell_angle_alpha    60.000000667099954
_cell_angle_beta     60.000000131530726
_cell_angle_gamma    60.00000063069985

_space_group_name_H-M_alt    "P 1"
_space_group_IT_number       1

loop_
  _space_group_symop_operation_xyz
  'x, y, z'

loop_
  _atom_site_type_symbol
  _atom_site_label
  _atom_site_symmetry_multiplicity
  _atom_site_fract_x
  _atom_site_fract_y
  _atom_site_fract_z
  _atom_site_occupancy
  Sc  Sc1       1.0  0.250000040817096  0.2499999406727857  0.25000001346520156  1.0000
  Sc  Sc2       1.0  0.7499999885982807  0.7499998755959497  0.7500003041235521  1.0000
  Ga  Ga1       1.0  4.951152013487757e-09  1.98435565399503e-09  1.7595094897673315e-08  1.0000
  S   S1        1.0  0.259619624939831  0.25961972652925086  0.7403803748020927  1.0000
  S   S2        1.0  0.7403803258373389  0.7403803873927488  0.259619535158817  1.0000
  S   S3        1.0  0.7403803232297119  0.2596198108991578  0.25961955252922103  1.0000
  S   S4        1.0  0.2596196712194004  0.7403803347725226  0.7403802322290447  1.0000
  S   S5        1.0  0.2596197531124473  0.7403802943888902  0.2596196177934742  1.0000
  S   S6        1.0  0.7403802660017504  0.2596196369724364  0.7403803282164068  1.0000
