data_image0
_chemical_formula_structural       Sc2GeTe6
_chemical_formula_sum              "Sc2 Ge1 Te6"
_cell_length_a       7.174446461647077
_cell_length_b       7.174446360457344
_cell_length_c       7.174446368266942
_cell_angle_alpha    60.00000009524115
_cell_angle_beta     60.00000002417197
_cell_angle_gamma    59.99999964823279

_space_group_name_H-M_alt    "P 1"
_space_group_IT_number       1

loop_
  _space_group_symop_operation_xyz
  'x, y, z'

loop_
  _atom_site_type_symbol
  _atom_site_label
  _atom_site_symmetry_multiplicity
  _atom_site_fract_x
  _atom_site_fract_y
  _atom_site_fract_z
  _atom_site_occupancy
  Sc  Sc1       1.0  0.25000004647794444  0.24999987319324068  0.25000002791775294  1.0000
  Sc  Sc2       1.0  0.7499999725627199  0.7500000429388408  0.7499999778106295  1.0000
  Ge  Ge1       1.0  1.2111411275454369e-08  1.1949652605120707e-08  2.00276908147778e-08  1.0000
  Te  Te1       1.0  0.2632103668263145  0.263210328221293  0.7367896535642932  1.0000
  Te  Te2       1.0  0.736789634931406  0.736789678386729  0.2632103490196496  1.0000
  Te  Te3       1.0  0.7367896436520388  0.2632103248848783  0.2632103813225914  1.0000
  Te  Te4       1.0  0.2632103240308208  0.7367896680663981  0.7367896270072898  1.0000
  Te  Te5       1.0  0.2632103680981806  0.7367896768770927  0.26321032133242916  1.0000
  Te  Te6       1.0  0.7367896313499137  0.26321039460047185  0.7367896430023767  1.0000
