data_image0
_chemical_formula_structural       Sc2GaSe6
_chemical_formula_sum              "Sc2 Ga1 Se6"
_cell_length_a       6.523331959998014
_cell_length_b       6.523331678808713
_cell_length_c       6.523332002047331
_cell_angle_alpha    60.000000097564794
_cell_angle_beta     60.00000090217656
_cell_angle_gamma    60.00000118450969

_space_group_name_H-M_alt    "P 1"
_space_group_IT_number       1

loop_
  _space_group_symop_operation_xyz
  'x, y, z'

loop_
  _atom_site_type_symbol
  _atom_site_label
  _atom_site_symmetry_multiplicity
  _atom_site_fract_x
  _atom_site_fract_y
  _atom_site_fract_z
  _atom_site_occupancy
  Sc  Sc1       1.0  0.2500000017165322  0.2499998765575156  0.2500001718689232  1.0000
  Sc  Sc2       1.0  0.7500001446965617  0.749999954477216  0.749999742296458  1.0000
  Ga  Ga1       1.0  4.677444621158169e-08  0.9999999605728443  3.00514509012301e-08  1.0000
  Se  Se1       1.0  0.26225582015474574  0.2622559721369758  0.7377441153250084  1.0000
  Se  Se2       1.0  0.7377439788660036  0.7377440992156613  0.2622560056734849  1.0000
  Se  Se3       1.0  0.7377440507458498  0.26225591753328104  0.2622559368317992  1.0000
  Se  Se4       1.0  0.26225601076940636  0.7377441575743269  0.7377439513996276  1.0000
  Se  Se5       1.0  0.26225584207944697  0.7377440263032433  0.2622560487980424  1.0000
  Se  Se6       1.0  0.7377441101185847  0.26225602627455985  0.7377439912025975  1.0000
