data_image0
_chemical_formula_structural       Sc2HfTe6
_chemical_formula_sum              "Sc2 Hf1 Te6"
_cell_length_a       7.303016922042146
_cell_length_b       7.303017012399663
_cell_length_c       7.303017094303282
_cell_angle_alpha    59.99999840835795
_cell_angle_beta     59.99999904852519
_cell_angle_gamma    60.000000566978684

_space_group_name_H-M_alt    "P 1"
_space_group_IT_number       1

loop_
  _space_group_symop_operation_xyz
  'x, y, z'

loop_
  _atom_site_type_symbol
  _atom_site_label
  _atom_site_symmetry_multiplicity
  _atom_site_fract_x
  _atom_site_fract_y
  _atom_site_fract_z
  _atom_site_occupancy
  Sc  Sc1       1.0  0.24999996751842668  0.250000032373956  0.2500000019219941  1.0000
  Sc  Sc2       1.0  0.7500000739419518  0.7499999814061377  0.749999930005115  1.0000
  Hf  Hf1       1.0  0.9999999801167143  0.9999999647821679  1.522688549028177e-08  1.0000
  Te  Te1       1.0  0.26591479727615136  0.265914804941784  0.7340851941353511  1.0000
  Te  Te2       1.0  0.73408524437605  0.7340851987760713  0.26591478791376955  1.0000
  Te  Te3       1.0  0.7340851426562862  0.2659148368193543  0.2659148565401526  1.0000
  Te  Te4       1.0  0.2659148207698012  0.7340851786377767  0.7340851875076259  1.0000
  Te  Te5       1.0  0.2659148052888096  0.7340851848132627  0.26591485025236977  1.0000
  Te  Te6       1.0  0.7340851652126262  0.26591481890459123  0.7340851810651051  1.0000
