data_image0
_chemical_formula_structural       Sc2HfSe6
_chemical_formula_sum              "Sc2 Hf1 Se6"
_cell_length_a       6.688040301934747
_cell_length_b       6.688040376160635
_cell_length_c       6.688040498947951
_cell_angle_alpha    59.99999992784784
_cell_angle_beta     60.000000118831316
_cell_angle_gamma    60.00000003686467

_space_group_name_H-M_alt    "P 1"
_space_group_IT_number       1

loop_
  _space_group_symop_operation_xyz
  'x, y, z'

loop_
  _atom_site_type_symbol
  _atom_site_label
  _atom_site_symmetry_multiplicity
  _atom_site_fract_x
  _atom_site_fract_y
  _atom_site_fract_z
  _atom_site_occupancy
  Sc  Sc1       1.0  0.24999998690608197  0.24999993742736537  0.2500001022921269  1.0000
  Sc  Sc2       1.0  0.7500000643569172  0.7500000814752913  0.7499999933679177  1.0000
  Hf  Hf1       1.0  3.57573030590671e-09  0.9999999633750754  0.9999999836300594  1.0000
  Se  Se1       1.0  0.26598902586060746  0.26598889896044803  0.7340109842024565  1.0000
  Se  Se2       1.0  0.7340110236758745  0.7340111199422084  0.26598895382898335  1.0000
  Se  Se3       1.0  0.7340109972856041  0.2659890498089396  0.2659889157484752  1.0000
  Se  Se4       1.0  0.26598884564349323  0.7340110295248425  0.7340110893902674  1.0000
  Se  Se5       1.0  0.26598898489213535  0.7340110469314243  0.26598892888591436  1.0000
  Se  Se6       1.0  0.7340110740459768  0.26598887125268944  0.7340110443375376  1.0000
