data_image0
_chemical_formula_structural       Sc2HfO6
_chemical_formula_sum              "Sc2 Hf1 O6"
_cell_length_a       5.229607899352154
_cell_length_b       5.229607646150355
_cell_length_c       5.229607758366928
_cell_angle_alpha    59.99999976857
_cell_angle_beta     59.999998490778225
_cell_angle_gamma    59.99999940942755

_space_group_name_H-M_alt    "P 1"
_space_group_IT_number       1

loop_
  _space_group_symop_operation_xyz
  'x, y, z'

loop_
  _atom_site_type_symbol
  _atom_site_label
  _atom_site_symmetry_multiplicity
  _atom_site_fract_x
  _atom_site_fract_y
  _atom_site_fract_z
  _atom_site_occupancy
  Sc  Sc1       1.0  0.24999997284818867  0.2500001480508512  0.250000073751685  1.0000
  Sc  Sc2       1.0  0.7500003034151949  0.7499999453184586  0.7499999818474379  1.0000
  Hf  Hf1       1.0  3.247337925257456e-08  0.9999999953161123  5.2271466246403496e-09  1.0000
  O   O1        1.0  0.2657175126343585  0.26571781579937204  0.7342822347128136  1.0000
  O   O2        1.0  0.7342823896723973  0.7342823197249231  0.26571757566643783  1.0000
  O   O3        1.0  0.73428221337213  0.265717578934345  0.2657177102843932  1.0000
  O   O4        1.0  0.2657176172108703  0.7342823809441441  0.7342823614572694  1.0000
  O   O5        1.0  0.2657174917991046  0.7342822148996155  0.26571777093353527  1.0000
  O   O6        1.0  0.7342824397973831  0.26571758104278714  0.7342823150597207  1.0000
