data_image0
_chemical_formula_structural       Sc2IrO6
_chemical_formula_sum              "Sc2 Ir1 O6"
_cell_length_a       5.167815971248934
_cell_length_b       5.1678157698890645
_cell_length_c       5.167816007568002
_cell_angle_alpha    59.999999762743236
_cell_angle_beta     59.9999997651929
_cell_angle_gamma    59.999999816042376

_space_group_name_H-M_alt    "P 1"
_space_group_IT_number       1

loop_
  _space_group_symop_operation_xyz
  'x, y, z'

loop_
  _atom_site_type_symbol
  _atom_site_label
  _atom_site_symmetry_multiplicity
  _atom_site_fract_x
  _atom_site_fract_y
  _atom_site_fract_z
  _atom_site_occupancy
  Sc  Sc1       1.0  0.2500001065482574  0.25000008213724767  0.2499998938014993  1.0000
  Sc  Sc2       1.0  0.749999938122558  0.7500004123080181  0.7499996150626618  1.0000
  Ir  Ir1       1.0  0.9999999726449545  2.8439363014189904e-08  5.750944384083244e-08  1.0000
  O   O1        1.0  0.2581545610093383  0.25815448177768147  0.7418454680325657  1.0000
  O   O2        1.0  0.7418454947757207  0.7418454296606619  0.25815473894430613  1.0000
  O   O3        1.0  0.7418453782036266  0.25815435603783043  0.2581546834945153  1.0000
  O   O4        1.0  0.2581545822958962  0.7418453184058239  0.7418455386883008  1.0000
  O   O5        1.0  0.2581544548315674  0.7418454796264918  0.258154609374507  1.0000
  O   O6        1.0  0.7418454995029007  0.258154401002538  0.7418454121753731  1.0000
