data_image0
_chemical_formula_structural       Sc2IrO6
_chemical_formula_sum              "Sc2 Ir1 O6"
_cell_length_a       5.167873556634032
_cell_length_b       5.167873626843665
_cell_length_c       5.167873656153249
_cell_angle_alpha    59.999999901685946
_cell_angle_beta     60.00000062689786
_cell_angle_gamma    60.000000185272036

_space_group_name_H-M_alt    "P 1"
_space_group_IT_number       1

loop_
  _space_group_symop_operation_xyz
  'x, y, z'

loop_
  _atom_site_type_symbol
  _atom_site_label
  _atom_site_symmetry_multiplicity
  _atom_site_fract_x
  _atom_site_fract_y
  _atom_site_fract_z
  _atom_site_occupancy
  Sc  Sc1       1.0  0.2500003681939157  0.24999993003402063  0.2499999428264205  1.0000
  Sc  Sc2       1.0  0.7500002059727015  0.7500000057648132  0.749999916463231  1.0000
  Ir  Ir1       1.0  0.9999999651521394  3.080896429557122e-08  0.9999999768640341  1.0000
  O   O1        1.0  0.25815262265231625  0.258152648378568  0.741847323363303  1.0000
  O   O2        1.0  0.741847254565072  0.741847434355327  0.25815264839075247  1.0000
  O   O3        1.0  0.7418471807652077  0.25815270564730824  0.2581525984790086  1.0000
  O   O4        1.0  0.25815257279443315  0.7418473391678618  0.7418474114925812  1.0000
  O   O5        1.0  0.2581525330536136  0.7418473125493258  0.2581527481071238  1.0000
  O   O6        1.0  0.7418473004946594  0.2581525995503056  0.7418474333553072  1.0000
