data_image0
_chemical_formula_structural       Sc2IrS6
_chemical_formula_sum              "Sc2 Ir1 S6"
_cell_length_a       6.234320104458831
_cell_length_b       6.2343204658390015
_cell_length_c       6.234320213329794
_cell_angle_alpha    59.99999980207167
_cell_angle_beta     60.00000041873095
_cell_angle_gamma    60.00000007269586

_space_group_name_H-M_alt    "P 1"
_space_group_IT_number       1

loop_
  _space_group_symop_operation_xyz
  'x, y, z'

loop_
  _atom_site_type_symbol
  _atom_site_label
  _atom_site_symmetry_multiplicity
  _atom_site_fract_x
  _atom_site_fract_y
  _atom_site_fract_z
  _atom_site_occupancy
  Sc  Sc1       1.0  0.2500001857974647  0.2499999107955143  0.24999997688004025  1.0000
  Sc  Sc2       1.0  0.7499999365918705  0.7500001056453968  0.749999897216583  1.0000
  Ir  Ir1       1.0  0.9999999846401726  0.9999999960709594  2.568467519420416e-08  1.0000
  S   S1        1.0  0.25932575409717673  0.2593256564270443  0.7406742851226918  1.0000
  S   S2        1.0  0.7406742552168639  0.7406743325105818  0.2593257875851503  1.0000
  S   S3        1.0  0.74067418791777  0.25932571382410874  0.2593257468790067  1.0000
  S   S4        1.0  0.2593257483014654  0.7406742554683181  0.7406742679372694  1.0000
  S   S5        1.0  0.2593257311050244  0.7406743147847547  0.25932569606274514  1.0000
  S   S6        1.0  0.7406742397243546  0.2593257173723188  0.7406742956805213  1.0000
