data_image0
_chemical_formula_structural       Sc2IrS6
_chemical_formula_sum              "Sc2 Ir1 S6"
_cell_length_a       6.234287575801601
_cell_length_b       6.234287553584509
_cell_length_c       6.234287652177182
_cell_angle_alpha    60.000000415067355
_cell_angle_beta     60.0000010454687
_cell_angle_gamma    60.000000927680965

_space_group_name_H-M_alt    "P 1"
_space_group_IT_number       1

loop_
  _space_group_symop_operation_xyz
  'x, y, z'

loop_
  _atom_site_type_symbol
  _atom_site_label
  _atom_site_symmetry_multiplicity
  _atom_site_fract_x
  _atom_site_fract_y
  _atom_site_fract_z
  _atom_site_occupancy
  Sc  Sc1       1.0  0.25000004189698466  0.24999988746847723  0.24999997629696283  1.0000
  Sc  Sc2       1.0  0.7500000451418998  0.750000098531226  0.7500001681509703  1.0000
  Ir  Ir1       1.0  0.9999999784479933  0.9999999646384489  0.9999999787317709  1.0000
  S   S1        1.0  0.2593218983348828  0.2593218510394648  0.7406781055850037  1.0000
  S   S2        1.0  0.7406780346362307  0.7406781526410112  0.2593218006862196  1.0000
  S   S3        1.0  0.7406781115692912  0.25932197293591547  0.2593218396045237  1.0000
  S   S4        1.0  0.2593218576203406  0.740678138793744  0.74067808435867  1.0000
  S   S5        1.0  0.25932187962339304  0.7406781461355583  0.2593219200462695  1.0000
  S   S6        1.0  0.7406781454526453  0.2593217868218175  0.7406781263130969  1.0000
