data_image0
_chemical_formula_structural       Sc2MoS6
_chemical_formula_sum              "Sc2 Mo1 S6"
_cell_length_a       6.2440056536536295
_cell_length_b       6.244005604971181
_cell_length_c       6.244005779483939
_cell_angle_alpha    59.999998098183724
_cell_angle_beta     59.99999852860664
_cell_angle_gamma    60.00000152944939

_space_group_name_H-M_alt    "P 1"
_space_group_IT_number       1

loop_
  _space_group_symop_operation_xyz
  'x, y, z'

loop_
  _atom_site_type_symbol
  _atom_site_label
  _atom_site_symmetry_multiplicity
  _atom_site_fract_x
  _atom_site_fract_y
  _atom_site_fract_z
  _atom_site_occupancy
  Sc  Sc1       1.0  0.2500000485766857  0.24999993260926304  0.2500001277981444  1.0000
  Sc  Sc2       1.0  0.7500000072540314  0.7499999802447849  0.7499997512387342  1.0000
  Mo  Mo1       1.0  0.9999999698311496  6.276713663067155e-08  5.737151229071839e-08  1.0000
  S   S1        1.0  0.261176964713642  0.2611769595560524  0.7388230232195796  1.0000
  S   S2        1.0  0.7388230607238673  0.7388230278339691  0.2611770851870665  1.0000
  S   S3        1.0  0.7388229397827909  0.26117700046984427  0.2611770271010272  1.0000
  S   S4        1.0  0.2611770628830471  0.7388230496873159  0.7388229171696455  1.0000
  S   S5        1.0  0.2611769441348517  0.738822951529857  0.26117703916304236  1.0000
  S   S6        1.0  0.7388229874181054  0.2611770456675279  0.7388229815577833  1.0000
