data_image0
_chemical_formula_structural       Sc2MnTe6
_chemical_formula_sum              "Sc2 Mn1 Te6"
_cell_length_a       6.971804977434843
_cell_length_b       6.971805143303112
_cell_length_c       6.971805037881111
_cell_angle_alpha    60.00000032028009
_cell_angle_beta     59.999999743645546
_cell_angle_gamma    60.00000065156093

_space_group_name_H-M_alt    "P 1"
_space_group_IT_number       1

loop_
  _space_group_symop_operation_xyz
  'x, y, z'

loop_
  _atom_site_type_symbol
  _atom_site_label
  _atom_site_symmetry_multiplicity
  _atom_site_fract_x
  _atom_site_fract_y
  _atom_site_fract_z
  _atom_site_occupancy
  Sc  Sc1       1.0  0.24999998448877117  0.24999998593237652  0.2500000060528806  1.0000
  Sc  Sc2       1.0  0.7500000131570667  0.7500000122551786  0.7500000041147039  1.0000
  Mn  Mn1       1.0  9.552825342884714e-09  0.9999999912164438  0.9999999795344826  1.0000
  Te  Te1       1.0  0.2530276133911716  0.2530276187511036  0.7469724083308799  1.0000
  Te  Te2       1.0  0.746972359795651  0.7469723882200078  0.2530276311896659  1.0000
  Te  Te3       1.0  0.7469723857092129  0.2530276235842069  0.253027594414678  1.0000
  Te  Te4       1.0  0.25302762030107223  0.7469723991973058  0.7469723921019601  1.0000
  Te  Te5       1.0  0.25302763665857436  0.746972384451225  0.25302759202420705  1.0000
  Te  Te6       1.0  0.7469723829202981  0.253027592655795  0.7469723904645011  1.0000
