data_image0
_chemical_formula_structural       Sc2MnO6
_chemical_formula_sum              "Sc2 Mn1 O6"
_cell_length_a       5.07023296647524
_cell_length_b       5.070232651884174
_cell_length_c       5.0702328187555326
_cell_angle_alpha    60.00000014505682
_cell_angle_beta     60.00000163869323
_cell_angle_gamma    59.999999306739454

_space_group_name_H-M_alt    "P 1"
_space_group_IT_number       1

loop_
  _space_group_symop_operation_xyz
  'x, y, z'

loop_
  _atom_site_type_symbol
  _atom_site_label
  _atom_site_symmetry_multiplicity
  _atom_site_fract_x
  _atom_site_fract_y
  _atom_site_fract_z
  _atom_site_occupancy
  Sc  Sc1       1.0  0.2500000248839559  0.25000022364239227  0.24999982818610592  1.0000
  Sc  Sc2       1.0  0.7500000209258522  0.7499999849082718  0.750000029965117  1.0000
  Mn  Mn1       1.0  1.203357542303252e-07  0.9999999396110115  0.999999956220545  1.0000
  O   O1        1.0  0.2503422103477727  0.2503420986698782  0.7496578631538791  1.0000
  O   O2        1.0  0.7496577213666611  0.7496578031047256  0.25034223107290576  1.0000
  O   O3        1.0  0.7496576736641746  0.2503421513009915  0.25034219353467396  1.0000
  O   O4        1.0  0.250342170332337  0.7496579316405774  0.7496578677736631  1.0000
  O   O5        1.0  0.25034221959034175  0.7496577326856314  0.2503421497388021  1.0000
  O   O6        1.0  0.7496578429035673  0.25034211836222214  0.7496579024893244  1.0000
