data_image0
_chemical_formula_structural       Sc2MnS6
_chemical_formula_sum              "Sc2 Mn1 S6"
_cell_length_a       6.064460816181304
_cell_length_b       6.06446118297738
_cell_length_c       6.064461189797405
_cell_angle_alpha    59.999998050061194
_cell_angle_beta     59.99999806990817
_cell_angle_gamma    60.000000544906705

_space_group_name_H-M_alt    "P 1"
_space_group_IT_number       1

loop_
  _space_group_symop_operation_xyz
  'x, y, z'

loop_
  _atom_site_type_symbol
  _atom_site_label
  _atom_site_symmetry_multiplicity
  _atom_site_fract_x
  _atom_site_fract_y
  _atom_site_fract_z
  _atom_site_occupancy
  Sc  Sc1       1.0  0.2500000076962396  0.24999984306216855  0.25000002588127057  1.0000
  Sc  Sc2       1.0  0.7499999705341474  0.7500001552452781  0.7499998617965998  1.0000
  Mn  Mn1       1.0  0.9999999737855538  1.0097722608879559e-08  0.9999999767282906  1.0000
  S   S1        1.0  0.2544797199613871  0.25447970871371756  0.7455202591393589  1.0000
  S   S2        1.0  0.7455202880407218  0.7455203259455269  0.2544796960627685  1.0000
  S   S3        1.0  0.7455203530986046  0.25447962592090145  0.2544798015513918  1.0000
  S   S4        1.0  0.2544797479542834  0.745520255252964  0.7455203174330775  1.0000
  S   S5        1.0  0.2544796783543778  0.7455203367845307  0.25447977599314825  1.0000
  S   S6        1.0  0.7455202666987515  0.254479703933344  0.7455203197828292  1.0000
