data_image0
_chemical_formula_structural       Sc2MoS6
_chemical_formula_sum              "Sc2 Mo1 S6"
_cell_length_a       6.24403343859114
_cell_length_b       6.244033334412785
_cell_length_c       6.244033523787812
_cell_angle_alpha    60.000000035722294
_cell_angle_beta     60.00000019824984
_cell_angle_gamma    60.00000042297994

_space_group_name_H-M_alt    "P 1"
_space_group_IT_number       1

loop_
  _space_group_symop_operation_xyz
  'x, y, z'

loop_
  _atom_site_type_symbol
  _atom_site_label
  _atom_site_symmetry_multiplicity
  _atom_site_fract_x
  _atom_site_fract_y
  _atom_site_fract_z
  _atom_site_occupancy
  Sc  Sc1       1.0  0.249999987069803  0.25000001084351875  0.2500000407655901  1.0000
  Sc  Sc2       1.0  0.7499999487483084  0.750000136488166  0.7500000653378144  1.0000
  Mo  Mo1       1.0  0.9999999533383777  0.9999999901926777  0.9999999962038945  1.0000
  S   S1        1.0  0.26117669143159344  0.26117655707032966  0.7388233896861444  1.0000
  S   S2        1.0  0.7388233494433566  0.7388234470744577  0.2611765689232858  1.0000
  S   S3        1.0  0.7388233499444607  0.26117655835256354  0.26117668229119145  1.0000
  S   S4        1.0  0.2611766307085351  0.7388233712565788  0.738823361313855  1.0000
  S   S5        1.0  0.2611766716192222  0.7388233334582881  0.26117658565917884  1.0000
  S   S6        1.0  0.7388234317404887  0.2611765941893899  0.7388232998799814  1.0000
