data_image0
_chemical_formula_structural       Sc2MoSe6
_chemical_formula_sum              "Sc2 Mo1 Se6"
_cell_length_a       6.625526289259
_cell_length_b       6.625525978835056
_cell_length_c       6.6255261906086504
_cell_angle_alpha    59.999999273879084
_cell_angle_beta     60.0000006411211
_cell_angle_gamma    59.99999983346407

_space_group_name_H-M_alt    "P 1"
_space_group_IT_number       1

loop_
  _space_group_symop_operation_xyz
  'x, y, z'

loop_
  _atom_site_type_symbol
  _atom_site_label
  _atom_site_symmetry_multiplicity
  _atom_site_fract_x
  _atom_site_fract_y
  _atom_site_fract_z
  _atom_site_occupancy
  Sc  Sc1       1.0  0.2499999608036968  0.24999999269429315  0.24999980601570737  1.0000
  Sc  Sc2       1.0  0.749999532635731  0.7499999503550071  0.750000343344011  1.0000
  Mo  Mo1       1.0  0.9999999893680054  0.9999999482413064  1.0064946772954182e-08  1.0000
  Se  Se1       1.0  0.26022493843996336  0.2602247431236151  0.7397752506287874  1.0000
  Se  Se2       1.0  0.7397750884550434  0.7397752831093053  0.26022478058490695  1.0000
  Se  Se3       1.0  0.7397752887641048  0.2602248764549503  0.2602247651858316  1.0000
  Se  Se4       1.0  0.2602249345937728  0.7397750832310807  0.7397752689890058  1.0000
  Se  Se5       1.0  0.2602250578777239  0.7397751556407276  0.2602246435926177  1.0000
  Se  Se6       1.0  0.7397752165470006  0.26022495932138384  0.7397751198768932  1.0000
