data_image0
_chemical_formula_structural       Sc2NiS6
_chemical_formula_sum              "Sc2 Ni1 S6"
_cell_length_a       5.9547975130400586
_cell_length_b       5.9547972234395266
_cell_length_c       5.954797782571769
_cell_angle_alpha    59.99999853503394
_cell_angle_beta     59.99999714439188
_cell_angle_gamma    59.99999877541749

_space_group_name_H-M_alt    "P 1"
_space_group_IT_number       1

loop_
  _space_group_symop_operation_xyz
  'x, y, z'

loop_
  _atom_site_type_symbol
  _atom_site_label
  _atom_site_symmetry_multiplicity
  _atom_site_fract_x
  _atom_site_fract_y
  _atom_site_fract_z
  _atom_site_occupancy
  Sc  Sc1       1.0  0.2499999180880198  0.2500003218555746  0.2499997611149363  1.0000
  Sc  Sc2       1.0  0.749999879211235  0.7499997006737806  0.7500004729860732  1.0000
  Ni  Ni1       1.0  0.9999999555181017  0.9999999938297919  1.0089537035189081e-07  1.0000
  S   S1        1.0  0.2561670401533224  0.2561669995782198  0.7438329500220575  1.0000
  S   S2        1.0  0.7438330805471164  0.7438329777029282  0.256166867914965  1.0000
  S   S3        1.0  0.7438331408656029  0.2561671338925926  0.2561668019295668  1.0000
  S   S4        1.0  0.2561670330914466  0.7438328639559235  0.7438330781752369  1.0000
  S   S5        1.0  0.25616706548260726  0.7438329264229119  0.25616692250330053  1.0000
  S   S6        1.0  0.7438329037320186  0.2561670631986564  0.7438330657655091  1.0000
