data_image0
_chemical_formula_structural       Sc2NbO6
_chemical_formula_sum              "Sc2 Nb1 O6"
_cell_length_a       5.221292894711751
_cell_length_b       5.221292847089206
_cell_length_c       5.221292843755737
_cell_angle_alpha    59.99999949675016
_cell_angle_beta     59.999998957742555
_cell_angle_gamma    59.9999993750753

_space_group_name_H-M_alt    "P 1"
_space_group_IT_number       1

loop_
  _space_group_symop_operation_xyz
  'x, y, z'

loop_
  _atom_site_type_symbol
  _atom_site_label
  _atom_site_symmetry_multiplicity
  _atom_site_fract_x
  _atom_site_fract_y
  _atom_site_fract_z
  _atom_site_occupancy
  Sc  Sc1       1.0  0.250000021745601  0.24999994473839612  0.24999997069328878  1.0000
  Sc  Sc2       1.0  0.7500000619481181  0.750000122733041  0.7499999648191968  1.0000
  Nb  Nb1       1.0  1.181648568692231e-08  3.75307775740401e-08  0.999999979156837  1.0000
  O   O1        1.0  0.2618312788713824  0.26183124752825165  0.7381687591553093  1.0000
  O   O2        1.0  0.7381686901144986  0.7381687659926929  0.26183120705977786  1.0000
  O   O3        1.0  0.738168738815225  0.2618312286869221  0.2618313104995249  1.0000
  O   O4        1.0  0.26183120446031255  0.7381687027354464  0.7381687823989322  1.0000
  O   O5        1.0  0.2618312344326514  0.7381687054555407  0.2618313062654567  1.0000
  O   O6        1.0  0.7381687319852867  0.26183124942356373  0.7381687269439772  1.0000
