data_image0
_chemical_formula_structural       Sc2NO6
_chemical_formula_sum              "Sc2 N1 O6"
_cell_length_a       4.68682611251853
_cell_length_b       4.686825048750833
_cell_length_c       4.686825725305267
_cell_angle_alpha    59.99999454790834
_cell_angle_beta     59.99999491441691
_cell_angle_gamma    59.999997620957906

_space_group_name_H-M_alt    "P 1"
_space_group_IT_number       1

loop_
  _space_group_symop_operation_xyz
  'x, y, z'

loop_
  _atom_site_type_symbol
  _atom_site_label
  _atom_site_symmetry_multiplicity
  _atom_site_fract_x
  _atom_site_fract_y
  _atom_site_fract_z
  _atom_site_occupancy
  Sc  Sc1       1.0  0.24999999021554842  0.250000008059557  0.25000002265082494  1.0000
  Sc  Sc2       1.0  0.7500000863899903  0.750000113026303  0.7499998973804912  1.0000
  N   N1        1.0  8.262353597967431e-07  3.227259434633095e-06  0.9999979135106105  1.0000
  O   O1        1.0  0.24530913886337558  0.24530922726014967  0.7546908320608932  1.0000
  O   O2        1.0  0.7546882278230777  0.7546883433760334  0.24531175869414165  1.0000
  O   O3        1.0  0.7546897753145357  0.2453103843796682  0.2453100212422824  1.0000
  O   O4        1.0  0.24531093300590137  0.7546892532705911  0.7546889541241288  1.0000
  O   O5        1.0  0.24531097311873967  0.7546891794144114  0.24531088870226203  1.0000
  O   O6        1.0  0.754689900496861  0.2453103171249578  0.7546897878851222  1.0000
