data_image0
_chemical_formula_structural       Sc2NbS6
_chemical_formula_sum              "Sc2 Nb1 S6"
_cell_length_a       6.314757484480075
_cell_length_b       6.3147575455753495
_cell_length_c       6.314757419616052
_cell_angle_alpha    59.99999997277248
_cell_angle_beta     60.0000000786544
_cell_angle_gamma    59.99999982451619

_space_group_name_H-M_alt    "P 1"
_space_group_IT_number       1

loop_
  _space_group_symop_operation_xyz
  'x, y, z'

loop_
  _atom_site_type_symbol
  _atom_site_label
  _atom_site_symmetry_multiplicity
  _atom_site_fract_x
  _atom_site_fract_y
  _atom_site_fract_z
  _atom_site_occupancy
  Sc  Sc1       1.0  0.24999991694546267  0.25000000229450636  0.2500000227829953  1.0000
  Sc  Sc2       1.0  0.7499998679760865  0.7500000010650288  0.7500001631296317  1.0000
  Nb  Nb1       1.0  4.6804551358618504e-08  0.9999999747865481  1.1374739774693806e-08  1.0000
  S   S1        1.0  0.2630817303932153  0.26308168785536884  0.7369182922184504  1.0000
  S   S2        1.0  0.7369182550250454  0.736918317443663  0.2630816293660855  1.0000
  S   S3        1.0  0.7369184039601899  0.26308170512286694  0.2630816082981855  1.0000
  S   S4        1.0  0.2630817083871413  0.7369182924181786  0.7369183629686632  1.0000
  S   S5        1.0  0.26308169431763634  0.7369183712815469  0.26308163326564077  1.0000
  S   S6        1.0  0.7369183692856471  0.2630816572914395  0.7369182898479455  1.0000
