data_image0
_chemical_formula_structural       Sc2NiTe6
_chemical_formula_sum              "Sc2 Ni1 Te6"
_cell_length_a       6.941185548272028
_cell_length_b       6.941185290628752
_cell_length_c       6.9411853494816835
_cell_angle_alpha    59.99999923293232
_cell_angle_beta     59.99999930692092
_cell_angle_gamma    59.999999306694725

_space_group_name_H-M_alt    "P 1"
_space_group_IT_number       1

loop_
  _space_group_symop_operation_xyz
  'x, y, z'

loop_
  _atom_site_type_symbol
  _atom_site_label
  _atom_site_symmetry_multiplicity
  _atom_site_fract_x
  _atom_site_fract_y
  _atom_site_fract_z
  _atom_site_occupancy
  Sc  Sc1       1.0  0.24999998353031572  0.24999991878894307  0.25000001676573147  1.0000
  Sc  Sc2       1.0  0.7499999517959353  0.7500000422094671  0.7500000522816687  1.0000
  Ni  Ni1       1.0  2.3877845571790283e-08  0.9999999982355394  1.1994125195490916e-08  1.0000
  Te  Te1       1.0  0.25555552286666255  0.25555544550485615  0.7444445031367595  1.0000
  Te  Te2       1.0  0.7444444574417083  0.7444445701918369  0.2555554526806892  1.0000
  Te  Te3       1.0  0.7444446028224208  0.25555546883736574  0.25555546591234807  1.0000
  Te  Te4       1.0  0.2555554633187697  0.7444445239213383  0.7444445232881097  1.0000
  Te  Te5       1.0  0.2555554822654961  0.7444445412321513  0.25555546832452886  1.0000
  Te  Te6       1.0  0.7444445110485359  0.2555554903446882  0.7444445090669188  1.0000
