data_image0
_chemical_formula_structural       Sc2NbTe6
_chemical_formula_sum              "Sc2 Nb1 Te6"
_cell_length_a       7.255504310143813
_cell_length_b       7.255504331552411
_cell_length_c       7.2555042139928
_cell_angle_alpha    60.000001276259454
_cell_angle_beta     60.000001232156905
_cell_angle_gamma    60.00000031233054

_space_group_name_H-M_alt    "P 1"
_space_group_IT_number       1

loop_
  _space_group_symop_operation_xyz
  'x, y, z'

loop_
  _atom_site_type_symbol
  _atom_site_label
  _atom_site_symmetry_multiplicity
  _atom_site_fract_x
  _atom_site_fract_y
  _atom_site_fract_z
  _atom_site_occupancy
  Sc  Sc1       1.0  0.24999994793422  0.25000008776048266  0.2499999592780111  1.0000
  Sc  Sc2       1.0  0.750000026875636  0.7500000100781958  0.7499999749210495  1.0000
  Nb  Nb1       1.0  0.9999999858697401  0.99999998987187  0.9999999942117632  1.0000
  Te  Te1       1.0  0.26320839051489353  0.26320838395822177  0.736791624912512  1.0000
  Te  Te2       1.0  0.7367916884833318  0.7367915636465272  0.2632083736572474  1.0000
  Te  Te3       1.0  0.7367916501504859  0.2632083272390461  0.2632083548513691  1.0000
  Te  Te4       1.0  0.26320831639862025  0.7367916473740505  0.7367916891953036  1.0000
  Te  Te5       1.0  0.2632083455645475  0.7367916583244538  0.2632083441666638  1.0000
  Te  Te6       1.0  0.7367916494381572  0.26320832641677266  0.7367916861022007  1.0000
