data_image0
_chemical_formula_structural       Sc2NO6
_chemical_formula_sum              "Sc2 N1 O6"
_cell_length_a       4.686874987242384
_cell_length_b       4.686875325712936
_cell_length_c       4.686874982687372
_cell_angle_alpha    59.99999864572752
_cell_angle_beta     60.000001190879615
_cell_angle_gamma    59.99999713212028

_space_group_name_H-M_alt    "P 1"
_space_group_IT_number       1

loop_
  _space_group_symop_operation_xyz
  'x, y, z'

loop_
  _atom_site_type_symbol
  _atom_site_label
  _atom_site_symmetry_multiplicity
  _atom_site_fract_x
  _atom_site_fract_y
  _atom_site_fract_z
  _atom_site_occupancy
  Sc  Sc1       1.0  0.24999997930552256  0.24999999781477508  0.24999989526129734  1.0000
  Sc  Sc2       1.0  0.7499999830358768  0.749999909823906  0.7500001744303711  1.0000
  N   N1        1.0  3.316083182167753e-07  0.9999981995485717  0.9999960617985756  1.0000
  O   O1        1.0  0.24530174925562018  0.24530181215988034  0.7546979066270711  1.0000
  O   O2        1.0  0.7546992051153103  0.7546990440476455  0.24530063375752106  1.0000
  O   O3        1.0  0.7546967889994157  0.24530318583086816  0.24530294707213726  1.0000
  O   O4        1.0  0.2452996055076019  0.7547004481416697  0.7547002544644805  1.0000
  O   O5        1.0  0.24530254021591552  0.7546973468609528  0.24530235320479948  1.0000
  O   O6        1.0  0.7546999188307711  0.24530009658901752  0.7546995436744725  1.0000
