data_image0
_chemical_formula_structural       Sc2NbSe6
_chemical_formula_sum              "Sc2 Nb1 Se6"
_cell_length_a       6.695223644184245
_cell_length_b       6.69522373948358
_cell_length_c       6.695223677843295
_cell_angle_alpha    59.99999996675911
_cell_angle_beta     59.99999933353965
_cell_angle_gamma    60.000000566471186

_space_group_name_H-M_alt    "P 1"
_space_group_IT_number       1

loop_
  _space_group_symop_operation_xyz
  'x, y, z'

loop_
  _atom_site_type_symbol
  _atom_site_label
  _atom_site_symmetry_multiplicity
  _atom_site_fract_x
  _atom_site_fract_y
  _atom_site_fract_z
  _atom_site_occupancy
  Sc  Sc1       1.0  0.2500000313531607  0.24999986891639905  0.2500000902639389  1.0000
  Sc  Sc2       1.0  0.7500000036744152  0.7499999451662673  0.7499999765051775  1.0000
  Nb  Nb1       1.0  0.9999999616568872  0.9999999908535926  0.9999999893919125  1.0000
  Se  Se1       1.0  0.2602320340128528  0.2602320398293969  0.7397679244129489  1.0000
  Se  Se2       1.0  0.739767934219027  0.7397680212062663  0.2602320418223021  1.0000
  Se  Se3       1.0  0.7397678378401971  0.26023210132517405  0.26023207967276  1.0000
  Se  Se4       1.0  0.26023207497527623  0.7397680017839625  0.7397679619396534  1.0000
  Se  Se5       1.0  0.26023214741072015  0.7397679624697515  0.2602320188012683  1.0000
  Se  Se6       1.0  0.7397679823476838  0.2602320692974091  0.739767909683411  1.0000
