data_image0
_chemical_formula_structural       Sc2OsO6
_chemical_formula_sum              "Sc2 Os1 O6"
_cell_length_a       5.226790805317436
_cell_length_b       5.226790770676331
_cell_length_c       5.226790804889347
_cell_angle_alpha    60.0000000074551
_cell_angle_beta     60.00000002064635
_cell_angle_gamma    60.00000103875321

_space_group_name_H-M_alt    "P 1"
_space_group_IT_number       1

loop_
  _space_group_symop_operation_xyz
  'x, y, z'

loop_
  _atom_site_type_symbol
  _atom_site_label
  _atom_site_symmetry_multiplicity
  _atom_site_fract_x
  _atom_site_fract_y
  _atom_site_fract_z
  _atom_site_occupancy
  Sc  Sc1       1.0  0.24999994519828794  0.250000034427852  0.24999998913087224  1.0000
  Sc  Sc2       1.0  0.7500000367236679  0.7499999439455355  0.749999969455863  1.0000
  Os  Os1       1.0  0.9999999741596987  0.9999999648519062  2.6667757715615573e-08  1.0000
  O   O1        1.0  0.2526843528493292  0.25268444555449515  0.747315651981573  1.0000
  O   O2        1.0  0.7473156677890656  0.7473155492213369  0.25268444166940907  1.0000
  O   O3        1.0  0.7473155049608778  0.2526843997917786  0.25268437719068676  1.0000
  O   O4        1.0  0.2526844696864313  0.7473155738951965  0.7473155969426772  1.0000
  O   O5        1.0  0.2526844076989983  0.7473156734306442  0.25268438543343064  1.0000
  O   O6        1.0  0.747315624720461  0.2526843986709932  0.7473155718295631  1.0000
