data_image0
_chemical_formula_structural       Sc2PdS6
_chemical_formula_sum              "Sc2 Pd1 S6"
_cell_length_a       6.2174262021505164
_cell_length_b       6.217426205698747
_cell_length_c       6.217426445418065
_cell_angle_alpha    60.00000016684368
_cell_angle_beta     59.99999921844142
_cell_angle_gamma    60.000000507457955

_space_group_name_H-M_alt    "P 1"
_space_group_IT_number       1

loop_
  _space_group_symop_operation_xyz
  'x, y, z'

loop_
  _atom_site_type_symbol
  _atom_site_label
  _atom_site_symmetry_multiplicity
  _atom_site_fract_x
  _atom_site_fract_y
  _atom_site_fract_z
  _atom_site_occupancy
  Sc  Sc1       1.0  0.2500000260376045  0.2500000331501583  0.2500000106569475  1.0000
  Sc  Sc2       1.0  0.7499999918189955  0.7500000797518888  0.7499999096533495  1.0000
  Pd  Pd1       1.0  0.9999999903953534  0.9999999842411316  0.9999998759692433  1.0000
  S   S1        1.0  0.2619493307031064  0.2619492462204669  0.7380507064951656  1.0000
  S   S2        1.0  0.7380506999318939  0.7380506834847587  0.2619493617512582  1.0000
  S   S3        1.0  0.7380506975369182  0.2619492280015719  0.2619493738449639  1.0000
  S   S4        1.0  0.26194921888827416  0.7380507824678434  0.7380507030823568  1.0000
  S   S5        1.0  0.2619493313128834  0.7380506495351641  0.2619492803742901  1.0000
  S   S6        1.0  0.7380507168995256  0.26194929986864457  0.7380507676257554  1.0000
