data_image0
_chemical_formula_structural       Sc2PbO6
_chemical_formula_sum              "Sc2 Pb1 O6"
_cell_length_a       5.3285990592294326
_cell_length_b       5.328599126701056
_cell_length_c       5.3285990418776095
_cell_angle_alpha    60.00000044251773
_cell_angle_beta     59.99999990477227
_cell_angle_gamma    59.99999998770478

_space_group_name_H-M_alt    "P 1"
_space_group_IT_number       1

loop_
  _space_group_symop_operation_xyz
  'x, y, z'

loop_
  _atom_site_type_symbol
  _atom_site_label
  _atom_site_symmetry_multiplicity
  _atom_site_fract_x
  _atom_site_fract_y
  _atom_site_fract_z
  _atom_site_occupancy
  Sc  Sc1       1.0  0.24999978681852225  0.2500002957523547  0.25000013064937093  1.0000
  Sc  Sc2       1.0  0.7500001087839481  0.7499998644526574  0.7500000806629802  1.0000
  Pb  Pb1       1.0  1.1338181515754894e-08  1.149218424972567e-08  0.9999999960914806  1.0000
  O   O1        1.0  0.26567757836579353  0.2656777127637423  0.7343222915766182  1.0000
  O   O2        1.0  0.7343224717538794  0.7343221854194669  0.2656776394415066  1.0000
  O   O3        1.0  0.734322332481731  0.2656777381194727  0.2656775942291005  1.0000
  O   O4        1.0  0.26567763353847856  0.7343223278496278  0.7343223493691208  1.0000
  O   O5        1.0  0.26567764793173443  0.7343221900306188  0.265677695956262  1.0000
  O   O6        1.0  0.7343224232456667  0.2656776644822899  0.7343222444914831  1.0000
