data_image0
_chemical_formula_structural       Sc2PdO6
_chemical_formula_sum              "Sc2 Pd1 O6"
_cell_length_a       5.104332964362936
_cell_length_b       5.104332862747154
_cell_length_c       5.104332854624683
_cell_angle_alpha    59.99999926679693
_cell_angle_beta     60.00000017690373
_cell_angle_gamma    59.99999926798896

_space_group_name_H-M_alt    "P 1"
_space_group_IT_number       1

loop_
  _space_group_symop_operation_xyz
  'x, y, z'

loop_
  _atom_site_type_symbol
  _atom_site_label
  _atom_site_symmetry_multiplicity
  _atom_site_fract_x
  _atom_site_fract_y
  _atom_site_fract_z
  _atom_site_occupancy
  Sc  Sc1       1.0  0.24999997366125504  0.2500000513534109  0.2500000325438862  1.0000
  Sc  Sc2       1.0  0.7500001844062535  0.7500000220920208  0.7499998477472507  1.0000
  Pd  Pd1       1.0  1.1658351544237871e-07  0.9999999760057763  3.9842556791633423e-07  1.0000
  O   O1        1.0  0.2644999870421929  0.26450006250815555  0.7355000049849666  1.0000
  O   O2        1.0  0.7354999088183535  0.735499881368485  0.26450010058084733  1.0000
  O   O3        1.0  0.7354999593584571  0.26449993661090865  0.2645000754194177  1.0000
  O   O4        1.0  0.2645002611216127  0.7354996713466456  0.7354997948244322  1.0000
  O   O5        1.0  0.264499802953537  0.7355001304818376  0.2644999695896767  1.0000
  O   O6        1.0  0.7354998116102678  0.26450025008961964  0.7354997526543959  1.0000
