data_image0
_chemical_formula_structural       Sc2PO6
_chemical_formula_sum              "Sc2 P1 O6"
_cell_length_a       4.829325278044414
_cell_length_b       4.82932542318156
_cell_length_c       4.82932535422829
_cell_angle_alpha    59.99999784394214
_cell_angle_beta     59.999998251528325
_cell_angle_gamma    59.999998513095456

_space_group_name_H-M_alt    "P 1"
_space_group_IT_number       1

loop_
  _space_group_symop_operation_xyz
  'x, y, z'

loop_
  _atom_site_type_symbol
  _atom_site_label
  _atom_site_symmetry_multiplicity
  _atom_site_fract_x
  _atom_site_fract_y
  _atom_site_fract_z
  _atom_site_occupancy
  Sc  Sc1       1.0  0.2499999615358106  0.2499998554400522  0.2500000330590351  1.0000
  Sc  Sc2       1.0  0.7500000463925618  0.7499999847697072  0.7499999871384593  1.0000
  P   P1        1.0  2.3765144398504068e-08  7.608173165838635e-09  8.788016782978193e-10  1.0000
  O   O1        1.0  0.24621976416601463  0.24621985109817618  0.7537802070964604  1.0000
  O   O2        1.0  0.7537801422247684  0.7537802148207361  0.24621984626664842  1.0000
  O   O3        1.0  0.7537802397985935  0.24621981337057908  0.24621983401748243  1.0000
  O   O4        1.0  0.24621982766065992  0.7537802068992889  0.7537801823427389  1.0000
  O   O5        1.0  0.24621984921579493  0.7537802399583463  0.24621978786056872  1.0000
  O   O6        1.0  0.7537801428414168  0.2462198056721018  0.7537802348842401  1.0000
