data_image0
_chemical_formula_structural       Sc2PdSe6
_chemical_formula_sum              "Sc2 Pd1 Se6"
_cell_length_a       6.623115617131437
_cell_length_b       6.623115728820131
_cell_length_c       6.623115684487978
_cell_angle_alpha    59.99999934328222
_cell_angle_beta     60.000000280962105
_cell_angle_gamma    59.999999521056246

_space_group_name_H-M_alt    "P 1"
_space_group_IT_number       1

loop_
  _space_group_symop_operation_xyz
  'x, y, z'

loop_
  _atom_site_type_symbol
  _atom_site_label
  _atom_site_symmetry_multiplicity
  _atom_site_fract_x
  _atom_site_fract_y
  _atom_site_fract_z
  _atom_site_occupancy
  Sc  Sc1       1.0  0.2500000789067839  0.24999993762371803  0.250000134340292  1.0000
  Sc  Sc2       1.0  0.7499998891349956  0.750000212297813  0.7499999633976474  1.0000
  Pd  Pd1       1.0  0.9999999689172056  1.4793579429917007e-08  4.438132900646791e-08  1.0000
  Se  Se1       1.0  0.2610279367427678  0.2610277074056837  0.7389721918323845  1.0000
  Se  Se2       1.0  0.7389722264284819  0.7389721447950556  0.2610278817080482  1.0000
  Se  Se3       1.0  0.7389721335108502  0.26102783350672676  0.2610277610567783  1.0000
  Se  Se4       1.0  0.2610278821144501  0.7389723201132035  0.7389719456532573  1.0000
  Se  Se5       1.0  0.2610277749581727  0.7389721096299465  0.26102784367536436  1.0000
  Se  Se6       1.0  0.7389721171700908  0.26102772407882147  0.7389722342152493  1.0000
