data_image0
_chemical_formula_structural       Sc2PO6
_chemical_formula_sum              "Sc2 P1 O6"
_cell_length_a       4.829900915176262
_cell_length_b       4.82990072845027
_cell_length_c       4.829900216030926
_cell_angle_alpha    60.00000060696423
_cell_angle_beta     59.999999705628184
_cell_angle_gamma    60.000000135774386

_space_group_name_H-M_alt    "P 1"
_space_group_IT_number       1

loop_
  _space_group_symop_operation_xyz
  'x, y, z'

loop_
  _atom_site_type_symbol
  _atom_site_label
  _atom_site_symmetry_multiplicity
  _atom_site_fract_x
  _atom_site_fract_y
  _atom_site_fract_z
  _atom_site_occupancy
  Sc  Sc1       1.0  0.2499998956600687  0.2499999154925152  0.25000014600124143  1.0000
  Sc  Sc2       1.0  0.7500000133462359  0.750000058375509  0.7500000298429538  1.0000
  P   P1        1.0  2.1081533413473002e-08  2.282180206242458e-08  0.9999999801187671  1.0000
  O   O1        1.0  0.2462056776134847  0.24620567247112032  0.7537943129915752  1.0000
  O   O2        1.0  0.7537942649583532  0.7537943800053355  0.24620563906030643  1.0000
  O   O3        1.0  0.7537943746230793  0.24620567640847543  0.24620564807137096  1.0000
  O   O4        1.0  0.246205611972233  0.7537943659249572  0.7537943077446453  1.0000
  O   O5        1.0  0.2462056615648071  0.7537943094838502  0.24620565915848514  1.0000
  O   O6        1.0  0.7537944045296797  0.24620565931266591  0.7537942646902944  1.0000
