data_image0
_chemical_formula_structural       Sc2PS6
_chemical_formula_sum              "Sc2 P1 S6"
_cell_length_a       6.036010245806379
_cell_length_b       6.036010063850905
_cell_length_c       6.036009991926406
_cell_angle_alpha    60.000000000422375
_cell_angle_beta     60.00000032047743
_cell_angle_gamma    59.999999035811776

_space_group_name_H-M_alt    "P 1"
_space_group_IT_number       1

loop_
  _space_group_symop_operation_xyz
  'x, y, z'

loop_
  _atom_site_type_symbol
  _atom_site_label
  _atom_site_symmetry_multiplicity
  _atom_site_fract_x
  _atom_site_fract_y
  _atom_site_fract_z
  _atom_site_occupancy
  Sc  Sc1       1.0  0.2500001067412674  0.2499998974058253  0.2500001383062168  1.0000
  Sc  Sc2       1.0  0.749999998713646  0.7500001000592774  0.7499998747357591  1.0000
  P   P1        1.0  1.4067491149127473e-08  0.9999999979709362  0.9999999939807862  1.0000
  S   S1        1.0  0.25125016400579847  0.2512501453572593  0.7487498985468334  1.0000
  S   S2        1.0  0.7487498145532926  0.7487497851487427  0.2512503340201492  1.0000
  S   S3        1.0  0.7487497706354003  0.251250181084941  0.2512500576844059  1.0000
  S   S4        1.0  0.2512501597466545  0.7487499685599387  0.748749733206089  1.0000
  S   S5        1.0  0.25125009985087665  0.748749842965485  0.2512501491752211  1.0000
  S   S6        1.0  0.7487498422647133  0.251250059133626  0.7487498358306753  1.0000
