data_image0
_chemical_formula_structural       Sc2PbTe6
_chemical_formula_sum              "Sc2 Pb1 Te6"
_cell_length_a       7.42598511634885
_cell_length_b       7.425985115939486
_cell_length_c       7.425984907834605
_cell_angle_alpha    60.000000501706644
_cell_angle_beta     60.000000309075425
_cell_angle_gamma    59.99999886366206

_space_group_name_H-M_alt    "P 1"
_space_group_IT_number       1

loop_
  _space_group_symop_operation_xyz
  'x, y, z'

loop_
  _atom_site_type_symbol
  _atom_site_label
  _atom_site_symmetry_multiplicity
  _atom_site_fract_x
  _atom_site_fract_y
  _atom_site_fract_z
  _atom_site_occupancy
  Sc  Sc1       1.0  0.25000008035801685  0.25000001875137  0.24999993043713944  1.0000
  Sc  Sc2       1.0  0.7499999834246409  0.7500000315150757  0.7499999984901549  1.0000
  Pb  Pb1       1.0  3.009372915790925e-08  0.9999999983507302  1.2710224589185551e-08  1.0000
  Te  Te1       1.0  0.27729936174787206  0.2772993694385926  0.7227006325081895  1.0000
  Te  Te2       1.0  0.7227006187441523  0.7227006181556238  0.2772993774802732  1.0000
  Te  Te3       1.0  0.7227006219365436  0.27729936767892344  0.27729934257089717  1.0000
  Te  Te4       1.0  0.2772993729272877  0.7227006001240622  0.7227006445414457  1.0000
  Te  Te5       1.0  0.2772993786393273  0.7227005913328308  0.2772993961390362  1.0000
  Te  Te6       1.0  0.7227005581255637  0.27729940615700166  0.7227006671239986  1.0000
