data_image0
_chemical_formula_structural       Sc2PS6
_chemical_formula_sum              "Sc2 P1 S6"
_cell_length_a       6.036392636764107
_cell_length_b       6.036393068698794
_cell_length_c       6.036392754281444
_cell_angle_alpha    59.99999698430397
_cell_angle_beta     59.9999970577269
_cell_angle_gamma    59.99999791912245

_space_group_name_H-M_alt    "P 1"
_space_group_IT_number       1

loop_
  _space_group_symop_operation_xyz
  'x, y, z'

loop_
  _atom_site_type_symbol
  _atom_site_label
  _atom_site_symmetry_multiplicity
  _atom_site_fract_x
  _atom_site_fract_y
  _atom_site_fract_z
  _atom_site_occupancy
  Sc  Sc1       1.0  0.2500000227188887  0.24999999357485878  0.250000143036524  1.0000
  Sc  Sc2       1.0  0.7500001585833566  0.7500000537662749  0.7499994412050457  1.0000
  P   P1        1.0  0.9999999453182937  0.9999999918842541  1.8049439364543325e-07  1.0000
  S   S1        1.0  0.2512268233759653  0.2512268355579677  0.7487731796556676  1.0000
  S   S2        1.0  0.7487731203952598  0.748773396416228  0.2512269710925146  1.0000
  S   S3        1.0  0.7487731218122482  0.2512266590446365  0.2512269004337985  1.0000
  S   S4        1.0  0.25122689670478854  0.7487731306217478  0.7487731060849322  1.0000
  S   S5        1.0  0.2512267116534203  0.748773071871197  0.2512269644711867  1.0000
  S   S6        1.0  0.7487731989654521  0.251226892283592  0.7487731164326228  1.0000
