data_image0
_chemical_formula_structural       Sc2PSe6
_chemical_formula_sum              "Sc2 P1 Se6"
_cell_length_a       6.451964840384102
_cell_length_b       6.451964819135421
_cell_length_c       6.451964934505654
_cell_angle_alpha    59.99999982795527
_cell_angle_beta     60.00000017922224
_cell_angle_gamma    59.99999879366155

_space_group_name_H-M_alt    "P 1"
_space_group_IT_number       1

loop_
  _space_group_symop_operation_xyz
  'x, y, z'

loop_
  _atom_site_type_symbol
  _atom_site_label
  _atom_site_symmetry_multiplicity
  _atom_site_fract_x
  _atom_site_fract_y
  _atom_site_fract_z
  _atom_site_occupancy
  Sc  Sc1       1.0  0.2500001401039195  0.2499998756015108  0.2499997481794237  1.0000
  Sc  Sc2       1.0  0.7499999783423139  0.7500000292337557  0.7500000795638964  1.0000
  P   P1        1.0  0.9999999678941752  0.9999999943052473  3.904918910391207e-08  1.0000
  Se  Se1       1.0  0.25094592395773796  0.25094600109192183  0.749054117873152  1.0000
  Se  Se2       1.0  0.7490540084662869  0.7490540859754452  0.2509458621070184  1.0000
  Se  Se3       1.0  0.7490540190318324  0.25094595827652844  0.250946020582848  1.0000
  Se  Se4       1.0  0.2509460196724285  0.7490540300817845  0.749054062555896  1.0000
  Se  Se5       1.0  0.2509459704815856  0.7490540764151035  0.2509460034754547  1.0000
  Se  Se6       1.0  0.7490539614368792  0.25094597458549434  0.7490540676369052  1.0000
