data_image0
_chemical_formula_structural       Sc2ReO6
_chemical_formula_sum              "Sc2 Re1 O6"
_cell_length_a       5.186870250755287
_cell_length_b       5.186870296767743
_cell_length_c       5.186870252637323
_cell_angle_alpha    59.99999974593867
_cell_angle_beta     59.99999952867913
_cell_angle_gamma    59.99999922891509

_space_group_name_H-M_alt    "P 1"
_space_group_IT_number       1

loop_
  _space_group_symop_operation_xyz
  'x, y, z'

loop_
  _atom_site_type_symbol
  _atom_site_label
  _atom_site_symmetry_multiplicity
  _atom_site_fract_x
  _atom_site_fract_y
  _atom_site_fract_z
  _atom_site_occupancy
  Sc  Sc1       1.0  0.2500001370988243  0.2499998230513965  0.25000006309776707  1.0000
  Sc  Sc2       1.0  0.7500001104623765  0.7499997572255467  0.7500000009522367  1.0000
  Re  Re1       1.0  0.9999999938383998  1.1806202877735498e-08  4.3448376037047614e-08  1.0000
  O   O1        1.0  0.2542546968254938  0.2542549251792039  0.7457452367041706  1.0000
  O   O2        1.0  0.7457452131094138  0.7457451604032309  0.25425489774182447  1.0000
  O   O3        1.0  0.7457451332365962  0.25425495533360426  0.25425471449670534  1.0000
  O   O4        1.0  0.25425482241052144  0.7457453403992452  0.7457450298174713  1.0000
  O   O5        1.0  0.2542547735172689  0.7457451866879724  0.2542548265948083  1.0000
  O   O6        1.0  0.745745115752979  0.2542548540308918  0.7457451767399864  1.0000
