data_image0
_chemical_formula_structural       Sc2RhO6
_chemical_formula_sum              "Sc2 Rh1 O6"
_cell_length_a       5.1253965292453465
_cell_length_b       5.125396479633323
_cell_length_c       5.125396557676279
_cell_angle_alpha    59.99999998707558
_cell_angle_beta     60.000000436795496
_cell_angle_gamma    59.99999948620548

_space_group_name_H-M_alt    "P 1"
_space_group_IT_number       1

loop_
  _space_group_symop_operation_xyz
  'x, y, z'

loop_
  _atom_site_type_symbol
  _atom_site_label
  _atom_site_symmetry_multiplicity
  _atom_site_fract_x
  _atom_site_fract_y
  _atom_site_fract_z
  _atom_site_occupancy
  Sc  Sc1       1.0  0.24999999666119796  0.24999993548914223  0.25000009673385376  1.0000
  Sc  Sc2       1.0  0.749999925758183  0.7500001816285404  0.7499997737860303  1.0000
  Rh  Rh1       1.0  2.9697682861232753e-08  0.9999999784939487  0.9999999959041843  1.0000
  O   O1        1.0  0.26086543907806237  0.26086534129329686  0.739134602702799  1.0000
  O   O2        1.0  0.7391345601703687  0.7391346061655383  0.26086550933883795  1.0000
  O   O3        1.0  0.7391345990678642  0.2608652378844945  0.26086552848669103  1.0000
  O   O4        1.0  0.26086544389539906  0.7391347406386362  0.7391344954376002  1.0000
  O   O5        1.0  0.26086539153927857  0.739134598114697  0.260865385331401  1.0000
  O   O6        1.0  0.7391346123281657  0.2608653827979951  0.7391346335331963  1.0000
