data_image0
_chemical_formula_structural       Sc2RhS6
_chemical_formula_sum              "Sc2 Rh1 S6"
_cell_length_a       6.195469740853173
_cell_length_b       6.195469623152506
_cell_length_c       6.195469511231325
_cell_angle_alpha    60.00000080837324
_cell_angle_beta     60.0000007515713
_cell_angle_gamma    60.000001473049025

_space_group_name_H-M_alt    "P 1"
_space_group_IT_number       1

loop_
  _space_group_symop_operation_xyz
  'x, y, z'

loop_
  _atom_site_type_symbol
  _atom_site_label
  _atom_site_symmetry_multiplicity
  _atom_site_fract_x
  _atom_site_fract_y
  _atom_site_fract_z
  _atom_site_occupancy
  Sc  Sc1       1.0  0.25000006152142845  0.2500000442960477  0.24999998119649408  1.0000
  Sc  Sc2       1.0  0.7499997211996959  0.7500000300924863  0.7500001362809771  1.0000
  Rh  Rh1       1.0  0.9999999649273131  0.9999999822084447  2.158987316511896e-08  1.0000
  S   S1        1.0  0.25978363389160425  0.2597835770391071  0.7402164244858012  1.0000
  S   S2        1.0  0.7402164678399534  0.7402163510633142  0.2597835856464336  1.0000
  S   S3        1.0  0.74021636026064  0.25978361253750093  0.2597835631102149  1.0000
  S   S4        1.0  0.25978373420310963  0.7402163709164238  0.740216360030948  1.0000
  S   S5        1.0  0.2597836879200914  0.7402164104206892  0.2597835205818436  1.0000
  S   S6        1.0  0.7402163679307273  0.2597836105931838  0.7402163901731494  1.0000
