data_image0
_chemical_formula_structural       Sc2RuS6
_chemical_formula_sum              "Sc2 Ru1 S6"
_cell_length_a       6.123122412956652
_cell_length_b       6.123122623648299
_cell_length_c       6.123122714489863
_cell_angle_alpha    60.00000125238681
_cell_angle_beta     60.00000126376157
_cell_angle_gamma    60.000002956323904

_space_group_name_H-M_alt    "P 1"
_space_group_IT_number       1

loop_
  _space_group_symop_operation_xyz
  'x, y, z'

loop_
  _atom_site_type_symbol
  _atom_site_label
  _atom_site_symmetry_multiplicity
  _atom_site_fract_x
  _atom_site_fract_y
  _atom_site_fract_z
  _atom_site_occupancy
  Sc  Sc1       1.0  0.2500001745097051  0.2500000867851612  0.2499997495423792  1.0000
  Sc  Sc2       1.0  0.7499997188075259  0.7500001343430969  0.7500004946415348  1.0000
  Ru  Ru1       1.0  0.9999999915612682  1.4001375330643557e-08  0.9999999955855247  1.0000
  S   S1        1.0  0.26214815515727186  0.2621480368261759  0.7378518830628666  1.0000
  S   S2        1.0  0.7378518750850837  0.737851926276732  0.2621479464234574  1.0000
  S   S3        1.0  0.7378519910077711  0.26214813509577395  0.26214794663534086  1.0000
  S   S4        1.0  0.26214807816972646  0.7378518300073319  0.7378519554730704  1.0000
  S   S5        1.0  0.2621482102238132  0.7378518618105316  0.26214799076789924  1.0000
  S   S6        1.0  0.7378517968006746  0.26214796727921114  0.7378520055242342  1.0000
