data_image0
_chemical_formula_structural       Sc2RhSe6
_chemical_formula_sum              "Sc2 Rh1 Se6"
_cell_length_a       6.5886515091544045
_cell_length_b       6.58865159155776
_cell_length_c       6.588651499302709
_cell_angle_alpha    59.999999325314846
_cell_angle_beta     59.99999993499476
_cell_angle_gamma    60.00000096615891

_space_group_name_H-M_alt    "P 1"
_space_group_IT_number       1

loop_
  _space_group_symop_operation_xyz
  'x, y, z'

loop_
  _atom_site_type_symbol
  _atom_site_label
  _atom_site_symmetry_multiplicity
  _atom_site_fract_x
  _atom_site_fract_y
  _atom_site_fract_z
  _atom_site_occupancy
  Sc  Sc1       1.0  0.24999994587336333  0.24999994821922586  0.24999996564585414  1.0000
  Sc  Sc2       1.0  0.749999957978681  0.7499999357423197  0.7500000932504358  1.0000
  Rh  Rh1       1.0  1.6711592511409833e-08  0.9999999814112972  5.4918390740616935e-09  1.0000
  Se  Se1       1.0  0.2574980843473282  0.2574981359724043  0.742501926970655  1.0000
  Se  Se2       1.0  0.7425019070415055  0.7425019059931166  0.25749808049003037  1.0000
  Se  Se3       1.0  0.7425018802402411  0.25749816553218996  0.2574980814992652  1.0000
  Se  Se4       1.0  0.2574981762059238  0.74250186528011  0.742501899009365  1.0000
  Se  Se5       1.0  0.2574981244024976  0.7425019382458109  0.2574980951120701  1.0000
  Se  Se6       1.0  0.7425019152257645  0.2574981167318032  0.7425018422610616  1.0000
