data_image0
_chemical_formula_structural       Sc2ReTe6
_chemical_formula_sum              "Sc2 Re1 Te6"
_cell_length_a       7.154731555174959
_cell_length_b       7.154731511421425
_cell_length_c       7.154731565778871
_cell_angle_alpha    60.00000051213894
_cell_angle_beta     59.99999993758342
_cell_angle_gamma    60.00000032856243

_space_group_name_H-M_alt    "P 1"
_space_group_IT_number       1

loop_
  _space_group_symop_operation_xyz
  'x, y, z'

loop_
  _atom_site_type_symbol
  _atom_site_label
  _atom_site_symmetry_multiplicity
  _atom_site_fract_x
  _atom_site_fract_y
  _atom_site_fract_z
  _atom_site_occupancy
  Sc  Sc1       1.0  0.25000005220484306  0.2500000027129588  0.24999995119158835  1.0000
  Sc  Sc2       1.0  0.7499998926848936  0.7500000252568477  0.7500000832040092  1.0000
  Re  Re1       1.0  4.672193316680399e-08  0.9999999760348407  0.9999999872239365  1.0000
  Te  Te1       1.0  0.25872495537687995  0.25872489652817243  0.7412750775017484  1.0000
  Te  Te2       1.0  0.741275050580868  0.7412750886467064  0.258724897440954  1.0000
  Te  Te3       1.0  0.7412750615214172  0.2587249502120611  0.25872493164291394  1.0000
  Te  Te4       1.0  0.25872492048796814  0.7412750777577455  0.7412750939765946  1.0000
  Te  Te5       1.0  0.2587249778859541  0.7412750461682185  0.25872490455513364  1.0000
  Te  Te6       1.0  0.7412750420262749  0.2587249407184574  0.7412750723381651  1.0000
