data_image0
_chemical_formula_structural       Sc2RuO6
_chemical_formula_sum              "Sc2 Ru1 O6"
_cell_length_a       5.14866203783932
_cell_length_b       5.148661928449856
_cell_length_c       5.148661854126765
_cell_angle_alpha    60.0000011960429
_cell_angle_beta     60.000001131991375
_cell_angle_gamma    60.000000655119734

_space_group_name_H-M_alt    "P 1"
_space_group_IT_number       1

loop_
  _space_group_symop_operation_xyz
  'x, y, z'

loop_
  _atom_site_type_symbol
  _atom_site_label
  _atom_site_symmetry_multiplicity
  _atom_site_fract_x
  _atom_site_fract_y
  _atom_site_fract_z
  _atom_site_occupancy
  Sc  Sc1       1.0  0.2500000904976896  0.24999991532983626  0.24999988627218592  1.0000
  Sc  Sc2       1.0  0.7499998715620777  0.7499998625489169  0.75000007824442  1.0000
  Ru  Ru1       1.0  0.9999999662231625  7.1362896661465456e-09  0.9999999569949591  1.0000
  O   O1        1.0  0.25782566142590757  0.2578256847910781  0.7421743409916008  1.0000
  O   O2        1.0  0.7421743087844688  0.7421743714029954  0.25782568617077894  1.0000
  O   O3        1.0  0.7421744031885894  0.2578257149052499  0.25782560058245446  1.0000
  O   O4        1.0  0.25782573760452004  0.7421743341525336  0.7421743448567035  1.0000
  O   O5        1.0  0.25782561327397324  0.7421744252693919  0.25782567035632264  1.0000
  O   O6        1.0  0.7421743373621206  0.2578257165601646  0.7421743878697811  1.0000
