data_image0
_chemical_formula_structural       Sc2ReS6
_chemical_formula_sum              "Sc2 Re1 S6"
_cell_length_a       6.224474499234505
_cell_length_b       6.2244745773700645
_cell_length_c       6.224474699729167
_cell_angle_alpha    59.99999917741853
_cell_angle_beta     59.99999835311885
_cell_angle_gamma    59.99999957437211

_space_group_name_H-M_alt    "P 1"
_space_group_IT_number       1

loop_
  _space_group_symop_operation_xyz
  'x, y, z'

loop_
  _atom_site_type_symbol
  _atom_site_label
  _atom_site_symmetry_multiplicity
  _atom_site_fract_x
  _atom_site_fract_y
  _atom_site_fract_z
  _atom_site_occupancy
  Sc  Sc1       1.0  0.2499999569338445  0.2500001408266871  0.24999987099602547  1.0000
  Sc  Sc2       1.0  0.7499999858627979  0.749999965990428  0.7499999748830526  1.0000
  Re  Re1       1.0  3.05431853001512e-09  1.967627734619269e-09  1.0341517039102805e-08  1.0000
  S   S1        1.0  0.26253850522600736  0.2625383902059616  0.7374615765371278  1.0000
  S   S2        1.0  0.7374615051258525  0.7374615139454975  0.2625385328976448  1.0000
  S   S3        1.0  0.7374615569908819  0.26253843962158985  0.2625384803079302  1.0000
  S   S4        1.0  0.26253846657172  0.7374614527241027  0.7374616107521808  1.0000
  S   S5        1.0  0.2625384876604339  0.7374615647632505  0.26253844744425836  1.0000
  S   S6        1.0  0.7374615559673356  0.2625385400862369  0.7374614743148488  1.0000
