data_image0
_chemical_formula_structural       Sc2RuO6
_chemical_formula_sum              "Sc2 Ru1 O6"
_cell_length_a       5.148609535629613
_cell_length_b       5.14860964385061
_cell_length_c       5.1486094645425196
_cell_angle_alpha    60.000000173075364
_cell_angle_beta     60.00000017201725
_cell_angle_gamma    60.00000065080465

_space_group_name_H-M_alt    "P 1"
_space_group_IT_number       1

loop_
  _space_group_symop_operation_xyz
  'x, y, z'

loop_
  _atom_site_type_symbol
  _atom_site_label
  _atom_site_symmetry_multiplicity
  _atom_site_fract_x
  _atom_site_fract_y
  _atom_site_fract_z
  _atom_site_occupancy
  Sc  Sc1       1.0  0.2499999856416272  0.25000026003663745  0.24999985685168827  1.0000
  Sc  Sc2       1.0  0.7499998731898312  0.7499998000494308  0.7500001179910142  1.0000
  Ru  Ru1       1.0  0.9999999913904828  5.946968934858126e-08  0.9999999765121855  1.0000
  O   O1        1.0  0.2578273441181129  0.2578274486048104  0.7421725789289219  1.0000
  O   O2        1.0  0.7421726693732145  0.7421725377388428  0.2578274117809418  1.0000
  O   O3        1.0  0.74217260548775  0.2578274211395411  0.25782731828475763  1.0000
  O   O4        1.0  0.25782746661031364  0.7421725104919973  0.7421727326304997  1.0000
  O   O5        1.0  0.2578273937744796  0.7421725986036919  0.25782734646392585  1.0000
  O   O6        1.0  0.7421726523163072  0.2578273639520856  0.7421726378978741  1.0000
