data_image0
_chemical_formula_structural       Sc2RuSe6
_chemical_formula_sum              "Sc2 Ru1 Se6"
_cell_length_a       6.588289458993816
_cell_length_b       6.588289318814119
_cell_length_c       6.588289603568676
_cell_angle_alpha    59.99999958957393
_cell_angle_beta     59.99999904755768
_cell_angle_gamma    59.99999949716061

_space_group_name_H-M_alt    "P 1"
_space_group_IT_number       1

loop_
  _space_group_symop_operation_xyz
  'x, y, z'

loop_
  _atom_site_type_symbol
  _atom_site_label
  _atom_site_symmetry_multiplicity
  _atom_site_fract_x
  _atom_site_fract_y
  _atom_site_fract_z
  _atom_site_occupancy
  Sc  Sc1       1.0  0.25000007495573273  0.24999992155586812  0.250000148684327  1.0000
  Sc  Sc2       1.0  0.7500000022037853  0.7500000751160097  0.7500000515383778  1.0000
  Ru  Ru1       1.0  1.1029277089719405e-08  3.7179457768612795e-09  5.030448454149199e-08  1.0000
  Se  Se1       1.0  0.25752249402119903  0.2575225407753167  0.7424774168178587  1.0000
  Se  Se2       1.0  0.7424774676574126  0.7424774763452541  0.2575224742274648  1.0000
  Se  Se3       1.0  0.7424774032553854  0.25752255752675085  0.2575225368328389  1.0000
  Se  Se4       1.0  0.257522523652572  0.7424775060681331  0.7424773620212574  1.0000
  Se  Se5       1.0  0.25752255433152615  0.7424774331261962  0.2575225371682373  1.0000
  Se  Se6       1.0  0.7424774787473664  0.25752248546883205  0.7424774205642783  1.0000
