data_image0
_chemical_formula_structural       Sc2RuSe6
_chemical_formula_sum              "Sc2 Ru1 Se6"
_cell_length_a       6.588333416173774
_cell_length_b       6.588333467456447
_cell_length_c       6.588333633466624
_cell_angle_alpha    60.0000002220821
_cell_angle_beta     60.000000282347074
_cell_angle_gamma    60.00000033704946

_space_group_name_H-M_alt    "P 1"
_space_group_IT_number       1

loop_
  _space_group_symop_operation_xyz
  'x, y, z'

loop_
  _atom_site_type_symbol
  _atom_site_label
  _atom_site_symmetry_multiplicity
  _atom_site_fract_x
  _atom_site_fract_y
  _atom_site_fract_z
  _atom_site_occupancy
  Sc  Sc1       1.0  0.24999991663560137  0.24999980796477825  0.25000026572947714  1.0000
  Sc  Sc2       1.0  0.7499999142207167  0.7499999983129845  0.7499998571163894  1.0000
  Ru  Ru1       1.0  0.9999999953434793  2.9743360538339872e-08  0.9999999631712285  1.0000
  Se  Se1       1.0  0.257519649549269  0.2575196560794211  0.7424803286192465  1.0000
  Se  Se2       1.0  0.7424803061304518  0.7424803751325081  0.2575197756847905  1.0000
  Se  Se3       1.0  0.7424803564397799  0.2575196268277311  0.25751964261119453  1.0000
  Se  Se4       1.0  0.2575196542431614  0.7424804917553195  0.7424802963999346  1.0000
  Se  Se5       1.0  0.25751968125635527  0.7424804010975818  0.2575195797607133  1.0000
  Se  Se6       1.0  0.7424805281497731  0.25751962081954644  0.7424802793829297  1.0000
