data_image0
_chemical_formula_structural       Sc2RuS6
_chemical_formula_sum              "Sc2 Ru1 S6"
_cell_length_a       6.123087966861134
_cell_length_b       6.12308803431348
_cell_length_c       6.123087878489987
_cell_angle_alpha    59.9999995592664
_cell_angle_beta     60.00000005708522
_cell_angle_gamma    59.99999941223892

_space_group_name_H-M_alt    "P 1"
_space_group_IT_number       1

loop_
  _space_group_symop_operation_xyz
  'x, y, z'

loop_
  _atom_site_type_symbol
  _atom_site_label
  _atom_site_symmetry_multiplicity
  _atom_site_fract_x
  _atom_site_fract_y
  _atom_site_fract_z
  _atom_site_occupancy
  Sc  Sc1       1.0  0.2500002851445335  0.2499999011444502  0.24999976984204  1.0000
  Sc  Sc2       1.0  0.7499998999140981  0.7499998374472755  0.7500003049512312  1.0000
  Ru  Ru1       1.0  0.9999999236719138  1.4001455915144692e-08  0.9999999968668942  1.0000
  S   S1        1.0  0.2621513680055196  0.262151423340536  0.7378486452951812  1.0000
  S   S2        1.0  0.7378485187641992  0.7378486952906854  0.2621512759345552  1.0000
  S   S3        1.0  0.7378486171461175  0.26215147141084777  0.26215126608943673  1.0000
  S   S4        1.0  0.26215139193684184  0.7378485292081081  0.7378487607785649  1.0000
  S   S5        1.0  0.26215139879087446  0.7378487013861729  0.26215127187808657  1.0000
  S   S6        1.0  0.7378485845933099  0.2621514272460859  0.7378486989331611  1.0000
