data_image0
_chemical_formula_structural       Sc2RhS6
_chemical_formula_sum              "Sc2 Rh1 S6"
_cell_length_a       6.195360546851797
_cell_length_b       6.195360422213518
_cell_length_c       6.195360690302711
_cell_angle_alpha    60.00000042808104
_cell_angle_beta     60.00000066815706
_cell_angle_gamma    60.00000177180819

_space_group_name_H-M_alt    "P 1"
_space_group_IT_number       1

loop_
  _space_group_symop_operation_xyz
  'x, y, z'

loop_
  _atom_site_type_symbol
  _atom_site_label
  _atom_site_symmetry_multiplicity
  _atom_site_fract_x
  _atom_site_fract_y
  _atom_site_fract_z
  _atom_site_occupancy
  Sc  Sc1       1.0  0.24999997584177605  0.25000012338341493  0.24999996384937598  1.0000
  Sc  Sc2       1.0  0.749999880464972  0.7500000360584902  0.7499999513811852  1.0000
  Rh  Rh1       1.0  3.653366048878167e-09  0.9999999387168985  8.208053074457426e-08  1.0000
  S   S1        1.0  0.25979329049846916  0.25979318105545385  0.7402067674126258  1.0000
  S   S2        1.0  0.7402067485397292  0.7402068439590066  0.2597932576371477  1.0000
  S   S3        1.0  0.7402067232489449  0.25979327594237744  0.25979323079518823  1.0000
  S   S4        1.0  0.259793305510838  0.7402067016271001  0.7402068021328403  1.0000
  S   S5        1.0  0.25979329473223084  0.7402066684040126  0.25979321808509803  1.0000
  S   S6        1.0  0.7402067562060064  0.2597932538129839  0.7402067135998384  1.0000
