data_image0
_chemical_formula_structural       Sc2SeO6
_chemical_formula_sum              "Sc2 Se1 O6"
_cell_length_a       5.126578384075008
_cell_length_b       5.126578466704152
_cell_length_c       5.126578353957624
_cell_angle_alpha    60.000000080913615
_cell_angle_beta     59.99999971287378
_cell_angle_gamma    59.99999914873156

_space_group_name_H-M_alt    "P 1"
_space_group_IT_number       1

loop_
  _space_group_symop_operation_xyz
  'x, y, z'

loop_
  _atom_site_type_symbol
  _atom_site_label
  _atom_site_symmetry_multiplicity
  _atom_site_fract_x
  _atom_site_fract_y
  _atom_site_fract_z
  _atom_site_occupancy
  Sc  Sc1       1.0  0.25000004983313007  0.24999998298008774  0.24999995279210846  1.0000
  Sc  Sc2       1.0  0.7500000087587569  0.7500000062765118  0.7499999624983188  1.0000
  Se  Se1       1.0  1.510695687141487e-08  0.9999999952219791  1.0440482181356237e-08  1.0000
  O   O1        1.0  0.24671628317505484  0.2467162641172527  0.7532837156760648  1.0000
  O   O2        1.0  0.7532836887567744  0.7532837418624198  0.24671628529894338  1.0000
  O   O3        1.0  0.7532836915274611  0.2467162925822681  0.24671632347994282  1.0000
  O   O4        1.0  0.24671628757139918  0.7532836918963113  0.7532837236744719  1.0000
  O   O5        1.0  0.24671629398973052  0.7532837137998977  0.24671629540285256  1.0000
  O   O6        1.0  0.7532837003292745  0.2467162993468051  0.7532837200543342  1.0000
