data_image0
_chemical_formula_structural       Sc2SbS6
_chemical_formula_sum              "Sc2 Sb1 S6"
_cell_length_a       6.477058148498489
_cell_length_b       6.477058170950567
_cell_length_c       6.477057888277888
_cell_angle_alpha    60.000000558950624
_cell_angle_beta     60.000000224347
_cell_angle_gamma    60.000000470464606

_space_group_name_H-M_alt    "P 1"
_space_group_IT_number       1

loop_
  _space_group_symop_operation_xyz
  'x, y, z'

loop_
  _atom_site_type_symbol
  _atom_site_label
  _atom_site_symmetry_multiplicity
  _atom_site_fract_x
  _atom_site_fract_y
  _atom_site_fract_z
  _atom_site_occupancy
  Sc  Sc1       1.0  0.25000004641169987  0.2500000442734109  0.24999995797930732  1.0000
  Sc  Sc2       1.0  0.7499999243344462  0.7499999966756609  0.7500002702397901  1.0000
  Sb  Sb1       1.0  0.9999999791291015  3.781793785942381e-09  0.9999999761224244  1.0000
  S   S1        1.0  0.2638999874250405  0.2638999481713119  0.7361000624660846  1.0000
  S   S2        1.0  0.7361000252081563  0.7361000152509926  0.2638998639833235  1.0000
  S   S3        1.0  0.7361000280473474  0.2638999992323372  0.2638998918592847  1.0000
  S   S4        1.0  0.2638999638941263  0.7361000209168711  0.736100072153324  1.0000
  S   S5        1.0  0.26390006428116153  0.7361000350270702  0.26389985508597347  1.0000
  S   S6        1.0  0.7361000016183895  0.2638999397406149  0.7361000745675168  1.0000
