data_image0
_chemical_formula_structural       Sc2SbO6
_chemical_formula_sum              "Sc2 Sb1 O6"
_cell_length_a       5.218761256291518
_cell_length_b       5.218761378718119
_cell_length_c       5.21876131665146
_cell_angle_alpha    60.00000012198923
_cell_angle_beta     59.99999995141285
_cell_angle_gamma    59.9999997315224

_space_group_name_H-M_alt    "P 1"
_space_group_IT_number       1

loop_
  _space_group_symop_operation_xyz
  'x, y, z'

loop_
  _atom_site_type_symbol
  _atom_site_label
  _atom_site_symmetry_multiplicity
  _atom_site_fract_x
  _atom_site_fract_y
  _atom_site_fract_z
  _atom_site_occupancy
  Sc  Sc1       1.0  0.2500000625996966  0.24999997296046148  0.24999991559326024  1.0000
  Sc  Sc2       1.0  0.7500000471746262  0.7500000221410861  0.7499999877371282  1.0000
  Sb  Sb1       1.0  0.9999999992177294  2.346811513552849e-09  0.9999999743076039  1.0000
  O   O1        1.0  0.26069943332817297  0.2606993772251227  0.7393005744104937  1.0000
  O   O2        1.0  0.7393005435332017  0.7393006648126537  0.2606994178961781  1.0000
  O   O3        1.0  0.739300652220991  0.2606994002296187  0.2606993727454205  1.0000
  O   O4        1.0  0.26069931583605943  0.73930056201657  0.7393006906854966  1.0000
  O   O5        1.0  0.2606994068185728  0.7393006227635598  0.26069933408568075  1.0000
  O   O6        1.0  0.7393005539296105  0.26069937468480003  0.7393007153985843  1.0000
