data_image0
_chemical_formula_structural       Sc2SnTe6
_chemical_formula_sum              "Sc2 Sn1 Te6"
_cell_length_a       7.348947735222381
_cell_length_b       7.348947681849068
_cell_length_c       7.348947755319788
_cell_angle_alpha    59.999999734499795
_cell_angle_beta     60.0000001707575
_cell_angle_gamma    59.99999992120699

_space_group_name_H-M_alt    "P 1"
_space_group_IT_number       1

loop_
  _space_group_symop_operation_xyz
  'x, y, z'

loop_
  _atom_site_type_symbol
  _atom_site_label
  _atom_site_symmetry_multiplicity
  _atom_site_fract_x
  _atom_site_fract_y
  _atom_site_fract_z
  _atom_site_occupancy
  Sc  Sc1       1.0  0.2500000244800041  0.2500000021990588  0.24999999439934814  1.0000
  Sc  Sc2       1.0  0.7499999821334683  0.7499999882650366  0.7500000135240837  1.0000
  Sn  Sn1       1.0  1.1363617797384115e-08  8.332790843691254e-09  0.9999999751836665  1.0000
  Te  Te1       1.0  0.26799722288175765  0.2679971920520217  0.7320027870274267  1.0000
  Te  Te2       1.0  0.7320027771607943  0.7320028134110972  0.2679972071567805  1.0000
  Te  Te3       1.0  0.7320027646289968  0.2679972212069886  0.2679972074301923  1.0000
  Te  Te4       1.0  0.2679972143365247  0.7320027909223628  0.7320028007631091  1.0000
  Te  Te5       1.0  0.26799719644394293  0.7320027843711224  0.26799721741773785  1.0000
  Te  Te6       1.0  0.732002813502646  0.26799719609362405  0.7320027883958544  1.0000
