data_image0
_chemical_formula_structural       Sc2SiO6
_chemical_formula_sum              "Sc2 Si1 O6"
_cell_length_a       4.874491357154449
_cell_length_b       4.874491479812621
_cell_length_c       4.874491342920305
_cell_angle_alpha    60.00000034214616
_cell_angle_beta     60.0000008338423
_cell_angle_gamma    59.9999988922648

_space_group_name_H-M_alt    "P 1"
_space_group_IT_number       1

loop_
  _space_group_symop_operation_xyz
  'x, y, z'

loop_
  _atom_site_type_symbol
  _atom_site_label
  _atom_site_symmetry_multiplicity
  _atom_site_fract_x
  _atom_site_fract_y
  _atom_site_fract_z
  _atom_site_occupancy
  Sc  Sc1       1.0  0.25000008255767486  0.2500001117398848  0.24999991309331232  1.0000
  Sc  Sc2       1.0  0.7499999544432184  0.7499999357227368  0.7500001389821978  1.0000
  Si  Si1       1.0  5.0752006810991105e-08  0.9999999472362545  0.999999984593901  1.0000
  O   O1        1.0  0.251785761046548  0.2517856446617881  0.7482142845239476  1.0000
  O   O2        1.0  0.7482142236012616  0.7482143324491766  0.2517856996596783  1.0000
  O   O3        1.0  0.7482143074883143  0.2517857120603671  0.2517856058058616  1.0000
  O   O4        1.0  0.25178561592616333  0.7482143705780878  0.7482143582821803  1.0000
  O   O5        1.0  0.2517856759535974  0.7482142647110158  0.2517856607951901  1.0000
  O   O6        1.0  0.7482143762910014  0.2517856872743547  0.7482142857408699  1.0000
