data_image0
_chemical_formula_structural       Sc2SbTe6
_chemical_formula_sum              "Sc2 Sb1 Te6"
_cell_length_a       7.370287312455123
_cell_length_b       7.370287239296504
_cell_length_c       7.37028722511178
_cell_angle_alpha    60.00000054462907
_cell_angle_beta     60.000000893600635
_cell_angle_gamma    59.99999978978362

_space_group_name_H-M_alt    "P 1"
_space_group_IT_number       1

loop_
  _space_group_symop_operation_xyz
  'x, y, z'

loop_
  _atom_site_type_symbol
  _atom_site_label
  _atom_site_symmetry_multiplicity
  _atom_site_fract_x
  _atom_site_fract_y
  _atom_site_fract_z
  _atom_site_occupancy
  Sc  Sc1       1.0  0.25000010748143436  0.24999991140070235  0.25000003684292  1.0000
  Sc  Sc2       1.0  0.7499999313808478  0.7500001130772067  0.7499999714454206  1.0000
  Sb  Sb1       1.0  2.389410263620568e-09  1.1632130188412442e-08  0.9999999916324306  1.0000
  Te  Te1       1.0  0.26892108432084894  0.2689209770231417  0.7310789747017329  1.0000
  Te  Te2       1.0  0.7310789168619805  0.7310790241905072  0.26892105863126686  1.0000
  Te  Te3       1.0  0.731078933308551  0.268920993693814  0.26892108862833886  1.0000
  Te  Te4       1.0  0.2689210248457881  0.731078990902506  0.7310789175420029  1.0000
  Te  Te5       1.0  0.2689210794752706  0.73107896100916  0.2689210101065087  1.0000
  Te  Te6       1.0  0.731078915267005  0.26892102192542694  0.7310789487511486  1.0000
