data_image0
_chemical_formula_structural       Sc2SnO6
_chemical_formula_sum              "Sc2 Sn1 O6"
_cell_length_a       5.222228637276952
_cell_length_b       5.22222859909428
_cell_length_c       5.222228659539716
_cell_angle_alpha    60.000000664805555
_cell_angle_beta     60.00000098147034
_cell_angle_gamma    59.99999971440371

_space_group_name_H-M_alt    "P 1"
_space_group_IT_number       1

loop_
  _space_group_symop_operation_xyz
  'x, y, z'

loop_
  _atom_site_type_symbol
  _atom_site_label
  _atom_site_symmetry_multiplicity
  _atom_site_fract_x
  _atom_site_fract_y
  _atom_site_fract_z
  _atom_site_occupancy
  Sc  Sc1       1.0  0.24999994939810852  0.24999990530299154  0.2500001093469587  1.0000
  Sc  Sc2       1.0  0.750000120848564  0.7500001052210129  0.7499997500367712  1.0000
  Sn  Sn1       1.0  0.9999999808816173  0.9999999976547468  0.9999999954126877  1.0000
  O   O1        1.0  0.2674181434258881  0.26741824805820613  0.7325818106469509  1.0000
  O   O2        1.0  0.7325818478678753  0.7325817671563067  0.26741825629330057  1.0000
  O   O3        1.0  0.7325818549029653  0.2674180223448521  0.2674183084095585  1.0000
  O   O4        1.0  0.2674181080715554  0.7325819318930757  0.7325817591361072  1.0000
  O   O5        1.0  0.2674181011812646  0.7325818439123052  0.2674182378407906  1.0000
  O   O6        1.0  0.7325818795703652  0.26741818302847387  0.7325818036138083  1.0000
