data_image0
_chemical_formula_structural       Sc2SbSe6
_chemical_formula_sum              "Sc2 Sb1 Se6"
_cell_length_a       6.811549283893545
_cell_length_b       6.811549127102789
_cell_length_c       6.811549272400358
_cell_angle_alpha    60.00000082585099
_cell_angle_beta     59.99999956597096
_cell_angle_gamma    60.00000172723353

_space_group_name_H-M_alt    "P 1"
_space_group_IT_number       1

loop_
  _space_group_symop_operation_xyz
  'x, y, z'

loop_
  _atom_site_type_symbol
  _atom_site_label
  _atom_site_symmetry_multiplicity
  _atom_site_fract_x
  _atom_site_fract_y
  _atom_site_fract_z
  _atom_site_occupancy
  Sc  Sc1       1.0  0.24999987991947248  0.2499997570746983  0.2499999873040925  1.0000
  Sc  Sc2       1.0  0.7499999460414455  0.7500003967981406  0.7499998346897634  1.0000
  Sb  Sb1       1.0  0.9999999299998819  0.9999999964039142  0.999999975138121  1.0000
  Se  Se1       1.0  0.2647735877126662  0.2647733576279117  0.735226586317342  1.0000
  Se  Se2       1.0  0.7352264733213788  0.7352265589034481  0.2647734907910851  1.0000
  Se  Se3       1.0  0.7352265693406171  0.2647734002932369  0.26477359810962975  1.0000
  Se  Se4       1.0  0.2647734815897139  0.7352265719774136  0.7352265486709814  1.0000
  Se  Se5       1.0  0.2647735207084042  0.7352265988998093  0.2647735273729648  1.0000
  Se  Se6       1.0  0.7352266114039799  0.264773353592383  0.7352264580454122  1.0000
