data_image0
_chemical_formula_structural       Sc2SbS6
_chemical_formula_sum              "Sc2 Sb1 S6"
_cell_length_a       6.477245819022927
_cell_length_b       6.477245804596132
_cell_length_c       6.477245836551911
_cell_angle_alpha    60.00000073619286
_cell_angle_beta     60.00000068348863
_cell_angle_gamma    60.00000203255143

_space_group_name_H-M_alt    "P 1"
_space_group_IT_number       1

loop_
  _space_group_symop_operation_xyz
  'x, y, z'

loop_
  _atom_site_type_symbol
  _atom_site_label
  _atom_site_symmetry_multiplicity
  _atom_site_fract_x
  _atom_site_fract_y
  _atom_site_fract_z
  _atom_site_occupancy
  Sc  Sc1       1.0  0.2500000818871372  0.25000027459752877  0.24999968932342165  1.0000
  Sc  Sc2       1.0  0.7500002062230182  0.7499999313151542  0.7499999307017486  1.0000
  Sb  Sb1       1.0  0.9999999775632816  0.999999992436632  8.13862835375748e-08  1.0000
  S   S1        1.0  0.26389628663107034  0.2638964508891295  0.7361035841600939  1.0000
  S   S2        1.0  0.736103670925247  0.7361036075378705  0.2638963613413332  1.0000
  S   S3        1.0  0.7361036427866929  0.2638963687993014  0.26389638232168366  1.0000
  S   S4        1.0  0.2638963116585082  0.7361034475999204  0.7361037814688848  1.0000
  S   S5        1.0  0.2638963086186049  0.7361035954321015  0.26389645661060895  1.0000
  S   S6        1.0  0.7361034787004479  0.263896353326059  0.7361037400022247  1.0000
