data_image0
_chemical_formula_structural       Sc2SbSe6
_chemical_formula_sum              "Sc2 Sb1 Se6"
_cell_length_a       6.812655927986547
_cell_length_b       6.812656086653207
_cell_length_c       6.812656024189263
_cell_angle_alpha    60.00000046820134
_cell_angle_beta     59.99999956344998
_cell_angle_gamma    60.00000118697408

_space_group_name_H-M_alt    "P 1"
_space_group_IT_number       1

loop_
  _space_group_symop_operation_xyz
  'x, y, z'

loop_
  _atom_site_type_symbol
  _atom_site_label
  _atom_site_symmetry_multiplicity
  _atom_site_fract_x
  _atom_site_fract_y
  _atom_site_fract_z
  _atom_site_occupancy
  Sc  Sc1       1.0  0.24999994442066034  0.2499999440840754  0.25000003819521877  1.0000
  Sc  Sc2       1.0  0.7500000046529699  0.7499999994429242  0.7499999981376396  1.0000
  Sb  Sb1       1.0  0.9999999951208264  0.9999999892135035  9.883992502964337e-08  1.0000
  Se  Se1       1.0  0.2647935476401862  0.2647935352166023  0.7352064583478606  1.0000
  Se  Se2       1.0  0.7352064997043641  0.7352064694338785  0.26479349975565347  1.0000
  Se  Se3       1.0  0.7352064974311562  0.26479352923051847  0.26479354367625235  1.0000
  Se  Se4       1.0  0.2647935500162091  0.735206470026714  0.7352063891832089  1.0000
  Se  Se5       1.0  0.2647935265023763  0.7352064943701915  0.2647935485162059  1.0000
  Se  Se6       1.0  0.7352064299824977  0.2647935642127714  0.7352064265830489  1.0000
