data_image0
_chemical_formula_structural       Sc2SbTe6
_chemical_formula_sum              "Sc2 Sb1 Te6"
_cell_length_a       7.3703245946450675
_cell_length_b       7.370324576131611
_cell_length_c       7.370324544047063
_cell_angle_alpha    59.999999892820135
_cell_angle_beta     60.000000267694844
_cell_angle_gamma    59.99999889060684

_space_group_name_H-M_alt    "P 1"
_space_group_IT_number       1

loop_
  _space_group_symop_operation_xyz
  'x, y, z'

loop_
  _atom_site_type_symbol
  _atom_site_label
  _atom_site_symmetry_multiplicity
  _atom_site_fract_x
  _atom_site_fract_y
  _atom_site_fract_z
  _atom_site_occupancy
  Sc  Sc1       1.0  0.24999999637439516  0.24999998463803288  0.24999995183608498  1.0000
  Sc  Sc2       1.0  0.7499999618866493  0.7500000403237715  0.7499999941639385  1.0000
  Sb  Sb1       1.0  3.586007821555438e-08  0.9999999817210303  0.9999999830686916  1.0000
  Te  Te1       1.0  0.2689147010535948  0.26891467482005393  0.7310853273676082  1.0000
  Te  Te2       1.0  0.7310852947455584  0.731085298628291  0.26891471516838605  1.0000
  Te  Te3       1.0  0.7310853194762679  0.2689146716275085  0.26891471424446156  1.0000
  Te  Te4       1.0  0.26891467152778326  0.7310853068060097  0.731085345834798  1.0000
  Te  Te5       1.0  0.26891471278054996  0.731085356382941  0.26891466062752967  1.0000
  Te  Te6       1.0  0.7310853079579774  0.26891467854920936  0.7310853129178199  1.0000
