data_image0
_chemical_formula_structural       Sc2SbO6
_chemical_formula_sum              "Sc2 Sb1 O6"
_cell_length_a       5.218762535602067
_cell_length_b       5.218762318262088
_cell_length_c       5.21876258912184
_cell_angle_alpha    59.999997919136355
_cell_angle_beta     59.99999813560178
_cell_angle_gamma    59.99999830233849

_space_group_name_H-M_alt    "P 1"
_space_group_IT_number       1

loop_
  _space_group_symop_operation_xyz
  'x, y, z'

loop_
  _atom_site_type_symbol
  _atom_site_label
  _atom_site_symmetry_multiplicity
  _atom_site_fract_x
  _atom_site_fract_y
  _atom_site_fract_z
  _atom_site_occupancy
  Sc  Sc1       1.0  0.25000025273666815  0.24999979278421985  0.24999994022153432  1.0000
  Sc  Sc2       1.0  0.7500000451637249  0.7499999509745505  0.749999992433445  1.0000
  Sb  Sb1       1.0  5.587080549820721e-09  1.6427677286911827e-08  0.9999999813279689  1.0000
  O   O1        1.0  0.2606945980730268  0.2606946410184398  0.7393053539065899  1.0000
  O   O2        1.0  0.739305266599631  0.73930546649604  0.26069462689754763  1.0000
  O   O3        1.0  0.7393053481126622  0.2606946260563475  0.26069461321417836  1.0000
  O   O4        1.0  0.26069457569805077  0.7393053969729353  0.7393054377484211  1.0000
  O   O5        1.0  0.26069455307461703  0.739305473634246  0.26069464862920905  1.0000
  O   O6        1.0  0.7393053782443086  0.260694619799368  0.7393054151135201  1.0000
