data_image0
_chemical_formula_structural       Sc2SiTe6
_chemical_formula_sum              "Sc2 Si1 Te6"
_cell_length_a       7.12606492242561
_cell_length_b       7.126064933247859
_cell_length_c       7.126064970330186
_cell_angle_alpha    60.000000590098864
_cell_angle_beta     59.99999993405915
_cell_angle_gamma    60.000000280560464

_space_group_name_H-M_alt    "P 1"
_space_group_IT_number       1

loop_
  _space_group_symop_operation_xyz
  'x, y, z'

loop_
  _atom_site_type_symbol
  _atom_site_label
  _atom_site_symmetry_multiplicity
  _atom_site_fract_x
  _atom_site_fract_y
  _atom_site_fract_z
  _atom_site_occupancy
  Sc  Sc1       1.0  0.24999999594889302  0.2500000875857996  0.24999994942046216  1.0000
  Sc  Sc2       1.0  0.7499999904051933  0.7499999585504595  0.7500000622340534  1.0000
  Si  Si1       1.0  4.080463305535112e-08  0.9999999845318507  1.5397738500565796e-08  1.0000
  Te  Te1       1.0  0.25415796081798764  0.2541579559727611  0.745842040516279  1.0000
  Te  Te2       1.0  0.7458420119523831  0.7458420093853837  0.2541579860432737  1.0000
  Te  Te3       1.0  0.7458420518260751  0.2541579830518908  0.2541579447873884  1.0000
  Te  Te4       1.0  0.25415798870580236  0.7458419977744035  0.7458420401573362  1.0000
  Te  Te5       1.0  0.25415795874065505  0.7458420075659182  0.2541579546615027  1.0000
  Te  Te6       1.0  0.7458419999853702  0.25415801450877445  0.7458420042530813  1.0000
