data_image0
_chemical_formula_structural       Sc2SO6
_chemical_formula_sum              "Sc2 S1 O6"
_cell_length_a       5.010558252900591
_cell_length_b       5.0105580675344
_cell_length_c       5.010558087056367
_cell_angle_alpha    60.000000839896984
_cell_angle_beta     60.000000222160025
_cell_angle_gamma    59.999999976376884

_space_group_name_H-M_alt    "P 1"
_space_group_IT_number       1

loop_
  _space_group_symop_operation_xyz
  'x, y, z'

loop_
  _atom_site_type_symbol
  _atom_site_label
  _atom_site_symmetry_multiplicity
  _atom_site_fract_x
  _atom_site_fract_y
  _atom_site_fract_z
  _atom_site_occupancy
  Sc  Sc1       1.0  0.24999992647721941  0.2500001106872931  0.25000001681918654  1.0000
  Sc  Sc2       1.0  0.7500000443894304  0.7499999727456242  0.7499999439613009  1.0000
  S   S1        1.0  0.9999999475069065  5.3775220705320716e-08  0.9999999434769385  1.0000
  O   O1        1.0  0.23679659170897724  0.23679641633242257  0.7632035625995782  1.0000
  O   O2        1.0  0.7632034673851045  0.763203471554236  0.23679655562117505  1.0000
  O   O3        1.0  0.7632034904654919  0.23679656490567483  0.2367964627095758  1.0000
  O   O4        1.0  0.23679650540361477  0.7632034158654554  0.7632034969848626  1.0000
  O   O5        1.0  0.23679654964293273  0.7632034767894362  0.2367964765220068  1.0000
  O   O6        1.0  0.7632034715760546  0.23679650398169502  0.7632035483331313  1.0000
