data_image0
_chemical_formula_structural       Sc2TaTe6
_chemical_formula_sum              "Sc2 Ta1 Te6"
_cell_length_a       7.25098098846328
_cell_length_b       7.250980983205376
_cell_length_c       7.250981062070226
_cell_angle_alpha    59.999999627221314
_cell_angle_beta     59.99999978938729
_cell_angle_gamma    60.00000018738909

_space_group_name_H-M_alt    "P 1"
_space_group_IT_number       1

loop_
  _space_group_symop_operation_xyz
  'x, y, z'

loop_
  _atom_site_type_symbol
  _atom_site_label
  _atom_site_symmetry_multiplicity
  _atom_site_fract_x
  _atom_site_fract_y
  _atom_site_fract_z
  _atom_site_occupancy
  Sc  Sc1       1.0  0.2499999679244437  0.2500000208732636  0.25000000567038116  1.0000
  Sc  Sc2       1.0  0.7500000406958701  0.7499999528299339  0.7500000130986687  1.0000
  Ta  Ta1       1.0  1.808024900217082e-08  0.9999999983109253  0.9999999573263197  1.0000
  Te  Te1       1.0  0.26235164899029995  0.26235170219603227  0.7376483160690452  1.0000
  Te  Te2       1.0  0.7376483433022916  0.7376483204903326  0.2623516587898077  1.0000
  Te  Te3       1.0  0.7376483103289911  0.2623516944767018  0.2623516942233649  1.0000
  Te  Te4       1.0  0.2623516472023775  0.7376483417222606  0.7376483478038732  1.0000
  Te  Te5       1.0  0.26235168390423796  0.7376483014792975  0.2623516730973758  1.0000
  Te  Te6       1.0  0.7376483369894499  0.2623516688457509  0.737648334328443  1.0000
