data_image0
_chemical_formula_structural       Sc2TiS6
_chemical_formula_sum              "Sc2 Ti1 S6"
_cell_length_a       6.200741221673827
_cell_length_b       6.200741088180347
_cell_length_c       6.2007411451577665
_cell_angle_alpha    59.99999924806071
_cell_angle_beta     59.99999992573443
_cell_angle_gamma    59.99999974431524

_space_group_name_H-M_alt    "P 1"
_space_group_IT_number       1

loop_
  _space_group_symop_operation_xyz
  'x, y, z'

loop_
  _atom_site_type_symbol
  _atom_site_label
  _atom_site_symmetry_multiplicity
  _atom_site_fract_x
  _atom_site_fract_y
  _atom_site_fract_z
  _atom_site_occupancy
  Sc  Sc1       1.0  0.24999997905371726  0.24999988861729755  0.2500000930194334  1.0000
  Sc  Sc2       1.0  0.7500000179421997  0.750000149765819  0.7499999789709962  1.0000
  Ti  Ti1       1.0  9.330369322551382e-09  0.9999999664222992  0.9999999830948778  1.0000
  S   S1        1.0  0.26059383839715206  0.2605938946497737  0.7394061533902426  1.0000
  S   S2        1.0  0.7394060988567184  0.7394062168142215  0.2605938200062756  1.0000
  S   S3        1.0  0.7394061808957626  0.26059383685204374  0.26059385682792297  1.0000
  S   S4        1.0  0.26059381119132924  0.7394061659782133  0.7394061612086686  1.0000
  S   S5        1.0  0.2605938550975427  0.7394061082821041  0.2605938728478277  1.0000
  S   S6        1.0  0.7394062103511668  0.26059375826219083  0.7394060960154142  1.0000
