data_image0
_chemical_formula_structural       Sc2TaS6
_chemical_formula_sum              "Sc2 Ta1 S6"
_cell_length_a       6.33965936749569
_cell_length_b       6.339659296281362
_cell_length_c       6.339659435809038
_cell_angle_alpha    59.99999924700922
_cell_angle_beta     60.000000372963044
_cell_angle_gamma    59.99999979807566

_space_group_name_H-M_alt    "P 1"
_space_group_IT_number       1

loop_
  _space_group_symop_operation_xyz
  'x, y, z'

loop_
  _atom_site_type_symbol
  _atom_site_label
  _atom_site_symmetry_multiplicity
  _atom_site_fract_x
  _atom_site_fract_y
  _atom_site_fract_z
  _atom_site_occupancy
  Sc  Sc1       1.0  0.249999839053555  0.25000011467764116  0.2500000027127327  1.0000
  Sc  Sc2       1.0  0.7499999691123345  0.7499999170878694  0.749999979861175  1.0000
  Ta  Ta1       1.0  0.999999954667214  2.125065854190944e-08  7.198119175723939e-08  1.0000
  S   S1        1.0  0.26278066159146857  0.26278070957771016  0.7372192738864886  1.0000
  S   S2        1.0  0.7372193271321656  0.7372192777546049  0.26278071949373527  1.0000
  S   S3        1.0  0.7372193350465217  0.2627807505400588  0.2627806403670049  1.0000
  S   S4        1.0  0.2627808092688411  0.7372191962228168  0.7372193696385496  1.0000
  S   S5        1.0  0.2627807022708161  0.7372193155092474  0.2627806747201815  1.0000
  S   S6        1.0  0.7372194103990087  0.2627806988693613  0.7372192668243778  1.0000
