data_image0
_chemical_formula_structural       Sc2TaS6
_chemical_formula_sum              "Sc2 Ta1 S6"
_cell_length_a       6.33964378476771
_cell_length_b       6.339643793472489
_cell_length_c       6.339643803204851
_cell_angle_alpha    59.999999973263286
_cell_angle_beta     59.99999998967644
_cell_angle_gamma    60.00000044968366

_space_group_name_H-M_alt    "P 1"
_space_group_IT_number       1

loop_
  _space_group_symop_operation_xyz
  'x, y, z'

loop_
  _atom_site_type_symbol
  _atom_site_label
  _atom_site_symmetry_multiplicity
  _atom_site_fract_x
  _atom_site_fract_y
  _atom_site_fract_z
  _atom_site_occupancy
  Sc  Sc1       1.0  0.25000008991226125  0.2499998809814838  0.250000028704438  1.0000
  Sc  Sc2       1.0  0.749999946219272  0.7500001162557317  0.7500000301449378  1.0000
  Ta  Ta1       1.0  0.9999999770762918  0.9999999922724687  0.9999999853554816  1.0000
  S   S1        1.0  0.2627799862316609  0.2627799173547214  0.7372200400327141  1.0000
  S   S2        1.0  0.7372200297540241  0.7372200856781425  0.26277992819446877  1.0000
  S   S3        1.0  0.7372200298633865  0.2627799738373323  0.26277994974433  1.0000
  S   S4        1.0  0.26277993081748435  0.7372200639694213  0.7372200366351936  1.0000
  S   S5        1.0  0.26277999425806614  0.737220058198411  0.2627799267221161  1.0000
  S   S6        1.0  0.737220028167228  0.26277992551562496  0.7372200668731845  1.0000
