data_image0
_chemical_formula_structural       Sc2TeO6
_chemical_formula_sum              "Sc2 Te1 O6"
_cell_length_a       5.220147783844483
_cell_length_b       5.220147889068185
_cell_length_c       5.220147887915192
_cell_angle_alpha    60.00000120638547
_cell_angle_beta     60.00000065616364
_cell_angle_gamma    60.00000047518227

_space_group_name_H-M_alt    "P 1"
_space_group_IT_number       1

loop_
  _space_group_symop_operation_xyz
  'x, y, z'

loop_
  _atom_site_type_symbol
  _atom_site_label
  _atom_site_symmetry_multiplicity
  _atom_site_fract_x
  _atom_site_fract_y
  _atom_site_fract_z
  _atom_site_occupancy
  Sc  Sc1       1.0  0.24999996225158808  0.25000003321268205  0.2500000081766505  1.0000
  Sc  Sc2       1.0  0.7500000085953917  0.7500000128290867  0.7499998710026456  1.0000
  Te  Te1       1.0  0.9999999880237199  9.384752325998629e-09  1.0874036569109807e-08  1.0000
  O   O1        1.0  0.2546114257046646  0.2546114747815196  0.745388583730014  1.0000
  O   O2        1.0  0.7453885744581571  0.7453885032207972  0.2546114738104136  1.0000
  O   O3        1.0  0.7453885292058624  0.25461139910473984  0.2546115287207016  1.0000
  O   O4        1.0  0.2546115031096672  0.7453885554356963  0.74538851489604  1.0000
  O   O5        1.0  0.25461144923833884  0.7453885183578135  0.25461146650114974  1.0000
  O   O6        1.0  0.7453885399756051  0.25461149249113585  0.7453885724277827  1.0000
