data_image0
_chemical_formula_structural       Sc2TaSe6
_chemical_formula_sum              "Sc2 Ta1 Se6"
_cell_length_a       6.668760345624435
_cell_length_b       6.668760315561321
_cell_length_c       6.668760241566441
_cell_angle_alpha    60.00000044445816
_cell_angle_beta     60.00000041920299
_cell_angle_gamma    60.00000033959439

_space_group_name_H-M_alt    "P 1"
_space_group_IT_number       1

loop_
  _space_group_symop_operation_xyz
  'x, y, z'

loop_
  _atom_site_type_symbol
  _atom_site_label
  _atom_site_symmetry_multiplicity
  _atom_site_fract_x
  _atom_site_fract_y
  _atom_site_fract_z
  _atom_site_occupancy
  Sc  Sc1       1.0  0.24999996929205195  0.250000040422095  0.24999995150219304  1.0000
  Sc  Sc2       1.0  0.7499998927127265  0.7500000992277986  0.7500000710453772  1.0000
  Ta  Ta1       1.0  7.136095131941286e-09  0.9999999889807567  0.9999999749500503  1.0000
  Se  Se1       1.0  0.26134711103698754  0.26134706086234605  0.7386529482659895  1.0000
  Se  Se2       1.0  0.7386529346336811  0.7386528602392237  0.26134707222891906  1.0000
  Se  Se3       1.0  0.7386529602090322  0.26134705755283383  0.2613470711600239  1.0000
  Se  Se4       1.0  0.2613471000128856  0.7386528874237628  0.7386529271226885  1.0000
  Se  Se5       1.0  0.2613471369157747  0.7386529235608065  0.2613470789227496  1.0000
  Se  Se6       1.0  0.738652894656729  0.26134707100238486  0.7386529148894889  1.0000
