data_image0
_chemical_formula_structural       Sc2TiO6
_chemical_formula_sum              "Sc2 Ti1 O6"
_cell_length_a       5.0926792402469125
_cell_length_b       5.092679648998173
_cell_length_c       5.092679457371065
_cell_angle_alpha    60.00000120757203
_cell_angle_beta     60.000000196047935
_cell_angle_gamma    60.000001636063594

_space_group_name_H-M_alt    "P 1"
_space_group_IT_number       1

loop_
  _space_group_symop_operation_xyz
  'x, y, z'

loop_
  _atom_site_type_symbol
  _atom_site_label
  _atom_site_symmetry_multiplicity
  _atom_site_fract_x
  _atom_site_fract_y
  _atom_site_fract_z
  _atom_site_occupancy
  Sc  Sc1       1.0  0.24999993924722333  0.2500001849937059  0.24999991753928602  1.0000
  Sc  Sc2       1.0  0.7500000912139916  0.7499997685747616  0.7500000071212761  1.0000
  Ti  Ti1       1.0  0.9999999861206817  1.4429474418632535e-08  5.615730375665579e-09  1.0000
  O   O1        1.0  0.2600551194129607  0.2600551902012205  0.7399448468296506  1.0000
  O   O2        1.0  0.7399448696617821  0.7399448331097062  0.2600551677238698  1.0000
  O   O3        1.0  0.7399448505649052  0.2600552116190034  0.26005512214844  1.0000
  O   O4        1.0  0.26005517373469256  0.7399447876427993  0.7399448632539806  1.0000
  O   O5        1.0  0.2600551479800093  0.7399448075922853  0.26005522447439877  1.0000
  O   O6        1.0  0.7399448178944413  0.2600552036940791  0.739944860708826  1.0000
