data_image0
_chemical_formula_structural       Sc2TaO6
_chemical_formula_sum              "Sc2 Ta1 O6"
_cell_length_a       5.244265457681938
_cell_length_b       5.244265441390629
_cell_length_c       5.2442653664537495
_cell_angle_alpha    59.99999993153197
_cell_angle_beta     60.00000006846726
_cell_angle_gamma    59.999998839724626

_space_group_name_H-M_alt    "P 1"
_space_group_IT_number       1

loop_
  _space_group_symop_operation_xyz
  'x, y, z'

loop_
  _atom_site_type_symbol
  _atom_site_label
  _atom_site_symmetry_multiplicity
  _atom_site_fract_x
  _atom_site_fract_y
  _atom_site_fract_z
  _atom_site_occupancy
  Sc  Sc1       1.0  0.24999992704402804  0.25000005906844874  0.24999997193176568  1.0000
  Sc  Sc2       1.0  0.7499999650216199  0.7500000020504685  0.749999970540156  1.0000
  Ta  Ta1       1.0  1.659200011441566e-08  0.9999999766460166  0.9999999785920096  1.0000
  O   O1        1.0  0.26041036301387904  0.26041029575281277  0.7395896425342591  1.0000
  O   O2        1.0  0.7395896837602823  0.7395896579377786  0.260410381174031  1.0000
  O   O3        1.0  0.7395897423569887  0.2604103399073387  0.26041032159714617  1.0000
  O   O4        1.0  0.26041029038186564  0.7395896955221947  0.7395896682593261  1.0000
  O   O5        1.0  0.2604103586116996  0.7395896765252201  0.2604103088070449  1.0000
  O   O6        1.0  0.7395896439692882  0.26041032387333857  0.739589749873899  1.0000
