data_image0
_chemical_formula_structural       Sc2TaO6
_chemical_formula_sum              "Sc2 Ta1 O6"
_cell_length_a       5.243886200041092
_cell_length_b       5.243886277176825
_cell_length_c       5.243886249530499
_cell_angle_alpha    60.00000067167186
_cell_angle_beta     60.00000091081436
_cell_angle_gamma    60.000001469746906

_space_group_name_H-M_alt    "P 1"
_space_group_IT_number       1

loop_
  _space_group_symop_operation_xyz
  'x, y, z'

loop_
  _atom_site_type_symbol
  _atom_site_label
  _atom_site_symmetry_multiplicity
  _atom_site_fract_x
  _atom_site_fract_y
  _atom_site_fract_z
  _atom_site_occupancy
  Sc  Sc1       1.0  0.24999998652690422  0.25000008530393186  0.2500000198216198  1.0000
  Sc  Sc2       1.0  0.7500000205077798  0.7499999476169308  0.7500000229622165  1.0000
  Ta  Ta1       1.0  0.9999999896349798  4.671134230585121e-09  9.39960284921562e-10  1.0000
  O   O1        1.0  0.2603977243798846  0.26039766187412383  0.7396023027200276  1.0000
  O   O2        1.0  0.739602310658687  0.7396023266709628  0.2603977024821699  1.0000
  O   O3        1.0  0.7396023095946975  0.26039774505354046  0.26039762076295647  1.0000
  O   O4        1.0  0.26039766323083513  0.7396023112229935  0.7396023225635749  1.0000
  O   O5        1.0  0.26039768653701445  0.7396022500114873  0.26039764476581073  1.0000
  O   O6        1.0  0.739602298279334  0.26039767780885276  0.7396023320026351  1.0000
