data_image0
_chemical_formula_structural       Sc2TaSe6
_chemical_formula_sum              "Sc2 Ta1 Se6"
_cell_length_a       6.668763742170119
_cell_length_b       6.668763865125967
_cell_length_c       6.6687637036151655
_cell_angle_alpha    59.99999975473541
_cell_angle_beta     60.000000721757125
_cell_angle_gamma    59.99999958801499

_space_group_name_H-M_alt    "P 1"
_space_group_IT_number       1

loop_
  _space_group_symop_operation_xyz
  'x, y, z'

loop_
  _atom_site_type_symbol
  _atom_site_label
  _atom_site_symmetry_multiplicity
  _atom_site_fract_x
  _atom_site_fract_y
  _atom_site_fract_z
  _atom_site_occupancy
  Sc  Sc1       1.0  0.2499999990409689  0.24999998219612987  0.2500000471233812  1.0000
  Sc  Sc2       1.0  0.7500000004628645  0.7499999833191812  0.7500001378295801  1.0000
  Ta  Ta1       1.0  1.2732722921797096e-08  0.9999999981634602  5.04860672263016e-09  1.0000
  Se  Se1       1.0  0.2613471627035964  0.26134722410696737  0.7386528230279567  1.0000
  Se  Se2       1.0  0.7386528188369523  0.738652805687231  0.2613471648219181  1.0000
  Se  Se3       1.0  0.7386527453201107  0.2613472510979017  0.26134713922427505  1.0000
  Se  Se4       1.0  0.2613471604182589  0.7386528191001693  0.7386527913483367  1.0000
  Se  Se5       1.0  0.2613472489696893  0.7386528055171108  0.2613471015024608  1.0000
  Se  Se6       1.0  0.7386528463971801  0.2613471269404904  0.7386528076247227  1.0000
