data_image0
_chemical_formula_structural       Sc2TeS6
_chemical_formula_sum              "Sc2 Te1 S6"
_cell_length_a       6.426605847594821
_cell_length_b       6.426605843916189
_cell_length_c       6.426605867097374
_cell_angle_alpha    59.99999985388091
_cell_angle_beta     60.00000001320564
_cell_angle_gamma    59.999999962236465

_space_group_name_H-M_alt    "P 1"
_space_group_IT_number       1

loop_
  _space_group_symop_operation_xyz
  'x, y, z'

loop_
  _atom_site_type_symbol
  _atom_site_label
  _atom_site_symmetry_multiplicity
  _atom_site_fract_x
  _atom_site_fract_y
  _atom_site_fract_z
  _atom_site_occupancy
  Sc  Sc1       1.0  0.2500000209954102  0.2499999992673347  0.2499999894804252  1.0000
  Sc  Sc2       1.0  0.7500000046369945  0.7500000111421938  0.7500000127302374  1.0000
  Te  Te1       1.0  4.1726480648817037e-10  9.528706915882698e-09  1.992351523110343e-08  1.0000
  S   S1        1.0  0.260937531713554  0.2609375404061433  0.7390624661189993  1.0000
  S   S2        1.0  0.7390624624305765  0.7390624566631956  0.26093753205336273  1.0000
  S   S3        1.0  0.7390624607938281  0.2609375331891116  0.2609375266202768  1.0000
  S   S4        1.0  0.26093752701653106  0.7390624505400375  0.73906246271669  1.0000
  S   S5        1.0  0.2609375399821965  0.7390624585134807  0.2609375347488392  1.0000
  S   S6        1.0  0.7390624517299367  0.26093754046159945  0.7390624605745882  1.0000
