data_image0
_chemical_formula_structural       Sc2TiTe6
_chemical_formula_sum              "Sc2 Ti1 Te6"
_cell_length_a       7.17442634191244
_cell_length_b       7.174426399477062
_cell_length_c       7.174426400462498
_cell_angle_alpha    60.000000075252316
_cell_angle_beta     59.99999965811222
_cell_angle_gamma    59.999999259968185

_space_group_name_H-M_alt    "P 1"
_space_group_IT_number       1

loop_
  _space_group_symop_operation_xyz
  'x, y, z'

loop_
  _atom_site_type_symbol
  _atom_site_label
  _atom_site_symmetry_multiplicity
  _atom_site_fract_x
  _atom_site_fract_y
  _atom_site_fract_z
  _atom_site_occupancy
  Sc  Sc1       1.0  0.2500000145492279  0.250000082679716  0.24999996530656163  1.0000
  Sc  Sc2       1.0  0.7500000065548033  0.749999886134379  0.749999887736401  1.0000
  Ti  Ti1       1.0  0.9999999907978467  3.243486140498527e-08  0.9999999298423806  1.0000
  Te  Te1       1.0  0.2611699818191073  0.2611700314513136  0.7388299988912173  1.0000
  Te  Te2       1.0  0.7388300002504322  0.7388299868686231  0.26117008168729255  1.0000
  Te  Te3       1.0  0.7388300073008052  0.2611699872861343  0.26117000340464686  1.0000
  Te  Te4       1.0  0.26117001947680163  0.7388299934776467  0.7388300359642364  1.0000
  Te  Te5       1.0  0.26116998045702833  0.7388299570666826  0.2611700659361172  1.0000
  Te  Te6       1.0  0.7388300014340009  0.2611700424751765  0.7388300324837243  1.0000
