data_image0
_chemical_formula_structural       Sc2VSe6
_chemical_formula_sum              "Sc2 V1 Se6"
_cell_length_a       6.486395913861735
_cell_length_b       6.48639569439267
_cell_length_c       6.486395775915719
_cell_angle_alpha    59.999998135744825
_cell_angle_beta     59.99999920866188
_cell_angle_gamma    59.999998464334226

_space_group_name_H-M_alt    "P 1"
_space_group_IT_number       1

loop_
  _space_group_symop_operation_xyz
  'x, y, z'

loop_
  _atom_site_type_symbol
  _atom_site_label
  _atom_site_symmetry_multiplicity
  _atom_site_fract_x
  _atom_site_fract_y
  _atom_site_fract_z
  _atom_site_occupancy
  Sc  Sc1       1.0  0.2500000961044217  0.2499998560953046  0.25000000786207704  1.0000
  Sc  Sc2       1.0  0.7499999712819957  0.7500003858656099  0.7499997532700656  1.0000
  V   V1        1.0  0.9999999743214585  3.9651670782288016e-08  2.693057618741786e-08  1.0000
  Se  Se1       1.0  0.25727455879000394  0.2572744369424466  0.7427255139991207  1.0000
  Se  Se2       1.0  0.7427255088187487  0.7427254198308034  0.257274578367631  1.0000
  Se  Se3       1.0  0.7427254292611166  0.25727433241528075  0.25727472080487246  1.0000
  Se  Se4       1.0  0.2572745290373066  0.7427254998116972  0.7427253721975877  1.0000
  Se  Se5       1.0  0.25727450306608324  0.7427255409162458  0.2572745304879123  1.0000
  Se  Se6       1.0  0.7427254295691446  0.25727448579273815  0.7427255058555288  1.0000
