data_image0
_chemical_formula_structural       Sc2VO6
_chemical_formula_sum              "Sc2 V1 O6"
_cell_length_a       5.060058707306263
_cell_length_b       5.060058680468441
_cell_length_c       5.060058785508
_cell_angle_alpha    60.00000081410575
_cell_angle_beta     60.000000425122245
_cell_angle_gamma    60.00000066286101

_space_group_name_H-M_alt    "P 1"
_space_group_IT_number       1

loop_
  _space_group_symop_operation_xyz
  'x, y, z'

loop_
  _atom_site_type_symbol
  _atom_site_label
  _atom_site_symmetry_multiplicity
  _atom_site_fract_x
  _atom_site_fract_y
  _atom_site_fract_z
  _atom_site_occupancy
  Sc  Sc1       1.0  0.2500000744080669  0.2499999609577968  0.2499999448760073  1.0000
  Sc  Sc2       1.0  0.7499999763973876  0.750000061984199  0.7499999989192917  1.0000
  V   V1        1.0  1.8904624791589335e-09  0.999999980636669  0.99999996723494  1.0000
  O   O1        1.0  0.2579289610959689  0.2579289127210876  0.7420710845400383  1.0000
  O   O2        1.0  0.7420710135969981  0.742071112641326  0.2579290265345622  1.0000
  O   O3        1.0  0.7420710510598693  0.25792894726196225  0.2579289289295905  1.0000
  O   O4        1.0  0.25792890551559977  0.7420710708392007  0.7420710703299017  1.0000
  O   O5        1.0  0.25792894221659324  0.7420710086457626  0.2579289132230405  1.0000
  O   O6        1.0  0.7420710791089119  0.2579289247408291  0.7420710703273176  1.0000
