data_image0
_chemical_formula_structural       Sc2VS6
_chemical_formula_sum              "Sc2 V1 S6"
_cell_length_a       6.149711898383611
_cell_length_b       6.149712132256129
_cell_length_c       6.149711909925146
_cell_angle_alpha    60.00000103156991
_cell_angle_beta     60.000001353225585
_cell_angle_gamma    60.000000034858495

_space_group_name_H-M_alt    "P 1"
_space_group_IT_number       1

loop_
  _space_group_symop_operation_xyz
  'x, y, z'

loop_
  _atom_site_type_symbol
  _atom_site_label
  _atom_site_symmetry_multiplicity
  _atom_site_fract_x
  _atom_site_fract_y
  _atom_site_fract_z
  _atom_site_occupancy
  Sc  Sc1       1.0  0.2500000834894361  0.2500000175851446  0.2499999867932855  1.0000
  Sc  Sc2       1.0  0.7500000043270123  0.7499999631357659  0.7500000258165129  1.0000
  V   V1        1.0  3.303948968590592e-08  0.9999999741098722  0.9999999622773784  1.0000
  S   S1        1.0  0.258039117111712  0.2580391474175373  0.7419609043349921  1.0000
  S   S2        1.0  0.7419608136460045  0.7419608313118268  0.2580392707306579  1.0000
  S   S3        1.0  0.7419607622721879  0.25803915976013336  0.2580390748141558  1.0000
  S   S4        1.0  0.2580390735974893  0.7419608388847168  0.7419608791890729  1.0000
  S   S5        1.0  0.2580392011400472  0.7419608861885139  0.2580390270411123  1.0000
  S   S6        1.0  0.7419609120327663  0.25803917618587624  0.7419608556374195  1.0000
