data_image0
_chemical_formula_structural       Sc2WTe6
_chemical_formula_sum              "Sc2 W1 Te6"
_cell_length_a       7.172067684610854
_cell_length_b       7.172067720544993
_cell_length_c       7.1720676582309775
_cell_angle_alpha    60.00000005411057
_cell_angle_beta     59.99999953727227
_cell_angle_gamma    59.99999998891796

_space_group_name_H-M_alt    "P 1"
_space_group_IT_number       1

loop_
  _space_group_symop_operation_xyz
  'x, y, z'

loop_
  _atom_site_type_symbol
  _atom_site_label
  _atom_site_symmetry_multiplicity
  _atom_site_fract_x
  _atom_site_fract_y
  _atom_site_fract_z
  _atom_site_occupancy
  Sc  Sc1       1.0  0.24999999057365252  0.2500000072689206  0.24999998571411802  1.0000
  Sc  Sc2       1.0  0.749999992862996  0.749999982530596  0.750000045684407  1.0000
  W   W1        1.0  0.9999999805014703  0.9999999812157468  0.9999999954383245  1.0000
  Te  Te1       1.0  0.2615553127497704  0.26155529405593025  0.7384446896502607  1.0000
  Te  Te2       1.0  0.7384447225639118  0.7384447333120925  0.2615552607737447  1.0000
  Te  Te3       1.0  0.7384447159313262  0.26155528879977014  0.2615552915297982  1.0000
  Te  Te4       1.0  0.26155528549151835  0.7384447146610212  0.7384447212563953  1.0000
  Te  Te5       1.0  0.261555321194924  0.7384447029155434  0.2615552886826974  1.0000
  Te  Te6       1.0  0.738444680894803  0.26155529371461045  0.7384447230024793  1.0000
