data_image0
_chemical_formula_structural       Sc2WS6
_chemical_formula_sum              "Sc2 W1 S6"
_cell_length_a       6.31460946029807
_cell_length_b       6.314609286227159
_cell_length_c       6.31460940402894
_cell_angle_alpha    59.999999867769844
_cell_angle_beta     60.00000023306986
_cell_angle_gamma    59.99999952259355

_space_group_name_H-M_alt    "P 1"
_space_group_IT_number       1

loop_
  _space_group_symop_operation_xyz
  'x, y, z'

loop_
  _atom_site_type_symbol
  _atom_site_label
  _atom_site_symmetry_multiplicity
  _atom_site_fract_x
  _atom_site_fract_y
  _atom_site_fract_z
  _atom_site_occupancy
  Sc  Sc1       1.0  0.25000029838967003  0.24999997062666734  0.24999984538518824  1.0000
  Sc  Sc2       1.0  0.7500000669319716  0.7500000651038062  0.7499999575945319  1.0000
  W   W1        1.0  0.9999999727735542  2.1334959855960048e-08  0.9999999776076754  1.0000
  S   S1        1.0  0.2591127196178234  0.2591125751854901  0.7408874050487714  1.0000
  S   S2        1.0  0.7408872724820639  0.7408874062378127  0.2591126417843666  1.0000
  S   S3        1.0  0.7408871942965818  0.25911276779111975  0.25911267773055713  1.0000
  S   S4        1.0  0.2591126857758767  0.7408873028511064  0.7408873282470694  1.0000
  S   S5        1.0  0.2591125784796856  0.7408872690578929  0.25911273382849476  1.0000
  S   S6        1.0  0.7408872172577868  0.25911262120694417  0.7408874298433862  1.0000
