data_image0
_chemical_formula_structural       Sc2YO6
_chemical_formula_sum              "Sc2 Y1 O6"
_cell_length_a       5.378042486440116
_cell_length_b       5.378042579051027
_cell_length_c       5.378042639206091
_cell_angle_alpha    60.00000154760526
_cell_angle_beta     60.00000121921076
_cell_angle_gamma    60.00000342871346

_space_group_name_H-M_alt    "P 1"
_space_group_IT_number       1

loop_
  _space_group_symop_operation_xyz
  'x, y, z'

loop_
  _atom_site_type_symbol
  _atom_site_label
  _atom_site_symmetry_multiplicity
  _atom_site_fract_x
  _atom_site_fract_y
  _atom_site_fract_z
  _atom_site_occupancy
  Sc  Sc1       1.0  0.2499999721530628  0.25000015335121645  0.2500000156813268  1.0000
  Sc  Sc2       1.0  0.7500000108521347  0.7499999385505868  0.7500001676284047  1.0000
  Y   Y1        1.0  8.826395918984668e-09  2.5050365392905477e-08  0.9999999588892566  1.0000
  O   O1        1.0  0.27490205965339826  0.2749020777916799  0.7250978060165356  1.0000
  O   O2        1.0  0.7250979983279519  0.7250978729171497  0.2749019362514043  1.0000
  O   O3        1.0  0.7250979288540663  0.27490201291968114  0.2749020826352361  1.0000
  O   O4        1.0  0.27490208657671794  0.7250979172933977  0.7250979756459819  1.0000
  O   O5        1.0  0.2749020306108019  0.72509784969214  0.2749020883774756  1.0000
  O   O6        1.0  0.7250978706124863  0.27490213973089106  0.7250980234342892  1.0000
