data_image0
_chemical_formula_structural       Sc2YS6
_chemical_formula_sum              "Sc2 Y1 S6"
_cell_length_a       6.514966523276014
_cell_length_b       6.514966420689002
_cell_length_c       6.514966442650042
_cell_angle_alpha    60.00000021537709
_cell_angle_beta     59.99999980156622
_cell_angle_gamma    59.999998838187786

_space_group_name_H-M_alt    "P 1"
_space_group_IT_number       1

loop_
  _space_group_symop_operation_xyz
  'x, y, z'

loop_
  _atom_site_type_symbol
  _atom_site_label
  _atom_site_symmetry_multiplicity
  _atom_site_fract_x
  _atom_site_fract_y
  _atom_site_fract_z
  _atom_site_occupancy
  Sc  Sc1       1.0  0.24999996525364712  0.24999984083987709  0.2500001008238602  1.0000
  Sc  Sc2       1.0  0.750000046314793  0.7500000545297366  0.7499996403897922  1.0000
  Y   Y1        1.0  0.9999999813085694  5.0757147900555285e-08  0.9999998964762842  1.0000
  S   S1        1.0  0.27047509273045606  0.2704748880679183  0.7295250132245827  1.0000
  S   S2        1.0  0.7295249320309677  0.7295250900170506  0.2704751205590422  1.0000
  S   S3        1.0  0.7295250247576185  0.2704749361282171  0.27047506600707166  1.0000
  S   S4        1.0  0.2704750360596184  0.7295250720350609  0.7295249518234167  1.0000
  S   S5        1.0  0.2704748716284326  0.729525058000289  0.2704750848783414  1.0000
  S   S6        1.0  0.7295250557226335  0.27047497836140694  0.7295251037754281  1.0000
