data_image0
_chemical_formula_structural       Sc2YSe6
_chemical_formula_sum              "Sc2 Y1 Se6"
_cell_length_a       6.855321188783854
_cell_length_b       6.855321255787248
_cell_length_c       6.855321258097775
_cell_angle_alpha    60.00000097463285
_cell_angle_beta     60.000001889427296
_cell_angle_gamma    60.00000195438289

_space_group_name_H-M_alt    "P 1"
_space_group_IT_number       1

loop_
  _space_group_symop_operation_xyz
  'x, y, z'

loop_
  _atom_site_type_symbol
  _atom_site_label
  _atom_site_symmetry_multiplicity
  _atom_site_fract_x
  _atom_site_fract_y
  _atom_site_fract_z
  _atom_site_occupancy
  Sc  Sc1       1.0  0.2499999772642523  0.24999988972696263  0.25000000560625496  1.0000
  Sc  Sc2       1.0  0.7499998857654031  0.7499999335918928  0.7499999936914705  1.0000
  Y   Y1        1.0  0.9999999232510137  0.9999999321106872  1.3066798148465166e-07  1.0000
  Se  Se1       1.0  0.27009338572983027  0.270093266145303  0.7299067173596245  1.0000
  Se  Se2       1.0  0.7299067532470872  0.7299067197505933  0.2700932844015232  1.0000
  Se  Se3       1.0  0.7299066196244962  0.27009337607824874  0.27009330326950987  1.0000
  Se  Se4       1.0  0.27009340952576316  0.7299066866397625  0.7299066756084452  1.0000
  Se  Se5       1.0  0.2700932941752009  0.7299067693337341  0.2700932927796196  1.0000
  Se  Se6       1.0  0.7299067636416696  0.27009340951073246  0.7299065845273869  1.0000
