data_image0
_chemical_formula_structural       Sc2YTe6
_chemical_formula_sum              "Sc2 Y1 Te6"
_cell_length_a       7.413820127688685
_cell_length_b       7.413819907746627
_cell_length_c       7.41382004197675
_cell_angle_alpha    59.999999868865956
_cell_angle_beta     59.999999871750184
_cell_angle_gamma    59.99999968929003

_space_group_name_H-M_alt    "P 1"
_space_group_IT_number       1

loop_
  _space_group_symop_operation_xyz
  'x, y, z'

loop_
  _atom_site_type_symbol
  _atom_site_label
  _atom_site_symmetry_multiplicity
  _atom_site_fract_x
  _atom_site_fract_y
  _atom_site_fract_z
  _atom_site_occupancy
  Sc  Sc1       1.0  0.2500000312319504  0.2499999985113546  0.24999995658849825  1.0000
  Sc  Sc2       1.0  0.7499999629281295  0.7500000467453037  0.7499999324738855  1.0000
  Y   Y1        1.0  0.9999999921342453  0.999999976872343  0.9999999993107181  1.0000
  Te  Te1       1.0  0.27218400745694343  0.27218396307912335  0.7278160076329264  1.0000
  Te  Te2       1.0  0.72781600468591  0.7278160375741973  0.2721839918556655  1.0000
  Te  Te3       1.0  0.7278160244513256  0.272183977677816  0.27218401390943703  1.0000
  Te  Te4       1.0  0.2721840221616359  0.7278159849800689  0.7278160278067877  1.0000
  Te  Te5       1.0  0.2721839718158143  0.7278159982043662  0.27218403603090197  1.0000
  Te  Te6       1.0  0.7278159913994836  0.27218400905685675  0.7278160291289829  1.0000
