data_image0
_chemical_formula_structural       Sc2ZrO6
_chemical_formula_sum              "Sc2 Zr1 O6"
_cell_length_a       5.270407069555206
_cell_length_b       5.270407232569442
_cell_length_c       5.27040735031529
_cell_angle_alpha    59.999998041581655
_cell_angle_beta     59.999998358315594
_cell_angle_gamma    59.999997790676005

_space_group_name_H-M_alt    "P 1"
_space_group_IT_number       1

loop_
  _space_group_symop_operation_xyz
  'x, y, z'

loop_
  _atom_site_type_symbol
  _atom_site_label
  _atom_site_symmetry_multiplicity
  _atom_site_fract_x
  _atom_site_fract_y
  _atom_site_fract_z
  _atom_site_occupancy
  Sc  Sc1       1.0  0.24999989139736867  0.2500000240443517  0.2499999974818376  1.0000
  Sc  Sc2       1.0  0.7500002309727231  0.7500000186853103  0.7499998071876068  1.0000
  Zr  Zr1       1.0  1.312267787812196e-08  3.95048475754481e-08  0.999999935738506  1.0000
  O   O1        1.0  0.26737373212911625  0.26737382085544725  0.7326262591751475  1.0000
  O   O2        1.0  0.7326261728317446  0.7326262102551424  0.2673738857974474  1.0000
  O   O3        1.0  0.7326262374149708  0.26737379551972434  0.26737377111823896  1.0000
  O   O4        1.0  0.26737370366371427  0.7326261798193168  0.732626302093597  1.0000
  O   O5        1.0  0.267373695329228  0.7326262097006268  0.26737391574179437  1.0000
  O   O6        1.0  0.7326262814685784  0.26737373078119503  0.7326261968842085  1.0000
