data_image0
_chemical_formula_structural       Sc2ZrS6
_chemical_formula_sum              "Sc2 Zr1 S6"
_cell_length_a       6.350635559328928
_cell_length_b       6.350635448045909
_cell_length_c       6.350635553827125
_cell_angle_alpha    59.99999941802469
_cell_angle_beta     60.0000003532753
_cell_angle_gamma    59.999999051864314

_space_group_name_H-M_alt    "P 1"
_space_group_IT_number       1

loop_
  _space_group_symop_operation_xyz
  'x, y, z'

loop_
  _atom_site_type_symbol
  _atom_site_label
  _atom_site_symmetry_multiplicity
  _atom_site_fract_x
  _atom_site_fract_y
  _atom_site_fract_z
  _atom_site_occupancy
  Sc  Sc1       1.0  0.24999993413513344  0.25000000215816615  0.2500000360434486  1.0000
  Sc  Sc2       1.0  0.7500000694477623  0.7500000508308967  0.7499999414084474  1.0000
  Zr  Zr1       1.0  0.9999999778501861  1.735685207648618e-08  2.60161640385992e-08  1.0000
  S   S1        1.0  0.2670808000065748  0.2670808369187287  0.732919183102066  1.0000
  S   S2        1.0  0.7329192372973696  0.7329191639997781  0.26708077833025495  1.0000
  S   S3        1.0  0.7329192052264053  0.26708074632273476  0.26708084310285896  1.0000
  S   S4        1.0  0.2670807751069754  0.7329191909539816  0.7329191943820946  1.0000
  S   S5        1.0  0.2670807810523549  0.7329191685464935  0.26708085542328713  1.0000
  S   S6        1.0  0.732919208554988  0.2670808227293178  0.7329191472758467  1.0000
