data_image0
_chemical_formula_structural       Sc2ZrTe6
_chemical_formula_sum              "Sc2 Zr1 Te6"
_cell_length_a       7.3090736533831375
_cell_length_b       7.309073759048518
_cell_length_c       7.3090736595664625
_cell_angle_alpha    60.00000006503071
_cell_angle_beta     60.00000096422313
_cell_angle_gamma    59.99999952673519

_space_group_name_H-M_alt    "P 1"
_space_group_IT_number       1

loop_
  _space_group_symop_operation_xyz
  'x, y, z'

loop_
  _atom_site_type_symbol
  _atom_site_label
  _atom_site_symmetry_multiplicity
  _atom_site_fract_x
  _atom_site_fract_y
  _atom_site_fract_z
  _atom_site_occupancy
  Sc  Sc1       1.0  0.2500000090415896  0.24999998996021117  0.24999997020786827  1.0000
  Sc  Sc2       1.0  0.749999980926722  0.7499999899884323  0.7499999729225757  1.0000
  Zr  Zr1       1.0  0.9999999891329381  0.9999999899461013  0.9999999420523586  1.0000
  Te  Te1       1.0  0.2663650464438701  0.2663650697088708  0.7336349322595648  1.0000
  Te  Te2       1.0  0.7336349813907446  0.7336349956979168  0.26636502172126447  1.0000
  Te  Te3       1.0  0.7336349245976671  0.26636506178111047  0.26636505598613475  1.0000
  Te  Te4       1.0  0.2663649776811211  0.7336350153552273  0.7336350151069788  1.0000
  Te  Te5       1.0  0.26636505273207217  0.7336349420677569  0.26636504417508394  1.0000
  Te  Te6       1.0  0.7336350332875741  0.2663649440444899  0.7336350456094349  1.0000
