data_image0
_chemical_formula_structural       Se2AsS6
_chemical_formula_sum              "Se2 As1 S6"
_cell_length_a       6.367803512837568
_cell_length_b       6.367803642002708
_cell_length_c       6.367803422484546
_cell_angle_alpha    60.00000420943217
_cell_angle_beta     60.000003401554885
_cell_angle_gamma    60.00000126191898

_space_group_name_H-M_alt    "P 1"
_space_group_IT_number       1

loop_
  _space_group_symop_operation_xyz
  'x, y, z'

loop_
  _atom_site_type_symbol
  _atom_site_label
  _atom_site_symmetry_multiplicity
  _atom_site_fract_x
  _atom_site_fract_y
  _atom_site_fract_z
  _atom_site_occupancy
  Se  Se1       1.0  0.24999997296920945  0.2500001018055398  0.24999997375615896  1.0000
  Se  Se2       1.0  0.7499999492033251  0.7500003015699395  0.7499998923399668  1.0000
  As  As1       1.0  4.157799437192292e-08  3.8466789867097945e-08  0.9999999945264149  1.0000
  S   S1        1.0  0.26191148350436  0.26191146453949493  0.7380885782971628  1.0000
  S   S2        1.0  0.7380884876947453  0.7380882695138404  0.26191163406594026  1.0000
  S   S3        1.0  0.7380884767299557  0.2619115225601059  0.2619114823747401  1.0000
  S   S4        1.0  0.26191143106795306  0.7380886519379728  0.7380884629465865  1.0000
  S   S5        1.0  0.2619115394403766  0.7380883444526998  0.26191143063782124  1.0000
  S   S6        1.0  0.7380885978916897  0.261911299203672  0.7380885679724584  1.0000
