data_image0
_chemical_formula_structural       Se2AsS6
_chemical_formula_sum              "Se2 As1 S6"
_cell_length_a       6.3677359295097675
_cell_length_b       6.3677356003826295
_cell_length_c       6.367736021673132
_cell_angle_alpha    59.99999723076967
_cell_angle_beta     59.99999894400063
_cell_angle_gamma    59.99999473192664

_space_group_name_H-M_alt    "P 1"
_space_group_IT_number       1

loop_
  _space_group_symop_operation_xyz
  'x, y, z'

loop_
  _atom_site_type_symbol
  _atom_site_label
  _atom_site_symmetry_multiplicity
  _atom_site_fract_x
  _atom_site_fract_y
  _atom_site_fract_z
  _atom_site_occupancy
  Se  Se1       1.0  0.24999967558996122  0.2499998021860042  0.250000513200489  1.0000
  Se  Se2       1.0  0.7499996462319448  0.7500000778107095  0.7500002095423319  1.0000
  As  As1       1.0  0.9999999945032919  9.8091370815364e-08  0.9999999913926728  1.0000
  S   S1        1.0  0.26190742617284113  0.2619070957151728  0.7380927930363652  1.0000
  S   S2        1.0  0.7380930038360414  0.7380925823286836  0.2619073085547885  1.0000
  S   S3        1.0  0.7380927264092874  0.2619074064124022  0.26190698433142656  1.0000
  S   S4        1.0  0.2619072936224576  0.7380929140337809  0.7380923980070578  1.0000
  S   S5        1.0  0.2619074127230198  0.7380927064834172  0.2619071340345755  1.0000
  S   S6        1.0  0.7380928322253928  0.2619073254587253  0.7380926255893042  1.0000
