data_image0
_chemical_formula_structural       Se2AsN6
_chemical_formula_sum              "Se2 As1 N6"
_cell_length_a       5.186891370011407
_cell_length_b       5.186891369629321
_cell_length_c       5.186891391192931
_cell_angle_alpha    60.00000007737844
_cell_angle_beta     59.999999710150654
_cell_angle_gamma    59.99999903200776

_space_group_name_H-M_alt    "P 1"
_space_group_IT_number       1

loop_
  _space_group_symop_operation_xyz
  'x, y, z'

loop_
  _atom_site_type_symbol
  _atom_site_label
  _atom_site_symmetry_multiplicity
  _atom_site_fract_x
  _atom_site_fract_y
  _atom_site_fract_z
  _atom_site_occupancy
  Se  Se1       1.0  0.24999993131340634  0.25000000949126266  0.24999996308246855  1.0000
  Se  Se2       1.0  0.750000377541578  0.7499998938836145  0.7499998691031373  1.0000
  As  As1       1.0  1.6482278018204542e-08  3.069600300430043e-08  0.9999999976181669  1.0000
  N   N1        1.0  0.2598993551440076  0.2598995970454875  0.7401005430727581  1.0000
  N   N2        1.0  0.7401005413912024  0.740100448003255  0.2598994976974101  1.0000
  N   N3        1.0  0.740100588513602  0.2598994895767696  0.2598994904479432  1.0000
  N   N4        1.0  0.25989933700841694  0.7401004751901182  0.7401005451227552  1.0000
  N   N5        1.0  0.25989931959791107  0.740100556382523  0.25989963911495795  1.0000
  N   N6        1.0  0.7401005572835428  0.25989950755606794  0.740100438667968  1.0000
