data_image0
_chemical_formula_structural       Se2AsO6
_chemical_formula_sum              "Se2 As1 O6"
_cell_length_a       5.454648683908091
_cell_length_b       5.4546488110619755
_cell_length_c       5.454648701229639
_cell_angle_alpha    60.00000151954157
_cell_angle_beta     60.00000149935214
_cell_angle_gamma    60.000002772995096

_space_group_name_H-M_alt    "P 1"
_space_group_IT_number       1

loop_
  _space_group_symop_operation_xyz
  'x, y, z'

loop_
  _atom_site_type_symbol
  _atom_site_label
  _atom_site_symmetry_multiplicity
  _atom_site_fract_x
  _atom_site_fract_y
  _atom_site_fract_z
  _atom_site_occupancy
  Se  Se1       1.0  0.24999953089763577  0.25000010400742817  0.2500003850748217  1.0000
  Se  Se2       1.0  0.7499998203218103  0.7499995441218378  0.7500008593614961  1.0000
  As  As1       1.0  0.9999999960230014  0.9999999865280618  0.9999999500589121  1.0000
  O   O1        1.0  0.2361805310714417  0.23618062303845744  0.7638193427750052  1.0000
  O   O2        1.0  0.7638196065637024  0.7638193776065275  0.2361802230499438  1.0000
  O   O3        1.0  0.7638195767084988  0.23618075381924525  0.23618027618645485  1.0000
  O   O4        1.0  0.23618059973164826  0.7638195432083769  0.7638193108744357  1.0000
  O   O5        1.0  0.23618071891741937  0.7638194267908379  0.2361803472687578  1.0000
  O   O6        1.0  0.7638196075923819  0.2361806232512567  0.7638192919166666  1.0000
