data_image0
_chemical_formula_structural       Se2BiO6
_chemical_formula_sum              "Se2 Bi1 O6"
_cell_length_a       5.7388606556434265
_cell_length_b       5.73886087658796
_cell_length_c       5.738860467156705
_cell_angle_alpha    59.99999939297398
_cell_angle_beta     59.99999986626514
_cell_angle_gamma    59.999999686730305

_space_group_name_H-M_alt    "P 1"
_space_group_IT_number       1

loop_
  _space_group_symop_operation_xyz
  'x, y, z'

loop_
  _atom_site_type_symbol
  _atom_site_label
  _atom_site_symmetry_multiplicity
  _atom_site_fract_x
  _atom_site_fract_y
  _atom_site_fract_z
  _atom_site_occupancy
  Se  Se1       1.0  0.250000008471275  0.24999993334283907  0.24999989509766898  1.0000
  Se  Se2       1.0  0.7499998142646412  0.7500000049045488  0.7499999794281176  1.0000
  Bi  Bi1       1.0  1.7174115534510386e-08  0.9999999786587465  0.999999982916001  1.0000
  O   O1        1.0  0.25559467903581173  0.25559463950269845  0.7444053854130352  1.0000
  O   O2        1.0  0.744405324176392  0.7444053307565576  0.2555947819025929  1.0000
  O   O3        1.0  0.7444054136617442  0.25559463886903866  0.2555947407671122  1.0000
  O   O4        1.0  0.25559471177774945  0.7444053932798547  0.744405276987345  1.0000
  O   O5        1.0  0.25559478742533137  0.7444053413094138  0.25559459166156373  1.0000
  O   O6        1.0  0.7444052331213307  0.25559473992436593  0.7444054052066921  1.0000
