data_image0
_chemical_formula_structural       Se2BO6
_chemical_formula_sum              "Se2 B1 O6"
_cell_length_a       5.144539740542453
_cell_length_b       5.1445380837083245
_cell_length_c       5.144538569747305
_cell_angle_alpha    59.99999077322276
_cell_angle_beta     59.99998446633837
_cell_angle_gamma    59.999995893169896

_space_group_name_H-M_alt    "P 1"
_space_group_IT_number       1

loop_
  _space_group_symop_operation_xyz
  'x, y, z'

loop_
  _atom_site_type_symbol
  _atom_site_label
  _atom_site_symmetry_multiplicity
  _atom_site_fract_x
  _atom_site_fract_y
  _atom_site_fract_z
  _atom_site_occupancy
  Se  Se1       1.0  0.24999717403663396  0.2499986114061369  0.2500015886046008  1.0000
  Se  Se2       1.0  0.7499990156497026  0.7500035737787948  0.7499968926792687  1.0000
  B   B1        1.0  2.787863267512101e-07  5.642189483268364e-07  8.089283389929228e-07  1.0000
  O   O1        1.0  0.21691594420837718  0.21691497070969556  0.7830854453038227  1.0000
  O   O2        1.0  0.7830880859695354  0.7830840148549393  0.21691383730032593  1.0000
  O   O3        1.0  0.7830847444853114  0.2169145125939736  0.21691568784691392  1.0000
  O   O4        1.0  0.2169141258051439  0.7830840277847825  0.7830858627473672  1.0000
  O   O5        1.0  0.21691561676712967  0.7830857673996433  0.21691477656995886  1.0000
  O   O6        1.0  0.783085231280536  0.21691424661431327  0.7830848014639706  1.0000
