data_image0
_chemical_formula_structural       Se2BiS6
_chemical_formula_sum              "Se2 Bi1 S6"
_cell_length_a       6.59804740255453
_cell_length_b       6.5980474697757
_cell_length_c       6.598047022226183
_cell_angle_alpha    60.00000368422443
_cell_angle_beta     60.00000329937212
_cell_angle_gamma    60.000004252344176

_space_group_name_H-M_alt    "P 1"
_space_group_IT_number       1

loop_
  _space_group_symop_operation_xyz
  'x, y, z'

loop_
  _atom_site_type_symbol
  _atom_site_label
  _atom_site_symmetry_multiplicity
  _atom_site_fract_x
  _atom_site_fract_y
  _atom_site_fract_z
  _atom_site_occupancy
  Se  Se1       1.0  0.25000013115409864  0.24999958507731937  0.24999985455734608  1.0000
  Se  Se2       1.0  0.7500002774600848  0.7499999747705453  0.7499998773114566  1.0000
  Bi  Bi1       1.0  0.9999999475313873  1.2065450069951772e-07  0.9999999568134569  1.0000
  S   S1        1.0  0.2791287234996776  0.27912896623141836  0.720871212303663  1.0000
  S   S2        1.0  0.7208710024011931  0.7208712767065393  0.2791288331059479  1.0000
  S   S3        1.0  0.7208711495232011  0.2791288924416952  0.27912896109193647  1.0000
  S   S4        1.0  0.27912888626648336  0.7208711296057199  0.7208711216609394  1.0000
  S   S5        1.0  0.2791287872089207  0.720871276927419  0.27912900018070785  1.0000
  S   S6        1.0  0.7208711046508838  0.2791287673946709  0.7208711888677687  1.0000
