data_image0
_chemical_formula_structural       Se2BS6
_chemical_formula_sum              "Se2 B1 S6"
_cell_length_a       6.311953820592956
_cell_length_b       6.3119542844962035
_cell_length_c       6.311954048744014
_cell_angle_alpha    59.999994807789804
_cell_angle_beta     59.999987769881955
_cell_angle_gamma    59.99999864965271

_space_group_name_H-M_alt    "P 1"
_space_group_IT_number       1

loop_
  _space_group_symop_operation_xyz
  'x, y, z'

loop_
  _atom_site_type_symbol
  _atom_site_label
  _atom_site_symmetry_multiplicity
  _atom_site_fract_x
  _atom_site_fract_y
  _atom_site_fract_z
  _atom_site_occupancy
  Se  Se1       1.0  0.24999881772422416  0.24999957911834952  0.250001076831227  1.0000
  Se  Se2       1.0  0.7499992448043341  0.7499995057367587  0.7500014774197475  1.0000
  B   B1        1.0  0.9999998555355407  0.999999901041757  3.932800524745515e-08  1.0000
  S   S1        1.0  0.22742202963324082  0.22742177435677813  0.7725782186991172  1.0000
  S   S2        1.0  0.7725783416260762  0.77257797992184  0.22742115761556161  1.0000
  S   S3        1.0  0.7725790556880867  0.22742201877760954  0.22742139552327806  1.0000
  S   S4        1.0  0.22742132315748656  0.7725793207732063  0.7725783266391065  1.0000
  S   S5        1.0  0.22742231224182025  0.7725782860920078  0.22742100142342733  1.0000
  S   S6        1.0  0.7725789205098095  0.22742153997987954  0.7725774456341176  1.0000
