data_image0
_chemical_formula_structural       Se2CO6
_chemical_formula_sum              "Se2 C1 O6"
_cell_length_a       5.186866253922101
_cell_length_b       5.186865072580301
_cell_length_c       5.1868657994439555
_cell_angle_alpha    59.99999173958083
_cell_angle_beta     59.999995703071306
_cell_angle_gamma    59.999990833873035

_space_group_name_H-M_alt    "P 1"
_space_group_IT_number       1

loop_
  _space_group_symop_operation_xyz
  'x, y, z'

loop_
  _atom_site_type_symbol
  _atom_site_label
  _atom_site_symmetry_multiplicity
  _atom_site_fract_x
  _atom_site_fract_y
  _atom_site_fract_z
  _atom_site_occupancy
  Se  Se1       1.0  0.24999975829906973  0.25000102013348996  0.24999943230231728  1.0000
  Se  Se2       1.0  0.7500003134743273  0.7499992233801774  0.7499994127204456  1.0000
  C   C1        1.0  0.9999999205279841  1.9834443423768605e-07  0.9999999193563777  1.0000
  O   O1        1.0  0.21591638412105535  0.21591618129553863  0.7840838385548271  1.0000
  O   O2        1.0  0.7840835090008375  0.7840836631680002  0.21591669886385798  1.0000
  O   O3        1.0  0.7840837290241481  0.21591635877814472  0.21591642121376797  1.0000
  O   O4        1.0  0.21591631727730853  0.7840835470777195  0.7840838816744903  1.0000
  O   O5        1.0  0.21591631711865644  0.7840834841389215  0.21591648727671728  1.0000
  O   O6        1.0  0.7840837606660404  0.21591632726721166  0.7840839049331838  1.0000
