data_image0
_chemical_formula_structural       Se2CoO6
_chemical_formula_sum              "Se2 Co1 O6"
_cell_length_a       5.498892752964553
_cell_length_b       5.49889252865853
_cell_length_c       5.498892998414583
_cell_angle_alpha    59.99999705323037
_cell_angle_beta     59.9999998903397
_cell_angle_gamma    59.999997333085545

_space_group_name_H-M_alt    "P 1"
_space_group_IT_number       1

loop_
  _space_group_symop_operation_xyz
  'x, y, z'

loop_
  _atom_site_type_symbol
  _atom_site_label
  _atom_site_symmetry_multiplicity
  _atom_site_fract_x
  _atom_site_fract_y
  _atom_site_fract_z
  _atom_site_occupancy
  Se  Se1       1.0  0.2500005556622121  0.2500009303281595  0.2499994468136433  1.0000
  Se  Se2       1.0  0.7500002280369275  0.7499992206908423  0.7499999357886695  1.0000
  Co  Co1       1.0  0.9999999657869082  0.9999999955454851  5.570475982985685e-08  1.0000
  O   O1        1.0  0.23222719520650392  0.23222767573611308  0.7677724597095569  1.0000
  O   O2        1.0  0.767772578960705  0.7677724485558046  0.23222756650205403  1.0000
  O   O3        1.0  0.7677722188744485  0.23222755417514154  0.2322273733269672  1.0000
  O   O4        1.0  0.23222760614130186  0.7677722159828452  0.7677728463539398  1.0000
  O   O5        1.0  0.2322273678198186  0.7677722662551442  0.23222753681292765  1.0000
  O   O6        1.0  0.7677722633883358  0.23222771994681296  0.7677727954110432  1.0000
