data_image0
_chemical_formula_structural       Se2CrO6
_chemical_formula_sum              "Se2 Cr1 O6"
_cell_length_a       5.352242229200682
_cell_length_b       5.352242523470061
_cell_length_c       5.352242434882917
_cell_angle_alpha    60.00000019161609
_cell_angle_beta     59.99999924086085
_cell_angle_gamma    59.99999959446338

_space_group_name_H-M_alt    "P 1"
_space_group_IT_number       1

loop_
  _space_group_symop_operation_xyz
  'x, y, z'

loop_
  _atom_site_type_symbol
  _atom_site_label
  _atom_site_symmetry_multiplicity
  _atom_site_fract_x
  _atom_site_fract_y
  _atom_site_fract_z
  _atom_site_occupancy
  Se  Se1       1.0  0.25000092117232525  0.25000024147094485  0.2499993428480904  1.0000
  Se  Se2       1.0  0.7499997434996396  0.7499998754596707  0.7500002582328812  1.0000
  Cr  Cr1       1.0  0.9999998918450786  5.263052378913048e-08  2.5893822481252744e-08  1.0000
  O   O1        1.0  0.2527470458990699  0.25274704599450776  0.7472529272819778  1.0000
  O   O2        1.0  0.7472527186748897  0.7472529816930616  0.25274713670712845  1.0000
  O   O3        1.0  0.7472527159704214  0.25274716155056665  0.25274701933352384  1.0000
  O   O4        1.0  0.25274711049561366  0.7472527128220021  0.7472531202610576  1.0000
  O   O5        1.0  0.2527470859502789  0.7472528370530445  0.2527471260031691  1.0000
  O   O6        1.0  0.7472527564663828  0.2527471059680309  0.7472530441585001  1.0000
