data_image0
_chemical_formula_structural       Se2CrS6
_chemical_formula_sum              "Se2 Cr1 S6"
_cell_length_a       6.142509981317329
_cell_length_b       6.142509721496215
_cell_length_c       6.14250981290255
_cell_angle_alpha    60.00000304947907
_cell_angle_beta     60.00000165504373
_cell_angle_gamma    60.00000320576464

_space_group_name_H-M_alt    "P 1"
_space_group_IT_number       1

loop_
  _space_group_symop_operation_xyz
  'x, y, z'

loop_
  _atom_site_type_symbol
  _atom_site_label
  _atom_site_symmetry_multiplicity
  _atom_site_fract_x
  _atom_site_fract_y
  _atom_site_fract_z
  _atom_site_occupancy
  Se  Se1       1.0  0.24999953378737183  0.2500006785102689  0.25000013208183286  1.0000
  Se  Se2       1.0  0.7500000386154513  0.7499996468584844  0.7500003086672725  1.0000
  Cr  Cr1       1.0  0.9999998492502378  5.1840975499435675e-08  3.2295823045434695e-07  1.0000
  S   S1        1.0  0.2560756058090996  0.2560757929135162  0.7439242612562056  1.0000
  S   S2        1.0  0.7439245188205752  0.743924161592917  0.25607562483090457  1.0000
  S   S3        1.0  0.7439243236265468  0.25607548041621536  0.2560754433010291  1.0000
  S   S4        1.0  0.2560758838535351  0.7439242368180821  0.7439242302131125  1.0000
  S   S5        1.0  0.25607590386455437  0.7439243462185172  0.2560753494248306  1.0000
  S   S6        1.0  0.7439243904078624  0.2560755843613122  0.7439242830963186  1.0000
