data_image0
_chemical_formula_structural       Se2CoS6
_chemical_formula_sum              "Se2 Co1 S6"
_cell_length_a       6.158960206249217
_cell_length_b       6.158960127646204
_cell_length_c       6.158959759713566
_cell_angle_alpha    60.00000309506003
_cell_angle_beta     60.000001854579956
_cell_angle_gamma    60.00000440932309

_space_group_name_H-M_alt    "P 1"
_space_group_IT_number       1

loop_
  _space_group_symop_operation_xyz
  'x, y, z'

loop_
  _atom_site_type_symbol
  _atom_site_label
  _atom_site_symmetry_multiplicity
  _atom_site_fract_x
  _atom_site_fract_y
  _atom_site_fract_z
  _atom_site_occupancy
  Se  Se1       1.0  0.25000000633826264  0.24999994880997967  0.25000001704117647  1.0000
  Se  Se2       1.0  0.7500000774723673  0.7500000254001421  0.7499998820764643  1.0000
  Co  Co1       1.0  0.9999999936184414  0.9999999741487475  0.9999999609122778  1.0000
  S   S1        1.0  0.24838421295547786  0.2483840381516616  0.7516158901854177  1.0000
  S   S2        1.0  0.7516159456209071  0.7516159479898112  0.24838410197033814  1.0000
  S   S3        1.0  0.7516158086651112  0.24838413969496023  0.2483841188712425  1.0000
  S   S4        1.0  0.24838402422042002  0.7516158842291002  0.7516159847656317  1.0000
  S   S5        1.0  0.24838407938817025  0.7516159126061028  0.24838416832354357  1.0000
  S   S6        1.0  0.7516158569346968  0.24838412722642317  0.7516158691458266  1.0000
