data_image0
_chemical_formula_structural       Se2CS6
_chemical_formula_sum              "Se2 C1 S6"
_cell_length_a       5.756006272754002
_cell_length_b       5.756007236336356
_cell_length_c       5.756006911464634
_cell_angle_alpha    60.000019659785366
_cell_angle_beta     60.00001596096703
_cell_angle_gamma    60.00001980028117

_space_group_name_H-M_alt    "P 1"
_space_group_IT_number       1

loop_
  _space_group_symop_operation_xyz
  'x, y, z'

loop_
  _atom_site_type_symbol
  _atom_site_label
  _atom_site_symmetry_multiplicity
  _atom_site_fract_x
  _atom_site_fract_y
  _atom_site_fract_z
  _atom_site_occupancy
  Se  Se1       1.0  0.25000142099895456  0.25000582797518306  0.2499923851204017  1.0000
  Se  Se2       1.0  0.7500022317947245  0.7500054024627926  0.7499986505208109  1.0000
  C   C1        1.0  8.390085017663444e-06  5.180901151954258e-05  0.9999505780370009  1.0000
  S   S1        1.0  0.2561511367749434  0.2561462974451533  0.7438535458381258  1.0000
  S   S2        1.0  0.7438304883136106  0.7438244692356559  0.25617359305964876  1.0000
  S   S3        1.0  0.7438388621677915  0.25615607918877387  0.2561638231574903  1.0000
  S   S4        1.0  0.25615829804548756  0.7438321883812768  0.7438455746678505  1.0000
  S   S5        1.0  0.25616547635166376  0.7438293515847729  0.25617157808439295  1.0000
  S   S6        1.0  0.7438434616442506  0.2561487388751236  0.743850518346487  1.0000
