data_image0
_chemical_formula_structural       Se2FeO6
_chemical_formula_sum              "Se2 Fe1 O6"
_cell_length_a       5.284369291485473
_cell_length_b       5.284369388688676
_cell_length_c       5.284369409782176
_cell_angle_alpha    59.99999953430566
_cell_angle_beta     59.999998886522455
_cell_angle_gamma    59.99999999335288

_space_group_name_H-M_alt    "P 1"
_space_group_IT_number       1

loop_
  _space_group_symop_operation_xyz
  'x, y, z'

loop_
  _atom_site_type_symbol
  _atom_site_label
  _atom_site_symmetry_multiplicity
  _atom_site_fract_x
  _atom_site_fract_y
  _atom_site_fract_z
  _atom_site_occupancy
  Se  Se1       1.0  0.2500005266966997  0.24999960203273847  0.24999976495344106  1.0000
  Se  Se2       1.0  0.7500001843360491  0.7500007645332558  0.7499981089653514  1.0000
  Fe  Fe1       1.0  0.9999999481970168  4.635348933004544e-09  1.1252536612727002e-07  1.0000
  O   O1        1.0  0.25092802986450163  0.25092784806747837  0.7490721165064445  1.0000
  O   O2        1.0  0.7490718106329111  0.7490722195184857  0.2509285903096096  1.0000
  O   O3        1.0  0.7490719001812305  0.2509275618741633  0.25092849858353705  1.0000
  O   O4        1.0  0.250928016716277  0.7490719749643172  0.7490721875052996  1.0000
  O   O5        1.0  0.2509276219785107  0.7490720897125007  0.2509283814831711  1.0000
  O   O6        1.0  0.7490719240572767  0.2509279500613683  0.7490722612773117  1.0000
