data_image0
_chemical_formula_structural       Se2FeS6
_chemical_formula_sum              "Se2 Fe1 S6"
_cell_length_a       6.236117803182743
_cell_length_b       6.23611786106353
_cell_length_c       6.236117578305492
_cell_angle_alpha    60.00000024183625
_cell_angle_beta     59.99999975626573
_cell_angle_gamma    59.999996752308626

_space_group_name_H-M_alt    "P 1"
_space_group_IT_number       1

loop_
  _space_group_symop_operation_xyz
  'x, y, z'

loop_
  _atom_site_type_symbol
  _atom_site_label
  _atom_site_symmetry_multiplicity
  _atom_site_fract_x
  _atom_site_fract_y
  _atom_site_fract_z
  _atom_site_occupancy
  Se  Se1       1.0  0.2499999210934925  0.2500000099584738  0.2499999108550663  1.0000
  Se  Se2       1.0  0.7500001207388162  0.750000057370761  0.7499998704220887  1.0000
  Fe  Fe1       1.0  1.632840381403026e-07  0.9999997878929596  0.999999840001893  1.0000
  S   S1        1.0  0.24903516016134605  0.2490352426205667  0.7509648483302784  1.0000
  S   S2        1.0  0.7509649273616532  0.7509649209424115  0.2490351345901661  1.0000
  S   S3        1.0  0.7509649311882264  0.24903500113687624  0.24903516919780172  1.0000
  S   S4        1.0  0.24903474843303816  0.7509651584982093  0.7509651110404842  1.0000
  S   S5        1.0  0.2490350264339221  0.75096493511316  0.2490351055536548  1.0000
  S   S6        1.0  0.7509650114000123  0.24903488868577292  0.7509650400221125  1.0000
