data_image0
_chemical_formula_structural       Se2GaS6
_chemical_formula_sum              "Se2 Ga1 S6"
_cell_length_a       6.2430498240771195
_cell_length_b       6.2430502766635065
_cell_length_c       6.243049959707097
_cell_angle_alpha    59.999995317120465
_cell_angle_beta     59.99999746003798
_cell_angle_gamma    59.999996275127835

_space_group_name_H-M_alt    "P 1"
_space_group_IT_number       1

loop_
  _space_group_symop_operation_xyz
  'x, y, z'

loop_
  _atom_site_type_symbol
  _atom_site_label
  _atom_site_symmetry_multiplicity
  _atom_site_fract_x
  _atom_site_fract_y
  _atom_site_fract_z
  _atom_site_occupancy
  Se  Se1       1.0  0.25000020647942856  0.2500002066890122  0.24999969949001333  1.0000
  Se  Se2       1.0  0.749999938428516  0.7500001217766018  0.750000213504406  1.0000
  Ga  Ga1       1.0  5.036813090798313e-08  9.808868587690591e-09  0.999999918654501  1.0000
  S   S1        1.0  0.268257135028278  0.2682570950625595  0.7317427082322856  1.0000
  S   S2        1.0  0.7317429586046293  0.7317427213802609  0.2682569450090321  1.0000
  S   S3        1.0  0.7317426826610803  0.26825720281143994  0.26825715716647125  1.0000
  S   S4        1.0  0.2682572197921502  0.7317426489432758  0.7317430144985656  1.0000
  S   S5        1.0  0.2682571755821551  0.7317428459330078  0.2682572286116972  1.0000
  S   S6        1.0  0.7317426302794485  0.2682571568782417  0.7317431048310606  1.0000
