data_image0
_chemical_formula_structural       Se2GeO6
_chemical_formula_sum              "Se2 Ge1 O6"
_cell_length_a       5.360016138416429
_cell_length_b       5.360016589254674
_cell_length_c       5.360016248816595
_cell_angle_alpha    59.999997729543274
_cell_angle_beta     59.9999981738237
_cell_angle_gamma    59.99999868870748

_space_group_name_H-M_alt    "P 1"
_space_group_IT_number       1

loop_
  _space_group_symop_operation_xyz
  'x, y, z'

loop_
  _atom_site_type_symbol
  _atom_site_label
  _atom_site_symmetry_multiplicity
  _atom_site_fract_x
  _atom_site_fract_y
  _atom_site_fract_z
  _atom_site_occupancy
  Se  Se1       1.0  0.2499996907565141  0.24999994973392384  0.25000017224126614  1.0000
  Se  Se2       1.0  0.7500001710858841  0.7499998423468618  0.749999965146075  1.0000
  Ge  Ge1       1.0  0.9999999924058712  0.9999999840052431  9.574941278652619e-08  1.0000
  O   O1        1.0  0.24755898290369968  0.2475592969021695  0.7524408481315282  1.0000
  O   O2        1.0  0.7524409495259838  0.7524407099653007  0.2475591558971502  1.0000
  O   O3        1.0  0.752440912103244  0.2475591868437889  0.24755911737635342  1.0000
  O   O4        1.0  0.2475591478623261  0.752440947981702  0.7524408260693418  1.0000
  O   O5        1.0  0.24755914638090562  0.7524408794190638  0.2475592517123941  1.0000
  O   O6        1.0  0.7524410038481427  0.24755919142741306  0.7524406748597382  1.0000
