data_image0
_chemical_formula_structural       Se2GeS6
_chemical_formula_sum              "Se2 Ge1 S6"
_cell_length_a       6.343826065034031
_cell_length_b       6.343826394153007
_cell_length_c       6.343826062337404
_cell_angle_alpha    59.99999899344768
_cell_angle_beta     60.00000243650533
_cell_angle_gamma    60.000002767701645

_space_group_name_H-M_alt    "P 1"
_space_group_IT_number       1

loop_
  _space_group_symop_operation_xyz
  'x, y, z'

loop_
  _atom_site_type_symbol
  _atom_site_label
  _atom_site_symmetry_multiplicity
  _atom_site_fract_x
  _atom_site_fract_y
  _atom_site_fract_z
  _atom_site_occupancy
  Se  Se1       1.0  0.2500000033708  0.2499999007141846  0.25000037820986637  1.0000
  Se  Se2       1.0  0.7499999372190199  0.7500004068149076  0.7499996175722324  1.0000
  Ge  Ge1       1.0  5.041341122718128e-08  2.895913991431488e-08  0.9999998893786147  1.0000
  S   S1        1.0  0.261484601036705  0.2614842575432422  0.7385156942508925  1.0000
  S   S2        1.0  0.7385156013051574  0.7385153684808504  0.2614846848046395  1.0000
  S   S3        1.0  0.7385153634085255  0.26148459459866447  0.26148446492545646  1.0000
  S   S4        1.0  0.2614844501713492  0.738515755403837  0.7385152547050798  1.0000
  S   S5        1.0  0.2614844413181028  0.7385154521586591  0.2614844785907846  1.0000
  S   S6        1.0  0.7385155385907397  0.26148425688163623  0.7385155193411173  1.0000
