data_image0
_chemical_formula_structural       Se2GaN6
_chemical_formula_sum              "Se2 Ga1 N6"
_cell_length_a       6.032863436672807
_cell_length_b       6.143444491938571
_cell_length_c       6.80802520108895
_cell_angle_alpha    56.90810334452664
_cell_angle_beta     65.31238383273656
_cell_angle_gamma    64.5496010690691

_space_group_name_H-M_alt    "P 1"
_space_group_IT_number       1

loop_
  _space_group_symop_operation_xyz
  'x, y, z'

loop_
  _atom_site_type_symbol
  _atom_site_label
  _atom_site_symmetry_multiplicity
  _atom_site_fract_x
  _atom_site_fract_y
  _atom_site_fract_z
  _atom_site_occupancy
  Se  Se1       1.0  0.4115247163364579  0.3582174929018607  0.009097354131588721  1.0000
  Se  Se2       1.0  0.7218833812864184  0.5578673047841983  0.8986083907093022  1.0000
  Ga  Ga1       1.0  0.8686337444773489  0.07495523838871912  0.9443263962213349  1.0000
  N   N1        1.0  0.35112293457214816  0.22869361600180038  0.6227590056898734  1.0000
  N   N2        1.0  0.6851111979784018  0.622306111462655  0.434478509520192  1.0000
  N   N3        1.0  0.5355097259721828  0.28449387721620173  0.5649978017671805  1.0000
  N   N4        1.0  0.4513363466468089  0.7186235294087607  0.4844395491002988  1.0000
  N   N5        1.0  0.23763560277508863  0.8173236505137397  0.5291977500666933  1.0000
  N   N6        1.0  0.7372440236381157  0.3375723645678356  0.5120772105029394  1.0000
