data_image0
_chemical_formula_structural       Se2HfO6
_chemical_formula_sum              "Se2 Hf1 O6"
_cell_length_a       5.4412754590625845
_cell_length_b       5.441275440303827
_cell_length_c       5.441275521672702
_cell_angle_alpha    59.999999039072435
_cell_angle_beta     59.99999958890038
_cell_angle_gamma    59.999998941084755

_space_group_name_H-M_alt    "P 1"
_space_group_IT_number       1

loop_
  _space_group_symop_operation_xyz
  'x, y, z'

loop_
  _atom_site_type_symbol
  _atom_site_label
  _atom_site_symmetry_multiplicity
  _atom_site_fract_x
  _atom_site_fract_y
  _atom_site_fract_z
  _atom_site_occupancy
  Se  Se1       1.0  0.24999997540695218  0.250000051429884  0.250000066352778  1.0000
  Se  Se2       1.0  0.7500001759828475  0.7500004108855892  0.7499996738843204  1.0000
  Hf  Hf1       1.0  2.486210802785032e-09  1.8006732228355878e-08  2.6509616069965293e-08  1.0000
  O   O1        1.0  0.26658384717458194  0.26658364835393206  0.7334161810910206  1.0000
  O   O2        1.0  0.7334161852374075  0.7334161904784318  0.26658384951314723  1.0000
  O   O3        1.0  0.7334162662173315  0.2665836494147581  0.266583865656196  1.0000
  O   O4        1.0  0.26658364360488535  0.733416200671814  0.7334162389937977  1.0000
  O   O5        1.0  0.26658363805576357  0.7334162368481607  0.2665838514023101  1.0000
  O   O6        1.0  0.7334162797620835  0.26658360198420383  0.7334162144452759  1.0000
