data_image0
_chemical_formula_structural       Se2IrO6
_chemical_formula_sum              "Se2 Ir1 O6"
_cell_length_a       5.493793467104809
_cell_length_b       5.493793379066693
_cell_length_c       5.493793416082698
_cell_angle_alpha    59.999998207344085
_cell_angle_beta     59.99999909557217
_cell_angle_gamma    59.99999790785735

_space_group_name_H-M_alt    "P 1"
_space_group_IT_number       1

loop_
  _space_group_symop_operation_xyz
  'x, y, z'

loop_
  _atom_site_type_symbol
  _atom_site_label
  _atom_site_symmetry_multiplicity
  _atom_site_fract_x
  _atom_site_fract_y
  _atom_site_fract_z
  _atom_site_occupancy
  Se  Se1       1.0  0.2499985237246192  0.25000240319448835  0.24999973186776017  1.0000
  Se  Se2       1.0  0.7499988500316702  0.7500005572786894  0.7499999030398969  1.0000
  Ir  Ir1       1.0  1.8717201562694812e-07  0.9999998105074032  0.9999999829579321  1.0000
  O   O1        1.0  0.2432499430740527  0.2432490299116521  0.7567504035332672  1.0000
  O   O2        1.0  0.7567512152522493  0.7567497840176376  0.24324965263248116  1.0000
  O   O3        1.0  0.7567507921268309  0.24324928290742248  0.24324954011039676  1.0000
  O   O4        1.0  0.24324986710451413  0.7567499122363829  0.7567508898963826  1.0000
  O   O5        1.0  0.24324979351538925  0.7567498365382235  0.24324945723152244  1.0000
  O   O6        1.0  0.7567508372666039  0.24324938089883583  0.7567504279623003  1.0000
