data_image0
_chemical_formula_structural       Se2IrO6
_chemical_formula_sum              "Se2 Ir1 O6"
_cell_length_a       5.493382846116629
_cell_length_b       5.493382365756271
_cell_length_c       5.493382971723921
_cell_angle_alpha    59.999998964090324
_cell_angle_beta     60.00000027751647
_cell_angle_gamma    59.99999854383927

_space_group_name_H-M_alt    "P 1"
_space_group_IT_number       1

loop_
  _space_group_symop_operation_xyz
  'x, y, z'

loop_
  _atom_site_type_symbol
  _atom_site_label
  _atom_site_symmetry_multiplicity
  _atom_site_fract_x
  _atom_site_fract_y
  _atom_site_fract_z
  _atom_site_occupancy
  Se  Se1       1.0  0.2500007785681021  0.24999989244039877  0.24999918974095456  1.0000
  Se  Se2       1.0  0.7500011070279119  0.7499979717602825  0.7500008257670528  1.0000
  Ir  Ir1       1.0  0.9999998666167972  1.6052338503000557e-07  5.924478703948679e-08  1.0000
  O   O1        1.0  0.24325545087844302  0.24325660105252853  0.7567440277549737  1.0000
  O   O2        1.0  0.7567436946972528  0.756744299715485  0.2432559141148131  1.0000
  O   O3        1.0  0.7567438962618954  0.243256543630813  0.24325563530494215  1.0000
  O   O4        1.0  0.2432556155547659  0.7567439268453517  0.7567442512124294  1.0000
  O   O5        1.0  0.2432559457620719  0.7567440741640798  0.2432559424351061  1.0000
  O   O6        1.0  0.7567436561192737  0.24325652339310655  0.7567441832004486  1.0000
