data_image0
_chemical_formula_structural       Se2IrS6
_chemical_formula_sum              "Se2 Ir1 S6"
_cell_length_a       6.244866644889505
_cell_length_b       6.244866708196377
_cell_length_c       6.2448667941302
_cell_angle_alpha    60.00000016893292
_cell_angle_beta     60.00000030017715
_cell_angle_gamma    59.99999997549149

_space_group_name_H-M_alt    "P 1"
_space_group_IT_number       1

loop_
  _space_group_symop_operation_xyz
  'x, y, z'

loop_
  _atom_site_type_symbol
  _atom_site_label
  _atom_site_symmetry_multiplicity
  _atom_site_fract_x
  _atom_site_fract_y
  _atom_site_fract_z
  _atom_site_occupancy
  Se  Se1       1.0  0.24999996219982587  0.24999988074141602  0.2500001062590793  1.0000
  Se  Se2       1.0  0.7499999423620597  0.7500000795724225  0.7499999377113871  1.0000
  Ir  Ir1       1.0  0.9999999554372132  0.999999945086328  4.9738228815032054e-08  1.0000
  S   S1        1.0  0.26098081996554007  0.2609807181768936  0.7390192048260492  1.0000
  S   S2        1.0  0.7390192543330065  0.7390193264686554  0.2609807697575798  1.0000
  S   S3        1.0  0.7390193110877192  0.2609807627694373  0.260980716127195  1.0000
  S   S4        1.0  0.2609807477455325  0.7390193171777583  0.7390192517408883  1.0000
  S   S5        1.0  0.26098071711409887  0.739019249084855  0.26098073464300126  1.0000
  S   S6        1.0  0.7390192729330135  0.26098072103499603  0.7390192296555426  1.0000
