data_image0
_chemical_formula_structural       Se2MnS6
_chemical_formula_sum              "Se2 Mn1 S6"
_cell_length_a       6.319747192163021
_cell_length_b       6.319747140864805
_cell_length_c       6.3197473074964154
_cell_angle_alpha    59.9999990838087
_cell_angle_beta     60.000000529693644
_cell_angle_gamma    60.00000142639868

_space_group_name_H-M_alt    "P 1"
_space_group_IT_number       1

loop_
  _space_group_symop_operation_xyz
  'x, y, z'

loop_
  _atom_site_type_symbol
  _atom_site_label
  _atom_site_symmetry_multiplicity
  _atom_site_fract_x
  _atom_site_fract_y
  _atom_site_fract_z
  _atom_site_occupancy
  Se  Se1       1.0  0.24999993327546843  0.25000002303104807  0.2499999568535861  1.0000
  Se  Se2       1.0  0.7500000698935212  0.7499999276217038  0.7500000784257036  1.0000
  Mn  Mn1       1.0  2.076344338534228e-08  0.9999999651166306  0.9999999880718623  1.0000
  S   S1        1.0  0.2479881333373543  0.24798807571966355  0.7520119422149416  1.0000
  S   S2        1.0  0.7520118430136138  0.7520119718313375  0.24798808650638546  1.0000
  S   S3        1.0  0.7520119433730735  0.24798808795482322  0.2479880794581379  1.0000
  S   S4        1.0  0.24798809678186964  0.7520118394423494  0.7520119331325477  1.0000
  S   S5        1.0  0.2479881018657591  0.752011965882052  0.2479880710044588  1.0000
  S   S6        1.0  0.7520118533702466  0.24798816693940906  0.7520118386103232  1.0000
