data_image0
_chemical_formula_structural       Se2MnO6
_chemical_formula_sum              "Se2 Mn1 O6"
_cell_length_a       5.321756505754091
_cell_length_b       5.321756571552322
_cell_length_c       5.321756674643076
_cell_angle_alpha    59.999999319742464
_cell_angle_beta     60.000001635627086
_cell_angle_gamma    60.00000074717507

_space_group_name_H-M_alt    "P 1"
_space_group_IT_number       1

loop_
  _space_group_symop_operation_xyz
  'x, y, z'

loop_
  _atom_site_type_symbol
  _atom_site_label
  _atom_site_symmetry_multiplicity
  _atom_site_fract_x
  _atom_site_fract_y
  _atom_site_fract_z
  _atom_site_occupancy
  Se  Se1       1.0  0.2500000996309305  0.25000003213364547  0.2499998982805321  1.0000
  Se  Se2       1.0  0.7499999489915294  0.7499999744271487  0.7500000754681797  1.0000
  Mn  Mn1       1.0  2.531531172114453e-08  0.9999999240540598  0.9999999802174242  1.0000
  O   O1        1.0  0.2536761860759836  0.253676249966087  0.7463237485976786  1.0000
  O   O2        1.0  0.7463237735857708  0.7463237565947066  0.2536762621150693  1.0000
  O   O3        1.0  0.7463236061240469  0.2536763963685872  0.2536763513978549  1.0000
  O   O4        1.0  0.253676346610949  0.7463236700284024  0.7463236272229378  1.0000
  O   O5        1.0  0.25367615607029154  0.7463238501537055  0.25367615335814125  1.0000
  O   O6        1.0  0.7463238487844307  0.25367613799595035  0.7463239285222373  1.0000
