data_image0
_chemical_formula_structural       Se2MoO6
_chemical_formula_sum              "Se2 Mo1 O6"
_cell_length_a       5.37278062678075
_cell_length_b       5.3727805289969774
_cell_length_c       5.372780616562704
_cell_angle_alpha    59.99999910177669
_cell_angle_beta     59.999999063140976
_cell_angle_gamma    60.00000005337468

_space_group_name_H-M_alt    "P 1"
_space_group_IT_number       1

loop_
  _space_group_symop_operation_xyz
  'x, y, z'

loop_
  _atom_site_type_symbol
  _atom_site_label
  _atom_site_symmetry_multiplicity
  _atom_site_fract_x
  _atom_site_fract_y
  _atom_site_fract_z
  _atom_site_occupancy
  Se  Se1       1.0  0.25000004932487824  0.250000001522619  0.2500002366239132  1.0000
  Se  Se2       1.0  0.7499995016375984  0.7500001253832794  0.7500005426875811  1.0000
  Mo  Mo1       1.0  1.9450508831992744e-08  3.191350987584211e-08  0.999999955705654  1.0000
  O   O1        1.0  0.24904767276252318  0.24904742869325397  0.7509523710436796  1.0000
  O   O2        1.0  0.7509524646657855  0.7509524862157657  0.24904738347819833  1.0000
  O   O3        1.0  0.7509524770648537  0.24904750033344847  0.24904746048892729  1.0000
  O   O4        1.0  0.2490476227622881  0.7509525080365631  0.7509523963893925  1.0000
  O   O5        1.0  0.24904774176501285  0.7509523531750644  0.24904728502928344  1.0000
  O   O6        1.0  0.7509524988680708  0.24904748422971856  0.7509524343075212  1.0000
