data_image0
_chemical_formula_structural       Se2MoS6
_chemical_formula_sum              "Se2 Mo1 S6"
_cell_length_a       6.349093454329048
_cell_length_b       6.349093454119459
_cell_length_c       6.349093490497952
_cell_angle_alpha    59.99999891452753
_cell_angle_beta     59.9999995300408
_cell_angle_gamma    59.99999944834177

_space_group_name_H-M_alt    "P 1"
_space_group_IT_number       1

loop_
  _space_group_symop_operation_xyz
  'x, y, z'

loop_
  _atom_site_type_symbol
  _atom_site_label
  _atom_site_symmetry_multiplicity
  _atom_site_fract_x
  _atom_site_fract_y
  _atom_site_fract_z
  _atom_site_occupancy
  Se  Se1       1.0  0.24999998134060802  0.25000000925587385  0.2500000016503895  1.0000
  Se  Se2       1.0  0.7500000285639404  0.7499999814714419  0.7499999700779203  1.0000
  Mo  Mo1       1.0  0.9999999866261976  1.929007383315975e-09  1.674759347559507e-08  1.0000
  S   S1        1.0  0.2563348455292304  0.25633490197651193  0.7436651538132195  1.0000
  S   S2        1.0  0.7436652089598861  0.7436651350469828  0.25633487012645245  1.0000
  S   S3        1.0  0.7436651245771365  0.25633487178541786  0.2563348496393678  1.0000
  S   S4        1.0  0.256334838353621  0.7436651343739576  0.7436651567601436  1.0000
  S   S5        1.0  0.2563348393243431  0.743665146521169  0.2563348227094434  1.0000
  S   S6        1.0  0.7436651380645064  0.25633483263210194  0.7436651490133467  1.0000
