data_image0
_chemical_formula_structural       Se2NO6
_chemical_formula_sum              "Se2 N1 O6"
_cell_length_a       5.264183329877592
_cell_length_b       5.264182898311391
_cell_length_c       5.264182067150749
_cell_angle_alpha    60.00000456356553
_cell_angle_beta     60.000006361469396
_cell_angle_gamma    60.00001229545843

_space_group_name_H-M_alt    "P 1"
_space_group_IT_number       1

loop_
  _space_group_symop_operation_xyz
  'x, y, z'

loop_
  _atom_site_type_symbol
  _atom_site_label
  _atom_site_symmetry_multiplicity
  _atom_site_fract_x
  _atom_site_fract_y
  _atom_site_fract_z
  _atom_site_occupancy
  Se  Se1       1.0  0.24999981844326613  0.24999936252284083  0.2500000455890374  1.0000
  Se  Se2       1.0  0.750006360032074  0.7500022148902951  0.7499947537291094  1.0000
  N   N1        1.0  0.9999991796647958  0.9999979270331724  2.00324272731323e-06  1.0000
  O   O1        1.0  0.23260958041522564  0.23261052375564192  0.7673901743859477  1.0000
  O   O2        1.0  0.7673910782016725  0.7673914514989459  0.232609110266298  1.0000
  O   O3        1.0  0.7673902243962463  0.23260819728516774  0.23261110101146276  1.0000
  O   O4        1.0  0.2326073411047025  0.7673904556385407  0.7673912203975194  1.0000
  O   O5        1.0  0.23260658565210227  0.7673910101781177  0.23261117569775028  1.0000
  O   O6        1.0  0.7673898080537073  0.23260889443580404  0.7673903896030623  1.0000
