data_image0
_chemical_formula_structural       Se2NiS6
_chemical_formula_sum              "Se2 Ni1 S6"
_cell_length_a       6.28637280338404
_cell_length_b       6.286372807130288
_cell_length_c       6.286372662756483
_cell_angle_alpha    59.999997197224694
_cell_angle_beta     59.99999862681915
_cell_angle_gamma    60.00000026473926

_space_group_name_H-M_alt    "P 1"
_space_group_IT_number       1

loop_
  _space_group_symop_operation_xyz
  'x, y, z'

loop_
  _atom_site_type_symbol
  _atom_site_label
  _atom_site_symmetry_multiplicity
  _atom_site_fract_x
  _atom_site_fract_y
  _atom_site_fract_z
  _atom_site_occupancy
  Se  Se1       1.0  0.24999983744724652  0.250000034624625  0.2499998525878038  1.0000
  Se  Se2       1.0  0.7499996872099169  0.7500002129760648  0.7500000409400143  1.0000
  Ni  Ni1       1.0  4.397252543915864e-08  5.844761843398447e-09  0.9999999798635829  1.0000
  S   S1        1.0  0.24621720331402885  0.24621729093505676  0.7537828055054597  1.0000
  S   S2        1.0  0.7537828423952747  0.7537826994961518  0.2462171342441844  1.0000
  S   S3        1.0  0.7537829181322316  0.2462171112826136  0.24621731511183495  1.0000
  S   S4        1.0  0.24621733716371055  0.7537827408225802  0.7537828196651565  1.0000
  S   S5        1.0  0.2462174098033373  0.7537827592160032  0.24621706635921847  1.0000
  S   S6        1.0  0.7537827358016153  0.24621712990601202  0.7537829902213996  1.0000
