data_image0
_chemical_formula_structural       Se2NbO6
_chemical_formula_sum              "Se2 Nb1 O6"
_cell_length_a       5.3570863793038574
_cell_length_b       5.357086308894689
_cell_length_c       5.35708643915485
_cell_angle_alpha    60.000000875498266
_cell_angle_beta     60.00000110319605
_cell_angle_gamma    60.000000930354986

_space_group_name_H-M_alt    "P 1"
_space_group_IT_number       1

loop_
  _space_group_symop_operation_xyz
  'x, y, z'

loop_
  _atom_site_type_symbol
  _atom_site_label
  _atom_site_symmetry_multiplicity
  _atom_site_fract_x
  _atom_site_fract_y
  _atom_site_fract_z
  _atom_site_occupancy
  Se  Se1       1.0  0.2499999488775404  0.24999994114159477  0.25000004235892986  1.0000
  Se  Se2       1.0  0.7499999832523587  0.749999930876871  0.750000180509395  1.0000
  Nb  Nb1       1.0  6.274751524666874e-08  2.5148359798173175e-08  0.9999999187183369  1.0000
  O   O1        1.0  0.25730295529403985  0.257303001926164  0.7426969978111608  1.0000
  O   O2        1.0  0.742697009817718  0.7426970621343207  0.25730293334334087  1.0000
  O   O3        1.0  0.7426970815192452  0.2573029603982821  0.2573029716030119  1.0000
  O   O4        1.0  0.2573029060848388  0.742697016786051  0.7426970346771872  1.0000
  O   O5        1.0  0.2573030150176267  0.7426970628268751  0.25730285359808935  1.0000
  O   O6        1.0  0.7426969822953362  0.2573030080922541  0.7426970990935873  1.0000
