data_image0
_chemical_formula_structural       Se2NiO6
_chemical_formula_sum              "Se2 Ni1 O6"
_cell_length_a       5.272915226546589
_cell_length_b       5.272915185365275
_cell_length_c       5.272915432447132
_cell_angle_alpha    60.00000034168925
_cell_angle_beta     60.000000367796055
_cell_angle_gamma    59.99999819610878

_space_group_name_H-M_alt    "P 1"
_space_group_IT_number       1

loop_
  _space_group_symop_operation_xyz
  'x, y, z'

loop_
  _atom_site_type_symbol
  _atom_site_label
  _atom_site_symmetry_multiplicity
  _atom_site_fract_x
  _atom_site_fract_y
  _atom_site_fract_z
  _atom_site_occupancy
  Se  Se1       1.0  0.2500009350315073  0.25000112870699426  0.24999894710940623  1.0000
  Se  Se2       1.0  0.7499996064989142  0.7500002040094199  0.7500009287186726  1.0000
  Ni  Ni1       1.0  1.6281758386213138e-08  0.9999999117370494  6.633433982883535e-08  1.0000
  O   O1        1.0  0.24029386851532764  0.2402936310962355  0.7597062296285383  1.0000
  O   O2        1.0  0.7597062778257562  0.7597061082416375  0.24029348552466737  1.0000
  O   O3        1.0  0.7597057864542022  0.24029402240147849  0.2402934851333364  1.0000
  O   O4        1.0  0.24029365412973686  0.7597056728049365  0.7597067415110125  1.0000
  O   O5        1.0  0.2402941316114371  0.7597057253134903  0.24029343356311936  1.0000
  O   O6        1.0  0.7597057500059424  0.24029357967776252  0.7597066406076592  1.0000
