data_image0
_chemical_formula_structural       Se2PO6
_chemical_formula_sum              "Se2 P1 O6"
_cell_length_a       5.46491950935213
_cell_length_b       5.46491946166184
_cell_length_c       5.464919103936238
_cell_angle_alpha    59.9999991067991
_cell_angle_beta     59.99999845992956
_cell_angle_gamma    59.99999659952235

_space_group_name_H-M_alt    "P 1"
_space_group_IT_number       1

loop_
  _space_group_symop_operation_xyz
  'x, y, z'

loop_
  _atom_site_type_symbol
  _atom_site_label
  _atom_site_symmetry_multiplicity
  _atom_site_fract_x
  _atom_site_fract_y
  _atom_site_fract_z
  _atom_site_occupancy
  Se  Se1       1.0  0.2500002093514373  0.25000010337528245  0.24999987752758748  1.0000
  Se  Se2       1.0  0.7500001125905653  0.749999935861626  0.7499994699354908  1.0000
  P   P1        1.0  0.9999999342867374  0.9999999372491107  2.3975307781859724e-08  1.0000
  O   O1        1.0  0.21989285542963768  0.21989278799579381  0.7801071585272297  1.0000
  O   O2        1.0  0.7801070777327778  0.7801072512411146  0.21989296338913494  1.0000
  O   O3        1.0  0.7801069810763656  0.21989277502661048  0.21989311555242488  1.0000
  O   O4        1.0  0.21989288340663685  0.7801071723250634  0.7801071781389305  1.0000
  O   O5        1.0  0.2198928766456311  0.7801070510688607  0.21989298796125606  1.0000
  O   O6        1.0  0.7801070391006385  0.2198930150612862  0.7801071932614262  1.0000
