data_image0
_chemical_formula_structural       Se2PdO6
_chemical_formula_sum              "Se2 Pd1 O6"
_cell_length_a       5.632944544456623
_cell_length_b       5.632937803398282
_cell_length_c       5.632939428984978
_cell_angle_alpha    59.99996923061454
_cell_angle_beta     59.99999307049748
_cell_angle_gamma    60.00000531103418

_space_group_name_H-M_alt    "P 1"
_space_group_IT_number       1

loop_
  _space_group_symop_operation_xyz
  'x, y, z'

loop_
  _atom_site_type_symbol
  _atom_site_label
  _atom_site_symmetry_multiplicity
  _atom_site_fract_x
  _atom_site_fract_y
  _atom_site_fract_z
  _atom_site_occupancy
  Se  Se1       1.0  0.24999971258551434  0.2500054266505441  0.24998738166147885  1.0000
  Se  Se2       1.0  0.7499986156563686  0.7499974291437733  0.7499915192087996  1.0000
  Pd  Pd1       1.0  0.999998431425506  1.3110755630431525e-06  4.9770176971003e-06  1.0000
  O   O1        1.0  0.22709174734802298  0.22709674230337282  0.7729065590930223  1.0000
  O   O2        1.0  0.7729092343010169  0.7729019476140023  0.2270963860309963  1.0000
  O   O3        1.0  0.7729029622769613  0.22709464452282851  0.227095746437624  1.0000
  O   O4        1.0  0.2270947338318731  0.7729074263617195  0.7729116228836128  1.0000
  O   O5        1.0  0.22709810195047445  0.7729035221082822  0.22709310330680402  1.0000
  O   O6        1.0  0.7729046388766165  0.22709224560849495  0.7729145668134598  1.0000
