data_image0
_chemical_formula_structural       Se2PS6
_chemical_formula_sum              "Se2 P1 S6"
_cell_length_a       6.413567967401275
_cell_length_b       6.413568669670349
_cell_length_c       6.413567916052622
_cell_angle_alpha    59.99999404849081
_cell_angle_beta     59.999994434830306
_cell_angle_gamma    59.99999333745402

_space_group_name_H-M_alt    "P 1"
_space_group_IT_number       1

loop_
  _space_group_symop_operation_xyz
  'x, y, z'

loop_
  _atom_site_type_symbol
  _atom_site_label
  _atom_site_symmetry_multiplicity
  _atom_site_fract_x
  _atom_site_fract_y
  _atom_site_fract_z
  _atom_site_occupancy
  Se  Se1       1.0  0.250000379984209  0.24999971911170543  0.2500002828892263  1.0000
  Se  Se2       1.0  0.7499996920630643  0.7500003412968382  0.74999987360346  1.0000
  P   P1        1.0  0.9999999869603278  2.2915383098923396e-08  2.1568450392130736e-08  1.0000
  S   S1        1.0  0.24151307652535045  0.24151297540893413  0.7584871783696143  1.0000
  S   S2        1.0  0.758487071797332  0.7584868615745853  0.24151325751157052  1.0000
  S   S3        1.0  0.7584866334055886  0.2415130385958364  0.24151307580437517  1.0000
  S   S4        1.0  0.24151291466503294  0.7584873082551006  0.7584865695408528  1.0000
  S   S5        1.0  0.24151327202627007  0.7584867701826984  0.24151275965892913  1.0000
  S   S6        1.0  0.7584869864861242  0.24151298468741866  0.7584869309218686  1.0000
