data_image0
_chemical_formula_structural       Se2PbO6
_chemical_formula_sum              "Se2 Pb1 O6"
_cell_length_a       5.74495375556708
_cell_length_b       5.744953754645625
_cell_length_c       5.744954136627887
_cell_angle_alpha    60.000000548939354
_cell_angle_beta     59.99999772324777
_cell_angle_gamma    59.99999946666083

_space_group_name_H-M_alt    "P 1"
_space_group_IT_number       1

loop_
  _space_group_symop_operation_xyz
  'x, y, z'

loop_
  _atom_site_type_symbol
  _atom_site_label
  _atom_site_symmetry_multiplicity
  _atom_site_fract_x
  _atom_site_fract_y
  _atom_site_fract_z
  _atom_site_occupancy
  Se  Se1       1.0  0.2499999591661254  0.24999915894464086  0.25000071433615206  1.0000
  Se  Se2       1.0  0.7500013427324244  0.749999340081283  0.7499997250629041  1.0000
  Pb  Pb1       1.0  8.953820484062863e-08  0.9999997313853888  1.4349859350700005e-07  1.0000
  O   O1        1.0  0.25940200480997305  0.25940294584365486  0.7405972867942324  1.0000
  O   O2        1.0  0.740597689571997  0.7405974633306149  0.2594024582037057  1.0000
  O   O3        1.0  0.7405975741624999  0.2594026012478615  0.2594022320598245  1.0000
  O   O4        1.0  0.25940193641615217  0.7405981362331489  0.7405971586998242  1.0000
  O   O5        1.0  0.2594018534058939  0.7405981573322166  0.25940277900297154  1.0000
  O   O6        1.0  0.7405975802482129  0.25940250340178667  0.7405974736291798  1.0000
