data_image0
_chemical_formula_structural       Se2PtS6
_chemical_formula_sum              "Se2 Pt1 S6"
_cell_length_a       6.292703274763641
_cell_length_b       6.292703396029098
_cell_length_c       6.2927032837023695
_cell_angle_alpha    60.00000101311497
_cell_angle_beta     60.000001453937564
_cell_angle_gamma    60.00000117690786

_space_group_name_H-M_alt    "P 1"
_space_group_IT_number       1

loop_
  _space_group_symop_operation_xyz
  'x, y, z'

loop_
  _atom_site_type_symbol
  _atom_site_label
  _atom_site_symmetry_multiplicity
  _atom_site_fract_x
  _atom_site_fract_y
  _atom_site_fract_z
  _atom_site_occupancy
  Se  Se1       1.0  0.2500000896917147  0.2499998912785124  0.24999995882419676  1.0000
  Se  Se2       1.0  0.7499999154924748  0.7499999969202799  0.7500000442791968  1.0000
  Pt  Pt1       1.0  2.1482343888356773e-08  0.9999999961074129  0.9999999181045831  1.0000
  S   S1        1.0  0.2590597782695972  0.25905974563686224  0.7409402714181386  1.0000
  S   S2        1.0  0.7409401927335967  0.7409402671247224  0.25905982157143886  1.0000
  S   S3        1.0  0.7409402346295026  0.2590598009422756  0.259059760301194  1.0000
  S   S4        1.0  0.25905978393374945  0.7409402838321737  0.7409401950339578  1.0000
  S   S5        1.0  0.2590598277915018  0.7409402570083954  0.25905974288418304  1.0000
  S   S6        1.0  0.7409401817463398  0.25905975575318946  0.7409402752180958  1.0000
