data_image0
_chemical_formula_structural       Se2PO6
_chemical_formula_sum              "Se2 P1 O6"
_cell_length_a       5.464905759135394
_cell_length_b       5.464905788659097
_cell_length_c       5.464905996197149
_cell_angle_alpha    59.99999725148219
_cell_angle_beta     59.99999614728608
_cell_angle_gamma    60.000000759790744

_space_group_name_H-M_alt    "P 1"
_space_group_IT_number       1

loop_
  _space_group_symop_operation_xyz
  'x, y, z'

loop_
  _atom_site_type_symbol
  _atom_site_label
  _atom_site_symmetry_multiplicity
  _atom_site_fract_x
  _atom_site_fract_y
  _atom_site_fract_z
  _atom_site_occupancy
  Se  Se1       1.0  0.24999992373682894  0.2500004506869589  0.24999974536325195  1.0000
  Se  Se2       1.0  0.7499996734555201  0.7500003839018358  0.74999989530695  1.0000
  P   P1        1.0  2.7211849552091427e-08  1.3446654321483444e-08  0.9999999540527404  1.0000
  O   O1        1.0  0.21989552652553557  0.2198952044541476  0.7801046378574211  1.0000
  O   O2        1.0  0.7801046869604018  0.7801044468291749  0.21989543636705142  1.0000
  O   O3        1.0  0.7801045823063454  0.21989524610768102  0.21989551332409182  1.0000
  O   O4        1.0  0.2198955743646222  0.7801044298278363  0.7801047105613765  1.0000
  O   O5        1.0  0.21989548349475396  0.7801044834910007  0.21989543697738126  1.0000
  O   O6        1.0  0.7801045705796752  0.21989529105330485  0.7801047211972305  1.0000
