data_image0
_chemical_formula_structural       Se2PdS6
_chemical_formula_sum              "Se2 Pd1 S6"
_cell_length_a       6.339301639341488
_cell_length_b       6.339301380871343
_cell_length_c       6.339301219194148
_cell_angle_alpha    60.0000013971398
_cell_angle_beta     60.00000256402709
_cell_angle_gamma    60.0000023297199

_space_group_name_H-M_alt    "P 1"
_space_group_IT_number       1

loop_
  _space_group_symop_operation_xyz
  'x, y, z'

loop_
  _atom_site_type_symbol
  _atom_site_label
  _atom_site_symmetry_multiplicity
  _atom_site_fract_x
  _atom_site_fract_y
  _atom_site_fract_z
  _atom_site_occupancy
  Se  Se1       1.0  0.2500002310237194  0.2499998233222512  0.24999998725810546  1.0000
  Se  Se2       1.0  0.7500000260628255  0.7500000611547926  0.7499996889246604  1.0000
  Pd  Pd1       1.0  0.9999999782335972  2.7047819249131743e-08  4.152819788067865e-08  1.0000
  S   S1        1.0  0.26358324919375486  0.26358317144659715  0.7364167948046745  1.0000
  S   S2        1.0  0.7364167358996891  0.7364168076978113  0.2635834211947853  1.0000
  S   S3        1.0  0.73641668089827  0.2635831088790738  0.26358332078879393  1.0000
  S   S4        1.0  0.2635832498628487  0.7364168857212288  0.7364165944243126  1.0000
  S   S5        1.0  0.2635831990734001  0.736416819662907  0.26358328425476846  1.0000
  S   S6        1.0  0.7364166565075908  0.263583296652583  0.7364168585070964  1.0000
