data_image0
_chemical_formula_structural       Se2PtO6
_chemical_formula_sum              "Se2 Pt1 O6"
_cell_length_a       5.393048911386939
_cell_length_b       5.393048871144002
_cell_length_c       5.393049066058855
_cell_angle_alpha    59.999998725637575
_cell_angle_beta     59.99999986030965
_cell_angle_gamma    59.99999953188352

_space_group_name_H-M_alt    "P 1"
_space_group_IT_number       1

loop_
  _space_group_symop_operation_xyz
  'x, y, z'

loop_
  _atom_site_type_symbol
  _atom_site_label
  _atom_site_symmetry_multiplicity
  _atom_site_fract_x
  _atom_site_fract_y
  _atom_site_fract_z
  _atom_site_occupancy
  Se  Se1       1.0  0.24999954696086588  0.2500002315593247  0.24999999288658276  1.0000
  Se  Se2       1.0  0.7499997990533671  0.7499998793999687  0.7499997756913169  1.0000
  Pt  Pt1       1.0  8.036697280071521e-08  0.9999999772903062  2.1235804443099832e-08  1.0000
  O   O1        1.0  0.24829553025063542  0.2482954174016181  0.7517045338376476  1.0000
  O   O2        1.0  0.7517045889385459  0.7517044937123694  0.24829566381155305  1.0000
  O   O3        1.0  0.7517046995863691  0.24829546788832013  0.2482955194656065  1.0000
  O   O4        1.0  0.24829556807275763  0.751704479561178  0.7517045857808672  1.0000
  O   O5        1.0  0.24829554139776583  0.7517044701950044  0.24829543456427655  1.0000
  O   O6        1.0  0.7517046386695581  0.24829557944811653  0.7517044835201375  1.0000
