data_image0
_chemical_formula_structural       Se2PS6
_chemical_formula_sum              "Se2 P1 S6"
_cell_length_a       6.413517613924164
_cell_length_b       6.4135174847586995
_cell_length_c       6.41351764098959
_cell_angle_alpha    59.99999743787293
_cell_angle_beta     59.999999479496765
_cell_angle_gamma    59.99999590672244

_space_group_name_H-M_alt    "P 1"
_space_group_IT_number       1

loop_
  _space_group_symop_operation_xyz
  'x, y, z'

loop_
  _atom_site_type_symbol
  _atom_site_label
  _atom_site_symmetry_multiplicity
  _atom_site_fract_x
  _atom_site_fract_y
  _atom_site_fract_z
  _atom_site_occupancy
  Se  Se1       1.0  0.2500002337302437  0.250000084772975  0.24999998008024837  1.0000
  Se  Se2       1.0  0.7500002952264393  0.7500001110966426  0.7500001493473519  1.0000
  P   P1        1.0  7.87097538589044e-08  0.9999999637170149  6.610219386649937e-08  1.0000
  S   S1        1.0  0.2415039727595096  0.24150405287073637  0.7584959846890006  1.0000
  S   S2        1.0  0.7584958945206834  0.7584959081143484  0.2415039272378335  1.0000
  S   S3        1.0  0.7584958229743172  0.24150404744359266  0.24150404461068958  1.0000
  S   S4        1.0  0.24150396186733514  0.7584959880170878  0.7584958541463421  1.0000
  S   S5        1.0  0.24150396832587476  0.7584959421869997  0.24150401918924264  1.0000
  S   S6        1.0  0.7584957455569838  0.2415039118587769  0.7584959683336784  1.0000
