data_image0
_chemical_formula_structural       Se2RhS6
_chemical_formula_sum              "Se2 Rh1 S6"
_cell_length_a       6.2261756208350185
_cell_length_b       6.226175851870862
_cell_length_c       6.226175545393345
_cell_angle_alpha    60.00000028041621
_cell_angle_beta     59.999999453481635
_cell_angle_gamma    60.00000145394355

_space_group_name_H-M_alt    "P 1"
_space_group_IT_number       1

loop_
  _space_group_symop_operation_xyz
  'x, y, z'

loop_
  _atom_site_type_symbol
  _atom_site_label
  _atom_site_symmetry_multiplicity
  _atom_site_fract_x
  _atom_site_fract_y
  _atom_site_fract_z
  _atom_site_occupancy
  Se  Se1       1.0  0.2499999205753911  0.2500000655475894  0.24999999574432918  1.0000
  Se  Se2       1.0  0.7500000986671354  0.749999903546353  0.7500000231311211  1.0000
  Rh  Rh1       1.0  2.5215370180778427e-08  0.9999999744278297  0.9999999825110537  1.0000
  S   S1        1.0  0.2609024994048502  0.26090254427794024  0.7390974647360651  1.0000
  S   S2        1.0  0.7390974644988615  0.7390974739932534  0.26090252991608615  1.0000
  S   S3        1.0  0.7390974476019757  0.2609025277587514  0.2609025448560407  1.0000
  S   S4        1.0  0.2609024895499737  0.739097531821333  0.7390974441236685  1.0000
  S   S5        1.0  0.2609025704062158  0.7390974587327953  0.2609025036703071  1.0000
  S   S6        1.0  0.7390974718402904  0.26090253593331786  0.7390975037660467  1.0000
