data_image0
_chemical_formula_structural       Se2ReS6
_chemical_formula_sum              "Se2 Re1 S6"
_cell_length_a       6.306113528649851
_cell_length_b       6.306113611080804
_cell_length_c       6.306113803364609
_cell_angle_alpha    59.99999941323552
_cell_angle_beta     59.99999963384547
_cell_angle_gamma    59.999999371113994

_space_group_name_H-M_alt    "P 1"
_space_group_IT_number       1

loop_
  _space_group_symop_operation_xyz
  'x, y, z'

loop_
  _atom_site_type_symbol
  _atom_site_label
  _atom_site_symmetry_multiplicity
  _atom_site_fract_x
  _atom_site_fract_y
  _atom_site_fract_z
  _atom_site_occupancy
  Se  Se1       1.0  0.24999983834530565  0.2499999674398521  0.2500000489242496  1.0000
  Se  Se2       1.0  0.7499998417458728  0.7499998615343038  0.7500000085676878  1.0000
  Re  Re1       1.0  1.4851739890002023e-08  2.1363702723440484e-08  5.483736270761276e-08  1.0000
  S   S1        1.0  0.2591788817829706  0.25917894478620696  0.7408211097286208  1.0000
  S   S2        1.0  0.7408211389589887  0.7408211366680707  0.25917889857684884  1.0000
  S   S3        1.0  0.7408211257652945  0.2591789205697826  0.2591788820098332  1.0000
  S   S4        1.0  0.2591790205818608  0.7408211356364819  0.7408210459875547  1.0000
  S   S5        1.0  0.2591789306226428  0.7408211042148078  0.259178939297598  1.0000
  S   S6        1.0  0.7408212099361626  0.2591789034375869  0.7408210444146278  1.0000
