data_image0
_chemical_formula_structural       Se2RuS6
_chemical_formula_sum              "Se2 Ru1 S6"
_cell_length_a       6.198460354168939
_cell_length_b       6.198460182506409
_cell_length_c       6.19846028939181
_cell_angle_alpha    59.999999340776085
_cell_angle_beta     60.00000046696931
_cell_angle_gamma    60.00000110710191

_space_group_name_H-M_alt    "P 1"
_space_group_IT_number       1

loop_
  _space_group_symop_operation_xyz
  'x, y, z'

loop_
  _atom_site_type_symbol
  _atom_site_label
  _atom_site_symmetry_multiplicity
  _atom_site_fract_x
  _atom_site_fract_y
  _atom_site_fract_z
  _atom_site_occupancy
  Se  Se1       1.0  0.24999979242448575  0.2500000596200439  0.2500000942544362  1.0000
  Se  Se2       1.0  0.7499999989921797  0.7499998785255197  0.7500000785120494  1.0000
  Ru  Ru1       1.0  0.9999999020582303  0.9999999585063986  5.197134292241482e-08  1.0000
  S   S1        1.0  0.26358863114161707  0.2635885510746501  0.7364114526138679  1.0000
  S   S2        1.0  0.7364116207461109  0.7364113692879519  0.26358850364847924  1.0000
  S   S3        1.0  0.7364114102090903  0.26358860067758855  0.26358851688489376  1.0000
  S   S4        1.0  0.2635885515176046  0.7364114915870626  0.73641133394995  1.0000
  S   S5        1.0  0.26358855573257456  0.7364115219179951  0.26358860052347366  1.0000
  S   S6        1.0  0.7364115359632945  0.26358856046723017  0.736411356436795  1.0000
