data_image0
_chemical_formula_structural       Se2ReO6
_chemical_formula_sum              "Se2 Re1 O6"
_cell_length_a       5.55923966817512
_cell_length_b       5.559239540646863
_cell_length_c       5.55923952273356
_cell_angle_alpha    59.99999923494441
_cell_angle_beta     59.999999126395196
_cell_angle_gamma    59.99999960276632

_space_group_name_H-M_alt    "P 1"
_space_group_IT_number       1

loop_
  _space_group_symop_operation_xyz
  'x, y, z'

loop_
  _atom_site_type_symbol
  _atom_site_label
  _atom_site_symmetry_multiplicity
  _atom_site_fract_x
  _atom_site_fract_y
  _atom_site_fract_z
  _atom_site_occupancy
  Se  Se1       1.0  0.25000180986740117  0.25000067619961575  0.24999919969102766  1.0000
  Se  Se2       1.0  0.7500004491918416  0.7500010614467508  0.7499997076281274  1.0000
  Re  Re1       1.0  0.9999997543643363  0.9999996651318559  2.488793440646729e-07  1.0000
  O   O1        1.0  0.24473536911588867  0.2447352849446468  0.7552645435316275  1.0000
  O   O2        1.0  0.7552642089800351  0.7552648620780302  0.2447352332208193  1.0000
  O   O3        1.0  0.7552641134876084  0.24473507724730484  0.2447357301971998  1.0000
  O   O4        1.0  0.24473501013774265  0.7552643581805656  0.7552647734925219  1.0000
  O   O5        1.0  0.24473523059957342  0.7552639853467383  0.2447354960872866  1.0000
  O   O6        1.0  0.7552640554020885  0.2447350314959548  0.7552650565593528  1.0000
