data_image0
_chemical_formula_structural       Se2RhO6
_chemical_formula_sum              "Se2 Rh1 O6"
_cell_length_a       5.4840600652832965
_cell_length_b       6.275822391536736
_cell_length_c       5.48415603786471
_cell_angle_alpha    64.11620419365057
_cell_angle_beta     60.02266079071615
_cell_angle_gamma    64.17791702757007

_space_group_name_H-M_alt    "P 1"
_space_group_IT_number       1

loop_
  _space_group_symop_operation_xyz
  'x, y, z'

loop_
  _atom_site_type_symbol
  _atom_site_label
  _atom_site_symmetry_multiplicity
  _atom_site_fract_x
  _atom_site_fract_y
  _atom_site_fract_z
  _atom_site_occupancy
  Se  Se1       1.0  0.1700495385781598  0.48892301981591607  0.17051050844556928  1.0000
  Se  Se2       1.0  0.6662030642222451  0.0013492509967714117  0.6661949072016352  1.0000
  Rh  Rh1       1.0  0.012625077519993753  0.9621646410167428  0.012614852666764716  1.0000
  O   O1        1.0  0.29580912333914733  0.16392822415426822  0.8274868184555777  1.0000
  O   O2        1.0  0.8148711813301597  0.6851089143272368  0.17262177089248593  1.0000
  O   O3        1.0  0.7131509868814586  0.16384684119116621  0.2954569525346003  1.0000
  O   O4        1.0  0.3269054346501743  0.685404544300432  0.8150198465020368  1.0000
  O   O5        1.0  0.1723752105600276  0.6854244058610801  0.3272432778430894  1.0000
  O   O6        1.0  0.8278890637658579  0.16393611509744055  0.7129137349816733  1.0000
