data_image0
_chemical_formula_structural       Se2RhS6
_chemical_formula_sum              "Se2 Rh1 S6"
_cell_length_a       6.226627574691703
_cell_length_b       6.226627541661825
_cell_length_c       6.226627760803398
_cell_angle_alpha    59.99999803647805
_cell_angle_beta     59.99999913317907
_cell_angle_gamma    59.99999878207359

_space_group_name_H-M_alt    "P 1"
_space_group_IT_number       1

loop_
  _space_group_symop_operation_xyz
  'x, y, z'

loop_
  _atom_site_type_symbol
  _atom_site_label
  _atom_site_symmetry_multiplicity
  _atom_site_fract_x
  _atom_site_fract_y
  _atom_site_fract_z
  _atom_site_occupancy
  Se  Se1       1.0  0.24999971193997408  0.25000002731783  0.25000014026879175  1.0000
  Se  Se2       1.0  0.7500001297889184  0.7500001153915964  0.7499998862247499  1.0000
  Rh  Rh1       1.0  0.9999999638461063  8.06448443490185e-08  0.9999999665124839  1.0000
  S   S1        1.0  0.26088528536516803  0.2608853593837784  0.7391146568888728  1.0000
  S   S2        1.0  0.7391148632521735  0.7391145413911155  0.2608853066136028  1.0000
  S   S3        1.0  0.7391147730038639  0.26088519051470427  0.2608854407244316  1.0000
  S   S4        1.0  0.26088522581392504  0.7391147535330325  0.7391146226155653  1.0000
  S   S5        1.0  0.2608853041057706  0.7391147561197006  0.2608853553153484  1.0000
  S   S6        1.0  0.7391147573328487  0.2608851780932996  0.7391146334514291  1.0000
