data_image0
_chemical_formula_structural       Se2RhO6
_chemical_formula_sum              "Se2 Rh1 O6"
_cell_length_a       5.4807730337437945
_cell_length_b       5.484672924532148
_cell_length_c       6.284879155903288
_cell_angle_alpha    64.13198785786624
_cell_angle_beta     63.898176949098925
_cell_angle_gamma    60.08258167174691

_space_group_name_H-M_alt    "P 1"
_space_group_IT_number       1

loop_
  _space_group_symop_operation_xyz
  'x, y, z'

loop_
  _atom_site_type_symbol
  _atom_site_label
  _atom_site_symmetry_multiplicity
  _atom_site_fract_x
  _atom_site_fract_y
  _atom_site_fract_z
  _atom_site_occupancy
  Se  Se1       1.0  0.3342614319458144  0.3335551310523819  0.998707401361638  1.0000
  Se  Se2       1.0  0.8278614638958991  0.8306357997299776  0.5111445189459299  1.0000
  Rh  Rh1       1.0  0.9875974013085673  0.987089726925539  0.03786885283158319  1.0000
  O   O1        1.0  0.2884241266918959  0.17152492067117864  0.8359943280617569  1.0000
  O   O2        1.0  0.6712412248812598  0.8281155701404413  0.3151164214721002  1.0000
  O   O3        1.0  0.8267616641520166  0.18560011110335087  0.314385477462831  1.0000
  O   O4        1.0  0.1738986491340944  0.7033798065288732  0.8363234323293204  1.0000
  O   O5        1.0  0.1839558494685019  0.6736460541678884  0.31459810066886906  1.0000
  O   O6        1.0  0.7059971699161478  0.286452903857728  0.8358617254991227  1.0000
