data_image0
_chemical_formula_structural       Se2RuO6
_chemical_formula_sum              "Se2 Ru1 O6"
_cell_length_a       5.60915337700588
_cell_length_b       5.609153134889601
_cell_length_c       5.609152938395835
_cell_angle_alpha    59.99999880619521
_cell_angle_beta     59.99999944437063
_cell_angle_gamma    59.9999983807007

_space_group_name_H-M_alt    "P 1"
_space_group_IT_number       1

loop_
  _space_group_symop_operation_xyz
  'x, y, z'

loop_
  _atom_site_type_symbol
  _atom_site_label
  _atom_site_symmetry_multiplicity
  _atom_site_fract_x
  _atom_site_fract_y
  _atom_site_fract_z
  _atom_site_occupancy
  Se  Se1       1.0  0.25000010129096795  0.2500012175033543  0.24999905937817066  1.0000
  Se  Se2       1.0  0.7500003062719708  0.7500007550379657  0.7499979713833385  1.0000
  Ru  Ru1       1.0  0.9999999960076734  0.9999999934495727  4.092738478293389e-08  1.0000
  O   O1        1.0  0.23484789657599311  0.2348477607270971  0.7651523651209456  1.0000
  O   O2        1.0  0.7651522313503136  0.7651517466702477  0.23484843233183025  1.0000
  O   O3        1.0  0.7651519583270451  0.23484723276801692  0.23484870149933282  1.0000
  O   O4        1.0  0.23484799491818825  0.765151754962137  0.7651525019600014  1.0000
  O   O5        1.0  0.23484757344171345  0.765151686386794  0.23484842961947486  1.0000
  O   O6        1.0  0.7651519319131471  0.23484786686354245  0.7651524672157018  1.0000
