data_image0
_chemical_formula_structural       Se2SnO6
_chemical_formula_sum              "Se2 Sn1 O6"
_cell_length_a       5.501499736741508
_cell_length_b       5.501499695675025
_cell_length_c       5.501499712347878
_cell_angle_alpha    59.99999945555719
_cell_angle_beta     59.99999979531321
_cell_angle_gamma    59.99999895268578

_space_group_name_H-M_alt    "P 1"
_space_group_IT_number       1

loop_
  _space_group_symop_operation_xyz
  'x, y, z'

loop_
  _atom_site_type_symbol
  _atom_site_label
  _atom_site_symmetry_multiplicity
  _atom_site_fract_x
  _atom_site_fract_y
  _atom_site_fract_z
  _atom_site_occupancy
  Se  Se1       1.0  0.2500002315198768  0.24999974649071785  0.24999997019796588  1.0000
  Se  Se2       1.0  0.7500002421170248  0.7500002190009716  0.7499999378805784  1.0000
  Sn  Sn1       1.0  5.5440349543748546e-08  0.9999999910951923  0.9999999512846225  1.0000
  O   O1        1.0  0.26280151939561924  0.26280156061073784  0.737198447083867  1.0000
  O   O2        1.0  0.7371983269479345  0.7371985740722978  0.26280148101176837  1.0000
  O   O3        1.0  0.7371984111061298  0.26280147802602233  0.2628016593234811  1.0000
  O   O4        1.0  0.2628013449673513  0.7371984741084618  0.7371984288113874  1.0000
  O   O5        1.0  0.2628015101336667  0.737198493677021  0.2628016143752006  1.0000
  O   O6        1.0  0.7371983440780503  0.2628014851718844  0.7371984985822756  1.0000
