data_image0
_chemical_formula_structural       Se2SbS6
_chemical_formula_sum              "Se2 Sb1 S6"
_cell_length_a       6.567715304165634
_cell_length_b       6.567715244054012
_cell_length_c       6.567715086737815
_cell_angle_alpha    60.00000536352321
_cell_angle_beta     60.000004688738024
_cell_angle_gamma    60.00000445022945

_space_group_name_H-M_alt    "P 1"
_space_group_IT_number       1

loop_
  _space_group_symop_operation_xyz
  'x, y, z'

loop_
  _atom_site_type_symbol
  _atom_site_label
  _atom_site_symmetry_multiplicity
  _atom_site_fract_x
  _atom_site_fract_y
  _atom_site_fract_z
  _atom_site_occupancy
  Se  Se1       1.0  0.2500000790871572  0.24999978399799325  0.2500001518877786  1.0000
  Se  Se2       1.0  0.7500000791589841  0.7500000214556638  0.7499997538620895  1.0000
  Sb  Sb1       1.0  6.69711050134105e-08  0.9999998993010267  3.513512700982354e-08  1.0000
  S   S1        1.0  0.2618390180573424  0.26183881391203423  0.7381610702168742  1.0000
  S   S2        1.0  0.7381607483474844  0.7381613178808923  0.26183898095638364  1.0000
  S   S3        1.0  0.7381611727367293  0.261838760602144  0.26183891869561693  1.0000
  S   S4        1.0  0.2618389127823799  0.7381612630326277  0.7381610087283875  1.0000
  S   S5        1.0  0.2618387051014709  0.7381612541418135  0.2618389214432025  1.0000
  S   S6        1.0  0.7381612110657468  0.26183886086795527  0.7381611363252204  1.0000
