data_image0
_chemical_formula_structural       Se2SbS6
_chemical_formula_sum              "Se2 Sb1 S6"
_cell_length_a       6.567124651049786
_cell_length_b       6.567124607467871
_cell_length_c       6.567123717220971
_cell_angle_alpha    59.99999975013455
_cell_angle_beta     60.00000203189135
_cell_angle_gamma    59.99999553793672

_space_group_name_H-M_alt    "P 1"
_space_group_IT_number       1

loop_
  _space_group_symop_operation_xyz
  'x, y, z'

loop_
  _atom_site_type_symbol
  _atom_site_label
  _atom_site_symmetry_multiplicity
  _atom_site_fract_x
  _atom_site_fract_y
  _atom_site_fract_z
  _atom_site_occupancy
  Se  Se1       1.0  0.24999971770317622  0.24999996421802226  0.25000025032682305  1.0000
  Se  Se2       1.0  0.7500001461098306  0.7499997621065649  0.7500001187528154  1.0000
  Sb  Sb1       1.0  0.9999999494692557  9.884307409820428e-08  8.091266172348089e-08  1.0000
  S   S1        1.0  0.2618626386821349  0.26186273159906925  0.7381373874215812  1.0000
  S   S2        1.0  0.7381376509725582  0.738137315499256  0.2618625230770719  1.0000
  S   S3        1.0  0.7381375315266501  0.26186254574567436  0.26186270920059845  1.0000
  S   S4        1.0  0.2618625869325445  0.7381375349220136  0.7381371056555663  1.0000
  S   S5        1.0  0.2618624577357665  0.738137417666603  0.26186264891630284  1.0000
  S   S6        1.0  0.7381373368937116  0.2618626480814016  0.7381371190859642  1.0000
