data_image0
_chemical_formula_structural       Se2SiO6
_chemical_formula_sum              "Se2 Si1 O6"
_cell_length_a       5.434854830859243
_cell_length_b       5.434854867991611
_cell_length_c       5.434854648749866
_cell_angle_alpha    59.9999979662503
_cell_angle_beta     59.99999923312878
_cell_angle_gamma    59.99999760349814

_space_group_name_H-M_alt    "P 1"
_space_group_IT_number       1

loop_
  _space_group_symop_operation_xyz
  'x, y, z'

loop_
  _atom_site_type_symbol
  _atom_site_label
  _atom_site_symmetry_multiplicity
  _atom_site_fract_x
  _atom_site_fract_y
  _atom_site_fract_z
  _atom_site_occupancy
  Se  Se1       1.0  0.24999997063881077  0.25000011464258626  0.2500000000067185  1.0000
  Se  Se2       1.0  0.7500000749417708  0.7499998166086145  0.7499997700125328  1.0000
  Si  Si1       1.0  1.223220470101269e-08  2.7042007455994348e-08  0.9999999895627711  1.0000
  O   O1        1.0  0.23056590995445175  0.23056597504665619  0.7694340393928182  1.0000
  O   O2        1.0  0.7694341408179565  0.7694340553585629  0.2305660225289472  1.0000
  O   O3        1.0  0.7694340131138578  0.2305658150891773  0.23056604864223235  1.0000
  O   O4        1.0  0.23056587586706995  0.769434120669018  0.7694340973393754  1.0000
  O   O5        1.0  0.23056591920089584  0.7694341486933247  0.2305659411166131  1.0000
  O   O6        1.0  0.7694340850433891  0.23056594480991346  0.7694341180401304  1.0000
