data_image0
_chemical_formula_structural       Se2SO6
_chemical_formula_sum              "Se2 S1 O6"
_cell_length_a       5.5017308499609
_cell_length_b       5.501730980413275
_cell_length_c       5.501731077679453
_cell_angle_alpha    60.000001261930116
_cell_angle_beta     60.00000141216911
_cell_angle_gamma    60.00000100076393

_space_group_name_H-M_alt    "P 1"
_space_group_IT_number       1

loop_
  _space_group_symop_operation_xyz
  'x, y, z'

loop_
  _atom_site_type_symbol
  _atom_site_label
  _atom_site_symmetry_multiplicity
  _atom_site_fract_x
  _atom_site_fract_y
  _atom_site_fract_z
  _atom_site_occupancy
  Se  Se1       1.0  0.25000004556639105  0.24999989318214363  0.2500000395808455  1.0000
  Se  Se2       1.0  0.7499997596506206  0.7500001180897526  0.7500003042907092  1.0000
  S   S1        1.0  0.9999999982613004  1.7808865313880216e-08  0.999999951977503  1.0000
  O   O1        1.0  0.21345957890488315  0.21345954091740482  0.786540373454792  1.0000
  O   O2        1.0  0.7865405926482688  0.7865404102495647  0.2134594265150684  1.0000
  O   O3        1.0  0.7865404916302279  0.2134594583419267  0.21345954565033606  1.0000
  O   O4        1.0  0.21345956253956183  0.7865404483028796  0.7865404007062349  1.0000
  O   O5        1.0  0.21345963805924767  0.786540513563846  0.21345936989029501  1.0000
  O   O6        1.0  0.7865403693622688  0.21345953332577763  0.7865405151771266  1.0000
