data_image0
_chemical_formula_structural       Se2SbO6
_chemical_formula_sum              "Se2 Sb1 O6"
_cell_length_a       5.527803830776167
_cell_length_b       5.527803913769801
_cell_length_c       5.527803911452588
_cell_angle_alpha    60.00000113084868
_cell_angle_beta     60.00000112465558
_cell_angle_gamma    60.00000048036617

_space_group_name_H-M_alt    "P 1"
_space_group_IT_number       1

loop_
  _space_group_symop_operation_xyz
  'x, y, z'

loop_
  _atom_site_type_symbol
  _atom_site_label
  _atom_site_symmetry_multiplicity
  _atom_site_fract_x
  _atom_site_fract_y
  _atom_site_fract_z
  _atom_site_occupancy
  Se  Se1       1.0  0.25000006894551874  0.2500000435442777  0.24999987007807697  1.0000
  Se  Se2       1.0  0.7500000085436568  0.7499998669754402  0.7500000022136364  1.0000
  Sb  Sb1       1.0  0.9999999999999992  0.9999999999999997  0.9999999457289004  1.0000
  O   O1        1.0  0.2541504532162773  0.2541505215869275  0.7458495374679388  1.0000
  O   O2        1.0  0.7458494697561152  0.7458494952819938  0.2541505307660473  1.0000
  O   O3        1.0  0.7458495748413337  0.25415045945828285  0.2541504572019851  1.0000
  O   O4        1.0  0.2541504250400591  0.7458495773511135  0.7458495843157046  1.0000
  O   O5        1.0  0.25415048099256005  0.745849492134161  0.2541504461670631  1.0000
  O   O6        1.0  0.7458495200075075  0.25415052251915177  0.7458496239596974  1.0000
