data_image0
_chemical_formula_structural       Se2SnS6
_chemical_formula_sum              "Se2 Sn1 S6"
_cell_length_a       6.466532213810723
_cell_length_b       6.466533102264714
_cell_length_c       6.466532654271801
_cell_angle_alpha    60.00000604102615
_cell_angle_beta     59.99999907864096
_cell_angle_gamma    60.0000033261641

_space_group_name_H-M_alt    "P 1"
_space_group_IT_number       1

loop_
  _space_group_symop_operation_xyz
  'x, y, z'

loop_
  _atom_site_type_symbol
  _atom_site_label
  _atom_site_symmetry_multiplicity
  _atom_site_fract_x
  _atom_site_fract_y
  _atom_site_fract_z
  _atom_site_occupancy
  Se  Se1       1.0  0.25000000172586906  0.2500001352527381  0.24999985031477978  1.0000
  Se  Se2       1.0  0.7499998600567637  0.7500001500716946  0.7500000900148244  1.0000
  Sn  Sn1       1.0  0.9999999524000155  3.030359167717854e-08  4.421594418437741e-08  1.0000
  S   S1        1.0  0.2730920244448707  0.27309206816630965  0.7269078599103375  1.0000
  S   S2        1.0  0.7269079748922415  0.7269079330619616  0.2730919279122262  1.0000
  S   S3        1.0  0.7269079089118451  0.27309206548741616  0.2730920227895836  1.0000
  S   S4        1.0  0.2730922804322769  0.7269075853556122  0.726908196260291  1.0000
  S   S5        1.0  0.2730921827674894  0.72690789222056  0.27309201016847984  1.0000
  S   S6        1.0  0.726907824956316  0.273092137417335  0.7269079989516152  1.0000
