data_image0
_chemical_formula_structural       Se2SbO6
_chemical_formula_sum              "Se2 Sb1 O6"
_cell_length_a       5.52595170922804
_cell_length_b       5.525951479624774
_cell_length_c       5.525951569554873
_cell_angle_alpha    60.000000088214705
_cell_angle_beta     60.00000059230125
_cell_angle_gamma    59.999998487136935

_space_group_name_H-M_alt    "P 1"
_space_group_IT_number       1

loop_
  _space_group_symop_operation_xyz
  'x, y, z'

loop_
  _atom_site_type_symbol
  _atom_site_label
  _atom_site_symmetry_multiplicity
  _atom_site_fract_x
  _atom_site_fract_y
  _atom_site_fract_z
  _atom_site_occupancy
  Se  Se1       1.0  0.2500001971025332  0.2500001669016113  0.2499998431915281  1.0000
  Se  Se2       1.0  0.7500001857017323  0.7500000374874508  0.7499998626461954  1.0000
  Sb  Sb1       1.0  0.9999999700068756  2.2163512438319264e-09  0.9999999867437406  1.0000
  O   O1        1.0  0.25418675171134386  0.25418678723351673  0.7458132222951593  1.0000
  O   O2        1.0  0.745813214253056  0.7458132509292152  0.25418677145637597  1.0000
  O   O3        1.0  0.7458131126681359  0.25418677321462535  0.25418685124233187  1.0000
  O   O4        1.0  0.2541867589929318  0.7458130965054218  0.7458133209329314  1.0000
  O   O5        1.0  0.2541866380810996  0.7458131368875606  0.2541868864078744  1.0000
  O   O6        1.0  0.7458131746910203  0.25418675277964714  0.7458132762839935  1.0000
