data_image0
_chemical_formula_structural       Se2SiS6
_chemical_formula_sum              "Se2 Si1 S6"
_cell_length_a       6.31039893218523
_cell_length_b       6.3103981221711845
_cell_length_c       6.310398731081744
_cell_angle_alpha    59.99999346705346
_cell_angle_beta     60.000000669856334
_cell_angle_gamma    59.999995752670216

_space_group_name_H-M_alt    "P 1"
_space_group_IT_number       1

loop_
  _space_group_symop_operation_xyz
  'x, y, z'

loop_
  _atom_site_type_symbol
  _atom_site_label
  _atom_site_symmetry_multiplicity
  _atom_site_fract_x
  _atom_site_fract_y
  _atom_site_fract_z
  _atom_site_occupancy
  Se  Se1       1.0  0.2500002270432641  0.2500003125894854  0.2499999076752821  1.0000
  Se  Se2       1.0  0.7500001840963514  0.749999942119439  0.7500000985505973  1.0000
  Si  Si1       1.0  0.999999952646219  0.9999999883549842  0.9999999597732185  1.0000
  S   S1        1.0  0.2554526074115336  0.2554526490005394  0.7445472392403066  1.0000
  S   S2        1.0  0.7445474960618288  0.7445472990562668  0.2554524783028622  1.0000
  S   S3        1.0  0.7445471138397806  0.25545261315972584  0.2554529293910498  1.0000
  S   S4        1.0  0.25545252333894464  0.744547350423755  0.7445473019489385  1.0000
  S   S5        1.0  0.2554526591970701  0.7445472284972391  0.25545272877163994  1.0000
  S   S6        1.0  0.7445472432732944  0.2554526089318867  0.7445473807050732  1.0000
