data_image0
_chemical_formula_structural       Se2TaS6
_chemical_formula_sum              "Se2 Ta1 S6"
_cell_length_a       6.3430659765475275
_cell_length_b       6.343066039595194
_cell_length_c       6.3430660375584695
_cell_angle_alpha    60.00000134588812
_cell_angle_beta     60.00000052614715
_cell_angle_gamma    60.000003247029646

_space_group_name_H-M_alt    "P 1"
_space_group_IT_number       1

loop_
  _space_group_symop_operation_xyz
  'x, y, z'

loop_
  _atom_site_type_symbol
  _atom_site_label
  _atom_site_symmetry_multiplicity
  _atom_site_fract_x
  _atom_site_fract_y
  _atom_site_fract_z
  _atom_site_occupancy
  Se  Se1       1.0  0.2500000426739817  0.24999997097360427  0.24999993600226658  1.0000
  Se  Se2       1.0  0.7499999132856461  0.7499999727768616  0.7499999548140088  1.0000
  Ta  Ta1       1.0  0.999999976113767  1.158504213329595e-08  1.7186267979922624e-08  1.0000
  S   S1        1.0  0.2667815547228012  0.26678138276347274  0.7332185565310898  1.0000
  S   S2        1.0  0.7332184910996652  0.7332185262318698  0.266781491184713  1.0000
  S   S3        1.0  0.7332184838615456  0.266781496520609  0.26678151704130343  1.0000
  S   S4        1.0  0.26678150460678923  0.7332185244634778  0.7332185191224403  1.0000
  S   S5        1.0  0.26678157819910925  0.7332185266145902  0.26678139980125876  1.0000
  S   S6        1.0  0.7332184455542939  0.2667815851189986  0.7332186190644161  1.0000
