data_image0
_chemical_formula_structural       Se2TeS6
_chemical_formula_sum              "Se2 Te1 S6"
_cell_length_a       6.706892145420251
_cell_length_b       6.706892260241522
_cell_length_c       6.706892117017165
_cell_angle_alpha    60.0000022858949
_cell_angle_beta     59.99999311329849
_cell_angle_gamma    59.99999884733992

_space_group_name_H-M_alt    "P 1"
_space_group_IT_number       1

loop_
  _space_group_symop_operation_xyz
  'x, y, z'

loop_
  _atom_site_type_symbol
  _atom_site_label
  _atom_site_symmetry_multiplicity
  _atom_site_fract_x
  _atom_site_fract_y
  _atom_site_fract_z
  _atom_site_occupancy
  Se  Se1       1.0  0.25000021036248704  0.2500000377741656  0.24999993295719194  1.0000
  Se  Se2       1.0  0.7499999050531196  0.7499999361909201  0.7500002772926353  1.0000
  Te  Te1       1.0  3.75811922853475e-08  0.9999999853912068  0.9999999512387093  1.0000
  S   S1        1.0  0.24872654378135622  0.24872647111109503  0.7512735051239936  1.0000
  S   S2        1.0  0.7512734204919491  0.7512735740718347  0.2487264289953173  1.0000
  S   S3        1.0  0.7512735230317819  0.2487266197887874  0.24872650339048064  1.0000
  S   S4        1.0  0.24872655302724708  0.7512734619161175  0.7512733565749753  1.0000
  S   S5        1.0  0.24872645623961054  0.751273368356088  0.24872654907117958  1.0000
  S   S6        1.0  0.7512733647030961  0.24872654899992314  0.7512735131718781  1.0000
