data_image0
_chemical_formula_structural       Se2TiS6
_chemical_formula_sum              "Se2 Ti1 S6"
_cell_length_a       6.322157052337476
_cell_length_b       6.322157052798952
_cell_length_c       6.32215721604294
_cell_angle_alpha    59.99999921332889
_cell_angle_beta     59.999998551498855
_cell_angle_gamma    60.000002058929475

_space_group_name_H-M_alt    "P 1"
_space_group_IT_number       1

loop_
  _space_group_symop_operation_xyz
  'x, y, z'

loop_
  _atom_site_type_symbol
  _atom_site_label
  _atom_site_symmetry_multiplicity
  _atom_site_fract_x
  _atom_site_fract_y
  _atom_site_fract_z
  _atom_site_occupancy
  Se  Se1       1.0  0.24999989170326306  0.24999996294567095  0.25000019537319607  1.0000
  Se  Se2       1.0  0.7499997586255851  0.7500000108822694  0.7500003125112945  1.0000
  Ti  Ti1       1.0  0.9999999463686503  3.487007145194183e-08  1.327562489020067e-07  1.0000
  S   S1        1.0  0.26253741692741495  0.2625373503087525  0.737462505245527  1.0000
  S   S2        1.0  0.7374626506387935  0.7374627087571545  0.26253720411974846  1.0000
  S   S3        1.0  0.7374627641314025  0.262537338907947  0.26253726054775783  1.0000
  S   S4        1.0  0.262537535800386  0.7374625709915452  0.7374625464109292  1.0000
  S   S5        1.0  0.26253747634487434  0.7374626044360174  0.2625372772072687  1.0000
  S   S6        1.0  0.7374625554681857  0.26253741394813723  0.7374625684432493  1.0000
