data_image0
_chemical_formula_structural       Se2TaO6
_chemical_formula_sum              "Se2 Ta1 O6"
_cell_length_a       5.387013367933633
_cell_length_b       5.387013355301443
_cell_length_c       5.387013525686877
_cell_angle_alpha    59.99999867267504
_cell_angle_beta     60.000000203145724
_cell_angle_gamma    60.000000617814536

_space_group_name_H-M_alt    "P 1"
_space_group_IT_number       1

loop_
  _space_group_symop_operation_xyz
  'x, y, z'

loop_
  _atom_site_type_symbol
  _atom_site_label
  _atom_site_symmetry_multiplicity
  _atom_site_fract_x
  _atom_site_fract_y
  _atom_site_fract_z
  _atom_site_occupancy
  Se  Se1       1.0  0.2500000477884084  0.24999999194965464  0.25000004440094686  1.0000
  Se  Se2       1.0  0.749999961904166  0.7500000122251816  0.7500001055041895  1.0000
  Ta  Ta1       1.0  0.9999999967309083  0.9999999840854037  2.6298688991335643e-08  1.0000
  O   O1        1.0  0.255494034665797  0.2554940251000439  0.744505941080407  1.0000
  O   O2        1.0  0.744505965955028  0.7445059677072254  0.2554939870048734  1.0000
  O   O3        1.0  0.7445059467936785  0.2554940954778838  0.2554939929760902  1.0000
  O   O4        1.0  0.2554940249215915  0.7445059518937145  0.744505940842964  1.0000
  O   O5        1.0  0.2554940575067147  0.7445059397025409  0.2554940064251181  1.0000
  O   O6        1.0  0.7445059601543089  0.2554940212755361  0.7445059661809816  1.0000
