data_image0
_chemical_formula_structural       Se2TaO6
_chemical_formula_sum              "Se2 Ta1 O6"
_cell_length_a       5.387105263163581
_cell_length_b       5.387105152182799
_cell_length_c       5.387105219734635
_cell_angle_alpha    60.000000337343465
_cell_angle_beta     60.0000009795722
_cell_angle_gamma    60.0000000060573

_space_group_name_H-M_alt    "P 1"
_space_group_IT_number       1

loop_
  _space_group_symop_operation_xyz
  'x, y, z'

loop_
  _atom_site_type_symbol
  _atom_site_label
  _atom_site_symmetry_multiplicity
  _atom_site_fract_x
  _atom_site_fract_y
  _atom_site_fract_z
  _atom_site_occupancy
  Se  Se1       1.0  0.2500000829970758  0.250000126966906  0.24999995906804368  1.0000
  Se  Se2       1.0  0.7500001666821451  0.7499999011974986  0.7499999874321034  1.0000
  Ta  Ta1       1.0  0.9999999952153142  0.9999999886326253  2.8495159789883878e-08  1.0000
  O   O1        1.0  0.2554927554113076  0.25549294998651845  0.7445071279037639  1.0000
  O   O2        1.0  0.7445071626605482  0.744507082724835  0.25549281691726733  1.0000
  O   O3        1.0  0.7445070868956387  0.25549284860988986  0.2554928940764507  1.0000
  O   O4        1.0  0.25549281630207077  0.744507177281039  0.744507111711548  1.0000
  O   O5        1.0  0.2554928640164355  0.7445070107385741  0.25549288561480343  1.0000
  O   O6        1.0  0.7445070683686906  0.25549290829903154  0.7445071942755537  1.0000
