data_image0
_chemical_formula_structural       Se2TeO6
_chemical_formula_sum              "Se2 Te1 O6"
_cell_length_a       5.547093434521649
_cell_length_b       5.54709346273122
_cell_length_c       5.547093249168987
_cell_angle_alpha    59.9999997266541
_cell_angle_beta     60.000000375855215
_cell_angle_gamma    60.000000183282474

_space_group_name_H-M_alt    "P 1"
_space_group_IT_number       1

loop_
  _space_group_symop_operation_xyz
  'x, y, z'

loop_
  _atom_site_type_symbol
  _atom_site_label
  _atom_site_symmetry_multiplicity
  _atom_site_fract_x
  _atom_site_fract_y
  _atom_site_fract_z
  _atom_site_occupancy
  Se  Se1       1.0  0.24999928762462398  0.2499997107062231  0.25000063451859544  1.0000
  Se  Se2       1.0  0.7500001922630357  0.7499990570499628  0.7499995433173021  1.0000
  Te  Te1       1.0  2.544133874479873e-08  4.857388322296312e-08  0.9999999936390698  1.0000
  O   O1        1.0  0.24627708789021296  0.24627745128038642  0.7537227894237037  1.0000
  O   O2        1.0  0.7537228839941319  0.7537228068108506  0.24627745726093592  1.0000
  O   O3        1.0  0.7537229318647846  0.24627733679984515  0.24627717074077804  1.0000
  O   O4        1.0  0.24627736979755188  0.7537230935078926  0.7537225743649218  1.0000
  O   O5        1.0  0.24627713763613632  0.7537228956726919  0.24627729610030813  1.0000
  O   O6        1.0  0.7537230699522939  0.24627759204054317  0.7537225610823867  1.0000
