data_image0
_chemical_formula_structural       Se2VS6
_chemical_formula_sum              "Se2 V1 S6"
_cell_length_a       6.288069318357466
_cell_length_b       6.288069429727739
_cell_length_c       6.288069258717874
_cell_angle_alpha    60.000000325264686
_cell_angle_beta     59.999999910768004
_cell_angle_gamma    59.99999847125303

_space_group_name_H-M_alt    "P 1"
_space_group_IT_number       1

loop_
  _space_group_symop_operation_xyz
  'x, y, z'

loop_
  _atom_site_type_symbol
  _atom_site_label
  _atom_site_symmetry_multiplicity
  _atom_site_fract_x
  _atom_site_fract_y
  _atom_site_fract_z
  _atom_site_occupancy
  Se  Se1       1.0  0.249999957682594  0.2500000921019824  0.24999999880809612  1.0000
  Se  Se2       1.0  0.7500001371142682  0.7499999744081051  0.7500000535074853  1.0000
  V   V1        1.0  0.9999999931193401  0.999999943515889  2.5321132656926214e-08  1.0000
  S   S1        1.0  0.2526769409601661  0.25267702545060583  0.7473229451583784  1.0000
  S   S2        1.0  0.7473229628386832  0.7473230741708627  0.25267690620538363  1.0000
  S   S3        1.0  0.747323035344109  0.25267699226806417  0.2526769946778543  1.0000
  S   S4        1.0  0.2526769063144891  0.7473230158101878  0.7473230759555478  1.0000
  S   S5        1.0  0.25267697913678727  0.7473229851663186  0.2526770113788607  1.0000
  S   S6        1.0  0.7473230606655696  0.252676915786893  0.7473229905907717  1.0000
