data_image0
_chemical_formula_structural       Se2WO6
_chemical_formula_sum              "Se2 W1 O6"
_cell_length_a       5.423684529488258
_cell_length_b       5.423684371897901
_cell_length_c       5.423684430517206
_cell_angle_alpha    59.99999876626427
_cell_angle_beta     59.999997985720036
_cell_angle_gamma    59.99999821826567

_space_group_name_H-M_alt    "P 1"
_space_group_IT_number       1

loop_
  _space_group_symop_operation_xyz
  'x, y, z'

loop_
  _atom_site_type_symbol
  _atom_site_label
  _atom_site_symmetry_multiplicity
  _atom_site_fract_x
  _atom_site_fract_y
  _atom_site_fract_z
  _atom_site_occupancy
  Se  Se1       1.0  0.2500000695419886  0.24999987066908821  0.2500000407608384  1.0000
  Se  Se2       1.0  0.7500000033566321  0.7499998445958808  0.750000165779594  1.0000
  W   W1        1.0  1.0408851189746783e-08  0.9999999751604391  0.9999999721838182  1.0000
  O   O1        1.0  0.24858263201384873  0.24858275790017204  0.751417362915124  1.0000
  O   O2        1.0  0.751417305868524  0.7514174135094606  0.248582589029081  1.0000
  O   O3        1.0  0.7514173536210113  0.24858277173039456  0.2485825498367506  1.0000
  O   O4        1.0  0.24858266858368433  0.7514173319349808  0.7514172500047435  1.0000
  O   O5        1.0  0.24858263190799987  0.751417270985504  0.24858275065392263  1.0000
  O   O6        1.0  0.7514173297180999  0.24858277171004042  0.751417270369349  1.0000
