data_image0
_chemical_formula_structural       Se2WS6
_chemical_formula_sum              "Se2 W1 S6"
_cell_length_a       6.3040695579578685
_cell_length_b       6.3040697119213585
_cell_length_c       6.304069799915341
_cell_angle_alpha    59.99999974721071
_cell_angle_beta     59.999999372188974
_cell_angle_gamma    59.99999905338503

_space_group_name_H-M_alt    "P 1"
_space_group_IT_number       1

loop_
  _space_group_symop_operation_xyz
  'x, y, z'

loop_
  _atom_site_type_symbol
  _atom_site_label
  _atom_site_symmetry_multiplicity
  _atom_site_fract_x
  _atom_site_fract_y
  _atom_site_fract_z
  _atom_site_occupancy
  Se  Se1       1.0  0.25000002971264523  0.24999982054106698  0.2500000384166449  1.0000
  Se  Se2       1.0  0.7499998800029276  0.7500000230879162  0.7500001453010718  1.0000
  W   W1        1.0  0.9999999822388003  0.9999999708582331  7.588714651086917e-09  1.0000
  S   S1        1.0  0.2576339402664159  0.2576339162343749  0.742366051211673  1.0000
  S   S2        1.0  0.7423660306307952  0.7423661449864686  0.25763382814650265  1.0000
  S   S3        1.0  0.7423660892377102  0.25763398780758034  0.25763391174379124  1.0000
  S   S4        1.0  0.25763394983778226  0.7423661161545206  0.7423660311253794  1.0000
  S   S5        1.0  0.2576339778321093  0.7423661161819711  0.2576339222951984  1.0000
  S   S6        1.0  0.7423661108478403  0.25763391589710377  0.7423660602662401  1.0000
