data_image0
_chemical_formula_structural       Se2YS6
_chemical_formula_sum              "Se2 Y1 S6"
_cell_length_a       6.717485593206158
_cell_length_b       6.717485205539501
_cell_length_c       6.717485496549894
_cell_angle_alpha    59.99999808720866
_cell_angle_beta     59.99999735711227
_cell_angle_gamma    59.999997322515966

_space_group_name_H-M_alt    "P 1"
_space_group_IT_number       1

loop_
  _space_group_symop_operation_xyz
  'x, y, z'

loop_
  _atom_site_type_symbol
  _atom_site_label
  _atom_site_symmetry_multiplicity
  _atom_site_fract_x
  _atom_site_fract_y
  _atom_site_fract_z
  _atom_site_occupancy
  Se  Se1       1.0  0.24999998640761406  0.2500000808411474  0.2499998958212757  1.0000
  Se  Se2       1.0  0.7500000374485088  0.749999956278004  0.7499999314070248  1.0000
  Y   Y1        1.0  4.267876687353572e-08  0.9999999854142447  0.9999999427825775  1.0000
  S   S1        1.0  0.2799212487117664  0.27992110629467803  0.7200787796698785  1.0000
  S   S2        1.0  0.7200788664095902  0.7200786518719131  0.2799213438587922  1.0000
  S   S3        1.0  0.7200788416939456  0.27992127283012946  0.27992119926447  1.0000
  S   S4        1.0  0.27992113854495954  0.7200788281017008  0.7200787979930251  1.0000
  S   S5        1.0  0.2799212422448296  0.7200787286773811  0.27992123518487605  1.0000
  S   S6        1.0  0.7200786023878667  0.2799213923098629  0.7200788719508489  1.0000
