data_image0
_chemical_formula_structural       Se2YO6
_chemical_formula_sum              "Se2 Y1 O6"
_cell_length_a       5.596239726562543
_cell_length_b       5.596239617107987
_cell_length_c       5.596239688135809
_cell_angle_alpha    59.99999569471955
_cell_angle_beta     59.999997370181944
_cell_angle_gamma    59.999997681000224

_space_group_name_H-M_alt    "P 1"
_space_group_IT_number       1

loop_
  _space_group_symop_operation_xyz
  'x, y, z'

loop_
  _atom_site_type_symbol
  _atom_site_label
  _atom_site_symmetry_multiplicity
  _atom_site_fract_x
  _atom_site_fract_y
  _atom_site_fract_z
  _atom_site_occupancy
  Se  Se1       1.0  0.24999990296734886  0.24999999027871622  0.24999991661409174  1.0000
  Se  Se2       1.0  0.7499998370979039  0.7500001371632073  0.7500000046364979  1.0000
  Y   Y1        1.0  1.713262264988749e-08  0.9999999671722888  6.060630713475417e-09  1.0000
  O   O1        1.0  0.27992513754038584  0.27992494521507055  0.7200750787102012  1.0000
  O   O2        1.0  0.7200749976905942  0.7200750180882904  0.27992497183404347  1.0000
  O   O3        1.0  0.7200750608315206  0.27992496863478694  0.2799250635736304  1.0000
  O   O4        1.0  0.2799250202946353  0.720074946521263  0.7200750559658261  1.0000
  O   O5        1.0  0.27992502043849515  0.7200749655334836  0.27992497825864043  1.0000
  O   O6        1.0  0.7200749904693123  0.2799250612367903  0.7200749508260303  1.0000
