data_image0
_chemical_formula_structural       Se2ZrO6
_chemical_formula_sum              "Se2 Zr1 O6"
_cell_length_a       5.503711002470405
_cell_length_b       5.50371096057203
_cell_length_c       5.5037110469839226
_cell_angle_alpha    60.000000180897516
_cell_angle_beta     59.99999965381755
_cell_angle_gamma    59.99999910311285

_space_group_name_H-M_alt    "P 1"
_space_group_IT_number       1

loop_
  _space_group_symop_operation_xyz
  'x, y, z'

loop_
  _atom_site_type_symbol
  _atom_site_label
  _atom_site_symmetry_multiplicity
  _atom_site_fract_x
  _atom_site_fract_y
  _atom_site_fract_z
  _atom_site_occupancy
  Se  Se1       1.0  0.24999995809128384  0.24999960935294221  0.2500001405057658  1.0000
  Se  Se2       1.0  0.7500000166236165  0.7500000185982854  0.7499998259339697  1.0000
  Zr  Zr1       1.0  0.9999999674276653  0.9999999844228485  2.4074743043616055e-08  1.0000
  O   O1        1.0  0.26862665637183614  0.26862657115232375  0.7313734280209648  1.0000
  O   O2        1.0  0.7313732762038272  0.7313735797461466  0.2686266777585437  1.0000
  O   O3        1.0  0.7313735109436267  0.26862662066332177  0.26862662068479987  1.0000
  O   O4        1.0  0.26862663603574893  0.7313734723771531  0.7313732850858079  1.0000
  O   O5        1.0  0.26862656521582806  0.731373490819235  0.26862665937779  1.0000
  O   O6        1.0  0.7313734180945967  0.26862664005146747  0.7313733474682528  1.0000
