data_image0
_chemical_formula_structural       Se2ZrS6
_chemical_formula_sum              "Se2 Zr1 S6"
_cell_length_a       6.493745949070904
_cell_length_b       6.493745411783387
_cell_length_c       6.493745543329459
_cell_angle_alpha    60.00000014899495
_cell_angle_beta     60.00000162812338
_cell_angle_gamma    59.99999975634927

_space_group_name_H-M_alt    "P 1"
_space_group_IT_number       1

loop_
  _space_group_symop_operation_xyz
  'x, y, z'

loop_
  _atom_site_type_symbol
  _atom_site_label
  _atom_site_symmetry_multiplicity
  _atom_site_fract_x
  _atom_site_fract_y
  _atom_site_fract_z
  _atom_site_occupancy
  Se  Se1       1.0  0.24999989748505613  0.24999995652121088  0.2500001288970758  1.0000
  Se  Se2       1.0  0.7500002083194438  0.7500000770277868  0.750000034266672  1.0000
  Zr  Zr1       1.0  0.9999999760578481  0.9999999811396217  0.9999999490239295  1.0000
  S   S1        1.0  0.27072668482827106  0.27072666614669727  0.729273377136057  1.0000
  S   S2        1.0  0.7292733329304844  0.729273322137393  0.27072674180709844  1.0000
  S   S3        1.0  0.729273353254701  0.2707267167239832  0.27072658369079866  1.0000
  S   S4        1.0  0.2707265032264354  0.7292734299872711  0.7292732271489806  1.0000
  S   S5        1.0  0.27072663395034163  0.7292733532997276  0.270726683312203  1.0000
  S   S6        1.0  0.7292734107707725  0.27072649541756905  0.729273273261219  1.0000
