data_image0
_chemical_formula_structural       Sn2AsN6
_chemical_formula_sum              "Sn2 As1 N6"
_cell_length_a       5.2150585748689515
_cell_length_b       5.215058423416478
_cell_length_c       5.215058773049374
_cell_angle_alpha    59.999998270969364
_cell_angle_beta     59.99999937764567
_cell_angle_gamma    59.99999920908509

_space_group_name_H-M_alt    "P 1"
_space_group_IT_number       1

loop_
  _space_group_symop_operation_xyz
  'x, y, z'

loop_
  _atom_site_type_symbol
  _atom_site_label
  _atom_site_symmetry_multiplicity
  _atom_site_fract_x
  _atom_site_fract_y
  _atom_site_fract_z
  _atom_site_occupancy
  Sn  Sn1       1.0  0.250000023101561  0.2500000006719049  0.2500000062424947  1.0000
  Sn  Sn2       1.0  0.7500000047139779  0.7499999832278916  0.7500000086436016  1.0000
  As  As1       1.0  1.628198833416013e-08  0.9999999976515225  6.014658223107314e-08  1.0000
  N   N1        1.0  0.2603690835782692  0.2603691447812934  0.7396308644358826  1.0000
  N   N2        1.0  0.7396308508393618  0.7396308602548024  0.26036913672539547  1.0000
  N   N3        1.0  0.7396309106284298  0.26036915229847263  0.26036908729138014  1.0000
  N   N4        1.0  0.2603691377631168  0.7396308362982794  0.7396308516799449  1.0000
  N   N5        1.0  0.26036908123082353  0.7396309169892039  0.26036912295106784  1.0000
  N   N6        1.0  0.7396308609689778  0.26036914441035947  0.7396308806528225  1.0000
