data_image0
_chemical_formula_structural       Sn2AsSe6
_chemical_formula_sum              "Sn2 As1 Se6"
_cell_length_a       6.5704451728155195
_cell_length_b       6.570445249410201
_cell_length_c       6.570445353956511
_cell_angle_alpha    60.00000068164609
_cell_angle_beta     60.00000206705897
_cell_angle_gamma    60.00000140372195

_space_group_name_H-M_alt    "P 1"
_space_group_IT_number       1

loop_
  _space_group_symop_operation_xyz
  'x, y, z'

loop_
  _atom_site_type_symbol
  _atom_site_label
  _atom_site_symmetry_multiplicity
  _atom_site_fract_x
  _atom_site_fract_y
  _atom_site_fract_z
  _atom_site_occupancy
  Sn  Sn1       1.0  0.2499999958083515  0.24999998559285333  0.2499999111324933  1.0000
  Sn  Sn2       1.0  0.7499999279044278  0.7499999139060756  0.7500002929309608  1.0000
  As  As1       1.0  0.9999999763190416  1.304814754390553e-08  0.9999999870528029  1.0000
  Se  Se1       1.0  0.2826373586363102  0.2826373878904743  0.7173626639954466  1.0000
  Se  Se2       1.0  0.7173626266011742  0.7173626644581849  0.28263721371756645  1.0000
  Se  Se3       1.0  0.7173626360900055  0.28263748874397376  0.28263733673205704  1.0000
  Se  Se4       1.0  0.28263744387131295  0.7173625114120953  0.7173626095113796  1.0000
  Se  Se5       1.0  0.28263748011413636  0.717362616601818  0.2826373571481738  1.0000
  Se  Se6       1.0  0.7173625545442085  0.2826374245627153  0.7173626323356218  1.0000
