data_image0
_chemical_formula_structural       Sn2AsO6
_chemical_formula_sum              "Sn2 As1 O6"
_cell_length_a       5.290365541610526
_cell_length_b       5.290365907133957
_cell_length_c       5.290365669235286
_cell_angle_alpha    60.00000297134354
_cell_angle_beta     60.00000279938961
_cell_angle_gamma    60.000003103721916

_space_group_name_H-M_alt    "P 1"
_space_group_IT_number       1

loop_
  _space_group_symop_operation_xyz
  'x, y, z'

loop_
  _atom_site_type_symbol
  _atom_site_label
  _atom_site_symmetry_multiplicity
  _atom_site_fract_x
  _atom_site_fract_y
  _atom_site_fract_z
  _atom_site_occupancy
  Sn  Sn1       1.0  0.25000004892390953  0.24999979775497677  0.25000007593688195  1.0000
  Sn  Sn2       1.0  0.750000042919754  0.7500000322180336  0.7499999583698573  1.0000
  As  As1       1.0  0.9999999293608712  4.167085460286514e-08  2.9605963712450515e-08  1.0000
  O   O1        1.0  0.2461001163341946  0.24610025468859498  0.7538998618882736  1.0000
  O   O2        1.0  0.7538997167615339  0.7538998669803973  0.24610019185877965  1.0000
  O   O3        1.0  0.7538998020114122  0.24610017983784974  0.24610020135278443  1.0000
  O   O4        1.0  0.2461001933076836  0.7538998283938161  0.7538997372702835  1.0000
  O   O5        1.0  0.24610021138240062  0.7538998499055808  0.2461001459611632  1.0000
  O   O6        1.0  0.7538998417220223  0.24610014212075274  0.7538997945546508  1.0000
