data_image0
_chemical_formula_structural       Sn2BiS6
_chemical_formula_sum              "Sn2 Bi1 S6"
_cell_length_a       6.6540369446393965
_cell_length_b       6.654036987612444
_cell_length_c       6.654037116770054
_cell_angle_alpha    60.00000079849447
_cell_angle_beta     59.99999936414554
_cell_angle_gamma    60.0000000251663

_space_group_name_H-M_alt    "P 1"
_space_group_IT_number       1

loop_
  _space_group_symop_operation_xyz
  'x, y, z'

loop_
  _atom_site_type_symbol
  _atom_site_label
  _atom_site_symmetry_multiplicity
  _atom_site_fract_x
  _atom_site_fract_y
  _atom_site_fract_z
  _atom_site_occupancy
  Sn  Sn1       1.0  0.2499999724388414  0.24999994870972397  0.2500000773711309  1.0000
  Sn  Sn2       1.0  0.7499999805585896  0.7499999271157559  0.7500000427769998  1.0000
  Bi  Bi1       1.0  0.9999999913233081  7.357014342970914e-16  4.9423756820096235e-08  1.0000
  S   S1        1.0  0.2657273169577199  0.2657273102657788  0.734272717259496  1.0000
  S   S2        1.0  0.734272679456193  0.7342726851989761  0.26572735141769843  1.0000
  S   S3        1.0  0.7342726988837065  0.265727378267301  0.2657272376562207  1.0000
  S   S4        1.0  0.2657273439090966  0.7342727331555179  0.7342726160991113  1.0000
  S   S5        1.0  0.26572734164672773  0.734272674356149  0.26572725902724603  1.0000
  S   S6        1.0  0.734272680989732  0.26572734135525006  0.7342726421420375  1.0000
