data_image0
_chemical_formula_structural       Sn2BS6
_chemical_formula_sum              "Sn2 B1 S6"
_cell_length_a       6.279000246545211
_cell_length_b       6.279000015731848
_cell_length_c       6.279000133931727
_cell_angle_alpha    59.999997662701695
_cell_angle_beta     60.00000146767128
_cell_angle_gamma    60.00000140715545

_space_group_name_H-M_alt    "P 1"
_space_group_IT_number       1

loop_
  _space_group_symop_operation_xyz
  'x, y, z'

loop_
  _atom_site_type_symbol
  _atom_site_label
  _atom_site_symmetry_multiplicity
  _atom_site_fract_x
  _atom_site_fract_y
  _atom_site_fract_z
  _atom_site_occupancy
  Sn  Sn1       1.0  0.2500000430621664  0.2499999183254258  0.2500000070537082  1.0000
  Sn  Sn2       1.0  0.7500000337756737  0.7500001294802059  0.7499999644303008  1.0000
  B   B1        1.0  0.9999999367285376  1.6774654977804786e-07  2.1022525421902115e-08  1.0000
  S   S1        1.0  0.22958809336750188  0.2295882267111459  0.7704118999884696  1.0000
  S   S2        1.0  0.7704117390539291  0.770411715765244  0.2295883514806414  1.0000
  S   S3        1.0  0.7704119188083726  0.22958811434262535  0.22958806362382758  1.0000
  S   S4        1.0  0.22958814716450823  0.7704118281337796  0.7704117461770607  1.0000
  S   S5        1.0  0.22958814762536087  0.7704118014218436  0.22958823842880555  1.0000
  S   S6        1.0  0.7704118839453802  0.2295881449556401  0.7704117092536026  1.0000
