data_image0
_chemical_formula_structural       Sn2BiO6
_chemical_formula_sum              "Sn2 Bi1 O6"
_cell_length_a       5.701999183928951
_cell_length_b       5.701999223669461
_cell_length_c       5.701999275495474
_cell_angle_alpha    59.999999900991696
_cell_angle_beta     60.00000017990033
_cell_angle_gamma    59.99999954499183

_space_group_name_H-M_alt    "P 1"
_space_group_IT_number       1

loop_
  _space_group_symop_operation_xyz
  'x, y, z'

loop_
  _atom_site_type_symbol
  _atom_site_label
  _atom_site_symmetry_multiplicity
  _atom_site_fract_x
  _atom_site_fract_y
  _atom_site_fract_z
  _atom_site_occupancy
  Sn  Sn1       1.0  0.24999997502996887  0.24999989628395453  0.2500000612012914  1.0000
  Sn  Sn2       1.0  0.7499999602671626  0.7500000389631255  0.7500000804019283  1.0000
  Bi  Bi1       1.0  0.9999999909380217  1.5035453045957378e-08  0.999999972460471  1.0000
  O   O1        1.0  0.2506430904435769  0.25064312134953887  0.7493568773309603  1.0000
  O   O2        1.0  0.7493569184302601  0.749356884778962  0.25064307278678033  1.0000
  O   O3        1.0  0.7493569332509575  0.2506430581939811  0.2506430574142713  1.0000
  O   O4        1.0  0.25064303904859525  0.7493569543782856  0.7493569182913533  1.0000
  O   O5        1.0  0.25064313735719546  0.7493569889450707  0.25064302314085424  1.0000
  O   O6        1.0  0.7493569602516437  0.2506430365147262  0.7493569202955502  1.0000
