data_image0
_chemical_formula_structural       Sn2BiTe6
_chemical_formula_sum              "Sn2 Bi1 Te6"
_cell_length_a       7.565352793925066
_cell_length_b       7.565352772416613
_cell_length_c       7.565352922215267
_cell_angle_alpha    59.999999318440345
_cell_angle_beta     59.99999941502763
_cell_angle_gamma    60.000001366529894

_space_group_name_H-M_alt    "P 1"
_space_group_IT_number       1

loop_
  _space_group_symop_operation_xyz
  'x, y, z'

loop_
  _atom_site_type_symbol
  _atom_site_label
  _atom_site_symmetry_multiplicity
  _atom_site_fract_x
  _atom_site_fract_y
  _atom_site_fract_z
  _atom_site_occupancy
  Sn  Sn1       1.0  0.24999988456199837  0.25000006544473063  0.25000008423635556  1.0000
  Sn  Sn2       1.0  0.7500000335683745  0.7500000182566668  0.7499999456034371  1.0000
  Bi  Bi1       1.0  3.0684866207554862e-09  0.9999999724789268  0.9999999474573387  1.0000
  Te  Te1       1.0  0.2819207362883511  0.2819208070278697  0.7180791975395519  1.0000
  Te  Te2       1.0  0.7180792963463646  0.7180792216313836  0.2819207378001868  1.0000
  Te  Te3       1.0  0.7180791911035611  0.2819207951843916  0.28192080677206494  1.0000
  Te  Te4       1.0  0.28192067519339487  0.7180793387024913  0.7180792463625553  1.0000
  Te  Te5       1.0  0.28192079210324805  0.718079134814514  0.28192081265610897  1.0000
  Te  Te6       1.0  0.7180793851333936  0.281920647773969  0.7180792223252218  1.0000
