data_image0
_chemical_formula_structural       Sn2BO6
_chemical_formula_sum              "Sn2 B1 O6"
_cell_length_a       5.0644773551611335
_cell_length_b       5.064477557354571
_cell_length_c       5.064477543142176
_cell_angle_alpha    60.00000165551261
_cell_angle_beta     60.00000164278705
_cell_angle_gamma    60.000000412089214

_space_group_name_H-M_alt    "P 1"
_space_group_IT_number       1

loop_
  _space_group_symop_operation_xyz
  'x, y, z'

loop_
  _atom_site_type_symbol
  _atom_site_label
  _atom_site_symmetry_multiplicity
  _atom_site_fract_x
  _atom_site_fract_y
  _atom_site_fract_z
  _atom_site_occupancy
  Sn  Sn1       1.0  0.25000005747673026  0.24999996585133133  0.24999987398061527  1.0000
  Sn  Sn2       1.0  0.750000009258035  0.7500000450705679  0.7499998390705926  1.0000
  B   B1        1.0  2.888134507117435e-08  0.9999999201959523  0.9999998655238267  1.0000
  O   O1        1.0  0.2251746011813261  0.22517472286257154  0.7748254179599094  1.0000
  O   O2        1.0  0.7748253258965362  0.774825358190161  0.22517469711827579  1.0000
  O   O3        1.0  0.7748253455245455  0.22517469079987812  0.225174710586099  1.0000
  O   O4        1.0  0.2251746301485585  0.7748253128671118  0.7748253951928887  1.0000
  O   O5        1.0  0.22517463386200662  0.7748253429486112  0.22517470331722172  1.0000
  O   O6        1.0  0.7748254008144713  0.22517467522820442  0.7748253736033169  1.0000
