data_image0
_chemical_formula_structural       Sn2BTe6
_chemical_formula_sum              "Sn2 B1 Te6"
_cell_length_a       7.104147397359316
_cell_length_b       7.104146823038517
_cell_length_c       7.104147366420915
_cell_angle_alpha    60.0000001061765
_cell_angle_beta     60.00000139693302
_cell_angle_gamma    60.000001575611556

_space_group_name_H-M_alt    "P 1"
_space_group_IT_number       1

loop_
  _space_group_symop_operation_xyz
  'x, y, z'

loop_
  _atom_site_type_symbol
  _atom_site_label
  _atom_site_symmetry_multiplicity
  _atom_site_fract_x
  _atom_site_fract_y
  _atom_site_fract_z
  _atom_site_occupancy
  Sn  Sn1       1.0  0.25000000105902026  0.25000001367845887  0.24999996433688854  1.0000
  Sn  Sn2       1.0  0.7499998682020836  0.7500001582664131  0.7499999680411744  1.0000
  B   B1        1.0  0.9999999677710868  1.3791886227384675e-08  1.9071912635971476e-08  1.0000
  Te  Te1       1.0  0.23397106174376775  0.2339707706671664  0.7660290672457594  1.0000
  Te  Te2       1.0  0.7660290763518013  0.7660291116480894  0.23397093746552822  1.0000
  Te  Te3       1.0  0.7660290858203482  0.23397079533563028  0.23397096623224173  1.0000
  Te  Te4       1.0  0.23397098688218  0.7660290783596938  0.7660290571863612  1.0000
  Te  Te5       1.0  0.23397091297635458  0.7660291287646372  0.23397091684017976  1.0000
  Te  Te6       1.0  0.7660290520701083  0.23397090698535528  0.7660290892325233  1.0000
