data_image0
_chemical_formula_structural       Sn2BSe6
_chemical_formula_sum              "Sn2 B1 Se6"
_cell_length_a       6.509452702489336
_cell_length_b       6.509452145478039
_cell_length_c       6.50945203501699
_cell_angle_alpha    60.000000573880556
_cell_angle_beta     60.000001704866754
_cell_angle_gamma    59.99999972306737

_space_group_name_H-M_alt    "P 1"
_space_group_IT_number       1

loop_
  _space_group_symop_operation_xyz
  'x, y, z'

loop_
  _atom_site_type_symbol
  _atom_site_label
  _atom_site_symmetry_multiplicity
  _atom_site_fract_x
  _atom_site_fract_y
  _atom_site_fract_z
  _atom_site_occupancy
  Sn  Sn1       1.0  0.2500001063231409  0.25000001247685  0.24999995164494285  1.0000
  Sn  Sn2       1.0  0.7500000127855658  0.7500000938751543  0.749999999775418  1.0000
  B   B1        1.0  1.087079348220799e-07  3.5748251825918455e-08  9.191969094242431e-09  1.0000
  Se  Se1       1.0  0.2355107053901953  0.2355105422365999  0.7644893801165243  1.0000
  Se  Se2       1.0  0.7644893139907676  0.7644893364554916  0.23551063207041553  1.0000
  Se  Se3       1.0  0.7644892990677704  0.23551063046309545  0.2355105868047595  1.0000
  Se  Se4       1.0  0.23551058666012278  0.7644894043924053  0.7644893695764114  1.0000
  Se  Se5       1.0  0.23551061224745634  0.7644893971819402  0.2355105782298543  1.0000
  Se  Se6       1.0  0.7644892643435988  0.2355105586511121  0.7644894713902439  1.0000
