data_image0
_chemical_formula_structural       Sn2GaN6
_chemical_formula_sum              "Sn2 Ga1 N6"
_cell_length_a       5.254287657111499
_cell_length_b       5.254287723456239
_cell_length_c       5.254287648347832
_cell_angle_alpha    60.00000084225577
_cell_angle_beta     60.000001340071904
_cell_angle_gamma    60.00000090047623

_space_group_name_H-M_alt    "P 1"
_space_group_IT_number       1

loop_
  _space_group_symop_operation_xyz
  'x, y, z'

loop_
  _atom_site_type_symbol
  _atom_site_label
  _atom_site_symmetry_multiplicity
  _atom_site_fract_x
  _atom_site_fract_y
  _atom_site_fract_z
  _atom_site_occupancy
  Sn  Sn1       1.0  0.24999992570502025  0.2499999017445888  0.25000010763845804  1.0000
  Sn  Sn2       1.0  0.7500000639537683  0.7500001830772147  0.7499998834780734  1.0000
  Ga  Ga1       1.0  2.666181835505446e-10  0.999999986014338  3.921405042955672e-08  1.0000
  N   N1        1.0  0.26985512217675517  0.26985502160639363  0.7301448499587472  1.0000
  N   N2        1.0  0.7301447436642986  0.7301447951568903  0.2698551658072287  1.0000
  N   N3        1.0  0.7301449757254559  0.26985493109934855  0.26985541651275513  1.0000
  N   N4        1.0  0.2698549039640289  0.7301450814632018  0.7301445991057889  1.0000
  N   N5        1.0  0.2698551197069119  0.730145128389454  0.26985532643339133  1.0000
  N   N6        1.0  0.7301451375300844  0.2698549844036733  0.730144634907246  1.0000
