data_image0
_chemical_formula_structural       Sn2GaTe6
_chemical_formula_sum              "Sn2 Ga1 Te6"
_cell_length_a       7.253584288292858
_cell_length_b       7.253584246759305
_cell_length_c       7.2535843665367326
_cell_angle_alpha    59.99999816297054
_cell_angle_beta     60.000001034861725
_cell_angle_gamma    59.99999826716517

_space_group_name_H-M_alt    "P 1"
_space_group_IT_number       1

loop_
  _space_group_symop_operation_xyz
  'x, y, z'

loop_
  _atom_site_type_symbol
  _atom_site_label
  _atom_site_symmetry_multiplicity
  _atom_site_fract_x
  _atom_site_fract_y
  _atom_site_fract_z
  _atom_site_occupancy
  Sn  Sn1       1.0  0.24999963235666234  0.2500001942920629  0.25000009330883116  1.0000
  Sn  Sn2       1.0  0.7500001509052723  0.7499999733390208  0.7499999894859153  1.0000
  Ga  Ga1       1.0  7.449947323294868e-08  0.9999999054457581  6.655116508673641e-08  1.0000
  Te  Te1       1.0  0.26851909041768857  0.2685193175874773  0.7314807856506051  1.0000
  Te  Te2       1.0  0.7314810209254563  0.7314805917079139  0.2685191464665729  1.0000
  Te  Te3       1.0  0.731481064628875  0.26851912840159015  0.2685191589472483  1.0000
  Te  Te4       1.0  0.2685189757848682  0.7314808551864165  0.7314808983221669  1.0000
  Te  Te5       1.0  0.2685189348509975  0.7314808677723773  0.2685192978918702  1.0000
  Te  Te6       1.0  0.7314810568399883  0.26851916646969065  0.7314805750542676  1.0000
