data_image0
_chemical_formula_structural       Sn2IrSe6
_chemical_formula_sum              "Sn2 Ir1 Se6"
_cell_length_a       6.687967140056169
_cell_length_b       6.687967239817875
_cell_length_c       6.687967235388279
_cell_angle_alpha    59.999999292829905
_cell_angle_beta     59.99999940863273
_cell_angle_gamma    59.999999191727824

_space_group_name_H-M_alt    "P 1"
_space_group_IT_number       1

loop_
  _space_group_symop_operation_xyz
  'x, y, z'

loop_
  _atom_site_type_symbol
  _atom_site_label
  _atom_site_symmetry_multiplicity
  _atom_site_fract_x
  _atom_site_fract_y
  _atom_site_fract_z
  _atom_site_occupancy
  Sn  Sn1       1.0  0.2500000046840757  0.24999999883990642  0.2500000089406406  1.0000
  Sn  Sn2       1.0  0.7500000927248014  0.7499998848124759  0.750000071748487  1.0000
  Ir  Ir1       1.0  0.9999999805024311  0.9999999963374676  5.5991601042769224e-09  1.0000
  Se  Se1       1.0  0.25956514142887993  0.25956523331617737  0.7404348071660639  1.0000
  Se  Se2       1.0  0.7404348012172072  0.7404347986687746  0.2595651645964756  1.0000
  Se  Se3       1.0  0.7404347932676416  0.25956525205216435  0.25956513326223324  1.0000
  Se  Se4       1.0  0.259565162161371  0.7404348037392491  0.7404348142247219  1.0000
  Se  Se5       1.0  0.2595651839347969  0.7404348074958872  0.25956518640194093  1.0000
  Se  Se6       1.0  0.740434844026631  0.2595652171639987  0.7404348136504797  1.0000
