data_image0
_chemical_formula_structural       Sn2IrO6
_chemical_formula_sum              "Sn2 Ir1 O6"
_cell_length_a       5.567056736053118
_cell_length_b       5.567056661557921
_cell_length_c       5.567056742880833
_cell_angle_alpha    59.99999959301622
_cell_angle_beta     59.99999869394657
_cell_angle_gamma    59.999999273234025

_space_group_name_H-M_alt    "P 1"
_space_group_IT_number       1

loop_
  _space_group_symop_operation_xyz
  'x, y, z'

loop_
  _atom_site_type_symbol
  _atom_site_label
  _atom_site_symmetry_multiplicity
  _atom_site_fract_x
  _atom_site_fract_y
  _atom_site_fract_z
  _atom_site_occupancy
  Sn  Sn1       1.0  0.25000009288565633  0.2499998624754735  0.2500000467579918  1.0000
  Sn  Sn2       1.0  0.7500000445203258  0.7500000098238032  0.7499999742923555  1.0000
  Ir  Ir1       1.0  5.1333015702501256e-09  0.9999999846000954  3.3370201445260535e-09  1.0000
  O   O1        1.0  0.24106592789827944  0.2410659296585608  0.7589340595560686  1.0000
  O   O2        1.0  0.7589340560588126  0.7589340856398301  0.241065948756355  1.0000
  O   O3        1.0  0.7589340508825475  0.24106593650177424  0.24106591616071746  1.0000
  O   O4        1.0  0.2410658643322203  0.7589341667960711  0.7589340304309837  1.0000
  O   O5        1.0  0.2410659374896197  0.7589340604727094  0.24106595743740492  1.0000
  O   O6        1.0  0.7589340625791186  0.24106594382574956  0.7589340626894119  1.0000
