data_image0
_chemical_formula_structural       Sn2IrS6
_chemical_formula_sum              "Sn2 Ir1 S6"
_cell_length_a       6.368071188553552
_cell_length_b       6.3680714961298115
_cell_length_c       6.36807114857736
_cell_angle_alpha    59.999998713051774
_cell_angle_beta     59.99999961914586
_cell_angle_gamma    59.99999901780423

_space_group_name_H-M_alt    "P 1"
_space_group_IT_number       1

loop_
  _space_group_symop_operation_xyz
  'x, y, z'

loop_
  _atom_site_type_symbol
  _atom_site_label
  _atom_site_symmetry_multiplicity
  _atom_site_fract_x
  _atom_site_fract_y
  _atom_site_fract_z
  _atom_site_occupancy
  Sn  Sn1       1.0  0.2500000249553221  0.2499999949346473  0.249999966723671  1.0000
  Sn  Sn2       1.0  0.7500000009620418  0.7499999617248378  0.7499999706472071  1.0000
  Ir  Ir1       1.0  0.9999999882593331  1.3462811406316267e-08  0.9999999865762538  1.0000
  S   S1        1.0  0.25577761181799036  0.25577761103910546  0.7442223785389274  1.0000
  S   S2        1.0  0.7442224120283788  0.7442224225507253  0.255777584215642  1.0000
  S   S3        1.0  0.744222353722544  0.2557775958005134  0.2557776474672008  1.0000
  S   S4        1.0  0.2557776312219156  0.7442223858613317  0.7442224062420099  1.0000
  S   S5        1.0  0.2557775697774465  0.7442224211304498  0.2557776379464113  1.0000
  S   S6        1.0  0.7442224132248826  0.2557775989965683  0.7442224226266247  1.0000
