data_image0
_chemical_formula_structural       Sn2MoO6
_chemical_formula_sum              "Sn2 Mo1 O6"
_cell_length_a       5.574801766088134
_cell_length_b       5.574801302133481
_cell_length_c       5.574801557250186
_cell_angle_alpha    59.999998010702186
_cell_angle_beta     59.99999866373729
_cell_angle_gamma    59.99999605213381

_space_group_name_H-M_alt    "P 1"
_space_group_IT_number       1

loop_
  _space_group_symop_operation_xyz
  'x, y, z'

loop_
  _atom_site_type_symbol
  _atom_site_label
  _atom_site_symmetry_multiplicity
  _atom_site_fract_x
  _atom_site_fract_y
  _atom_site_fract_z
  _atom_site_occupancy
  Sn  Sn1       1.0  0.250000051207348  0.24999997213984665  0.24999995231428257  1.0000
  Sn  Sn2       1.0  0.7500000434848332  0.7500001163401866  0.7499997654126994  1.0000
  Mo  Mo1       1.0  3.3391856762853826e-08  0.9999999868184184  0.9999999755445752  1.0000
  O   O1        1.0  0.247196784555415  0.24719675517076276  0.7528032177552719  1.0000
  O   O2        1.0  0.7528031883294141  0.752803276189089  0.24719681186492143  1.0000
  O   O3        1.0  0.7528032753806112  0.247196724343144  0.24719680895460522  1.0000
  O   O4        1.0  0.24719673008123805  0.7528032279272212  0.7528032206026055  1.0000
  O   O5        1.0  0.24719664940926273  0.7528031861872445  0.24719690801142793  1.0000
  O   O6        1.0  0.7528032281139088  0.2471967770677739  0.7528032607431594  1.0000
