data_image0
_chemical_formula_structural       Sn2NO6
_chemical_formula_sum              "Sn2 N1 O6"
_cell_length_a       5.033314190725208
_cell_length_b       5.033314028550479
_cell_length_c       5.033314547114505
_cell_angle_alpha    60.00000232030492
_cell_angle_beta     60.0000015145121
_cell_angle_gamma    60.000001631765564

_space_group_name_H-M_alt    "P 1"
_space_group_IT_number       1

loop_
  _space_group_symop_operation_xyz
  'x, y, z'

loop_
  _atom_site_type_symbol
  _atom_site_label
  _atom_site_symmetry_multiplicity
  _atom_site_fract_x
  _atom_site_fract_y
  _atom_site_fract_z
  _atom_site_occupancy
  Sn  Sn1       1.0  0.2499999850071434  0.25000003762889317  0.25000007760862003  1.0000
  Sn  Sn2       1.0  0.7499999688140928  0.7499998306265098  0.7500001524892644  1.0000
  N   N1        1.0  2.3603537507501532e-07  2.1412839807139602e-07  0.9999997669710801  1.0000
  O   O1        1.0  0.23899409909738215  0.23899410403384572  0.7610057951278295  1.0000
  O   O2        1.0  0.7610056153485998  0.76100572528911  0.23899438538147094  1.0000
  O   O3        1.0  0.7610056948240893  0.23899436786616088  0.2389941342104403  1.0000
  O   O4        1.0  0.23899428914262394  0.7610056439525849  0.7610057269127831  1.0000
  O   O5        1.0  0.2389943729263106  0.7610057928575905  0.23899416554435832  1.0000
  O   O6        1.0  0.7610057536453138  0.23899427979309837  0.761005818364594  1.0000
