data_image0
_chemical_formula_structural       Sn2PS6
_chemical_formula_sum              "Sn2 P1 S6"
_cell_length_a       6.439890218491221
_cell_length_b       6.439890376482137
_cell_length_c       6.439890034518869
_cell_angle_alpha    60.00000204724338
_cell_angle_beta     60.00000085235748
_cell_angle_gamma    59.999998710725805

_space_group_name_H-M_alt    "P 1"
_space_group_IT_number       1

loop_
  _space_group_symop_operation_xyz
  'x, y, z'

loop_
  _atom_site_type_symbol
  _atom_site_label
  _atom_site_symmetry_multiplicity
  _atom_site_fract_x
  _atom_site_fract_y
  _atom_site_fract_z
  _atom_site_occupancy
  Sn  Sn1       1.0  0.2500000219034891  0.25000003414684513  0.24999997588019185  1.0000
  Sn  Sn2       1.0  0.7500000116675009  0.7499999902337414  0.7499999843674894  1.0000
  P   P1        1.0  5.5966642974429044e-09  0.9999999885891394  4.6386101413271364e-08  1.0000
  S   S1        1.0  0.23908888718423377  0.23908887064241297  0.7609111316125529  1.0000
  S   S2        1.0  0.7609111706938858  0.7609110700585289  0.23908891577578292  1.0000
  S   S3        1.0  0.760911177328647  0.2390888128306162  0.23908884253075904  1.0000
  S   S4        1.0  0.2390888889895217  0.7609111240667048  0.7609111342152145  1.0000
  S   S5        1.0  0.23908878238206402  0.7609111925314468  0.2390888206089519  1.0000
  S   S6        1.0  0.7609111095011397  0.23908889651068746  0.7609110896410207  1.0000
