data_image0
_chemical_formula_structural       Sn2PO6
_chemical_formula_sum              "Sn2 P1 O6"
_cell_length_a       5.2154395308158135
_cell_length_b       5.215439334003787
_cell_length_c       5.215439981512655
_cell_angle_alpha    60.000001614876304
_cell_angle_beta     60.00000084576469
_cell_angle_gamma    60.00000030112688

_space_group_name_H-M_alt    "P 1"
_space_group_IT_number       1

loop_
  _space_group_symop_operation_xyz
  'x, y, z'

loop_
  _atom_site_type_symbol
  _atom_site_label
  _atom_site_symmetry_multiplicity
  _atom_site_fract_x
  _atom_site_fract_y
  _atom_site_fract_z
  _atom_site_occupancy
  Sn  Sn1       1.0  0.24999999215115437  0.24999990576750564  0.25000007062261614  1.0000
  Sn  Sn2       1.0  0.7500000157874183  0.7499999380432991  0.7500000549871175  1.0000
  P   P1        1.0  5.859243896187544e-09  2.3483059131301084e-09  0.999999990144074  1.0000
  O   O1        1.0  0.23324510415914973  0.2332451562348912  0.7667548957158602  1.0000
  O   O2        1.0  0.7667549356885954  0.7667549106649996  0.23324502953417128  1.0000
  O   O3        1.0  0.7667548726263411  0.23324510025685224  0.23324501074244558  1.0000
  O   O4        1.0  0.23324508698004187  0.7667549948227098  0.7667548772647658  1.0000
  O   O5        1.0  0.2332451312156528  0.7667549418539151  0.23324499370949656  1.0000
  O   O6        1.0  0.7667549340605538  0.23324506868662484  0.7667549086583024  1.0000
