data_image0
_chemical_formula_structural       Sn2RuSe6
_chemical_formula_sum              "Sn2 Ru1 Se6"
_cell_length_a       6.671688214753705
_cell_length_b       6.671688479270764
_cell_length_c       6.671688537198689
_cell_angle_alpha    59.999999375048276
_cell_angle_beta     59.9999989054021
_cell_angle_gamma    60.00000011091151

_space_group_name_H-M_alt    "P 1"
_space_group_IT_number       1

loop_
  _space_group_symop_operation_xyz
  'x, y, z'

loop_
  _atom_site_type_symbol
  _atom_site_label
  _atom_site_symmetry_multiplicity
  _atom_site_fract_x
  _atom_site_fract_y
  _atom_site_fract_z
  _atom_site_occupancy
  Sn  Sn1       1.0  0.2499999978895327  0.2499999553559292  0.25000001490842383  1.0000
  Sn  Sn2       1.0  0.7499999858696866  0.749999972540388  0.7500000883184245  1.0000
  Ru  Ru1       1.0  1.2937116216236188e-08  0.9999999871498586  0.9999999774734487  1.0000
  Se  Se1       1.0  0.2586797662331035  0.2586797127408484  0.7413202747481  1.0000
  Se  Se2       1.0  0.7413202207235974  0.741320319792336  0.2586796846293179  1.0000
  Se  Se3       1.0  0.7413202918803867  0.2586797689232643  0.2586796990576093  1.0000
  Se  Se4       1.0  0.2586797024882146  0.7413202984888755  0.7413202781450247  1.0000
  Se  Se5       1.0  0.2586797515612057  0.7413202737201761  0.2586796957614597  1.0000
  Se  Se6       1.0  0.7413202690146028  0.25867972026258357  0.7413202810703262  1.0000
