data_image0
_chemical_formula_structural       Sn2RuS6
_chemical_formula_sum              "Sn2 Ru1 S6"
_cell_length_a       6.283374992237444
_cell_length_b       6.28337472614697
_cell_length_c       6.283375097809788
_cell_angle_alpha    59.99999941912052
_cell_angle_beta     60.00000008343974
_cell_angle_gamma    59.9999985636006

_space_group_name_H-M_alt    "P 1"
_space_group_IT_number       1

loop_
  _space_group_symop_operation_xyz
  'x, y, z'

loop_
  _atom_site_type_symbol
  _atom_site_label
  _atom_site_symmetry_multiplicity
  _atom_site_fract_x
  _atom_site_fract_y
  _atom_site_fract_z
  _atom_site_occupancy
  Sn  Sn1       1.0  0.24999999323648617  0.2500001129709895  0.2500000415932792  1.0000
  Sn  Sn2       1.0  0.7499999842067437  0.750000038738742  0.7500000259355949  1.0000
  Ru  Ru1       1.0  0.9999999741988734  0.999999939575321  2.0862904325321807e-07  1.0000
  S   S1        1.0  0.259224854517699  0.2592249723847815  0.7407750733384526  1.0000
  S   S2        1.0  0.7407751362004185  0.7407750292378363  0.25922490981240276  1.0000
  S   S3        1.0  0.7407750278147123  0.2592249335670386  0.2592248555098084  1.0000
  S   S4        1.0  0.25922492635307953  0.7407750894965939  0.7407750174246018  1.0000
  S   S5        1.0  0.2592249670227534  0.7407750188263288  0.25922485073119284  1.0000
  S   S6        1.0  0.7407751239539783  0.2592248970322235  0.7407750312738076  1.0000
