data_image0
_chemical_formula_structural       Sn2RhO6
_chemical_formula_sum              "Sn2 Rh1 O6"
_cell_length_a       5.463748739498386
_cell_length_b       5.463748755473645
_cell_length_c       5.463748646536322
_cell_angle_alpha    59.9999999893337
_cell_angle_beta     60.0000000180759
_cell_angle_gamma    59.99999945491991

_space_group_name_H-M_alt    "P 1"
_space_group_IT_number       1

loop_
  _space_group_symop_operation_xyz
  'x, y, z'

loop_
  _atom_site_type_symbol
  _atom_site_label
  _atom_site_symmetry_multiplicity
  _atom_site_fract_x
  _atom_site_fract_y
  _atom_site_fract_z
  _atom_site_occupancy
  Sn  Sn1       1.0  0.2500000077644568  0.24999989866730948  0.2500000310787134  1.0000
  Sn  Sn2       1.0  0.7499999332894269  0.749999908952356  0.7500000299326517  1.0000
  Rh  Rh1       1.0  0.9999999646694531  4.259008546224373e-08  2.56541546489019e-08  1.0000
  O   O1        1.0  0.2477914191375795  0.247791429624789  0.75220857763799  1.0000
  O   O2        1.0  0.7522086410934987  0.7522086671591391  0.24779136705441673  1.0000
  O   O3        1.0  0.7522085563887181  0.24779143212486343  0.24779142525008513  1.0000
  O   O4        1.0  0.2477913744570642  0.7522086153442299  0.7522085941504255  1.0000
  O   O5        1.0  0.2477914360883786  0.7522086226214908  0.2477913585594898  1.0000
  O   O6        1.0  0.752208655631071  0.24779141139810074  0.7522086090918806  1.0000
