data_image0
_chemical_formula_structural       Sn2SbN6
_chemical_formula_sum              "Sn2 Sb1 N6"
_cell_length_a       5.421024666573793
_cell_length_b       5.421024701329417
_cell_length_c       5.4210247029814616
_cell_angle_alpha    59.99999972092535
_cell_angle_beta     60.00000031864254
_cell_angle_gamma    60.00000031293467

_space_group_name_H-M_alt    "P 1"
_space_group_IT_number       1

loop_
  _space_group_symop_operation_xyz
  'x, y, z'

loop_
  _atom_site_type_symbol
  _atom_site_label
  _atom_site_symmetry_multiplicity
  _atom_site_fract_x
  _atom_site_fract_y
  _atom_site_fract_z
  _atom_site_occupancy
  Sn  Sn1       1.0  0.2500000276766709  0.24999995273643566  0.25000007459545154  1.0000
  Sn  Sn2       1.0  0.7499999686722008  0.7500000095790413  0.749999982075359  1.0000
  Sb  Sb1       1.0  0.9999999768057967  2.4851747183398027e-08  1.0239246097923314e-08  1.0000
  N   N1        1.0  0.2658629917967941  0.2658629674063155  0.7341369502971574  1.0000
  N   N2        1.0  0.7341369979035358  0.7341370084646608  0.2658629516572591  1.0000
  N   N3        1.0  0.7341370111936775  0.26586299952610803  0.2658629967128652  1.0000
  N   N4        1.0  0.265863003786561  0.734137028307612  0.7341370271064889  1.0000
  N   N5        1.0  0.26586302828163616  0.7341369855075128  0.2658629720209505  1.0000
  N   N6        1.0  0.7341369692928159  0.26586302425220937  0.7341370215768837  1.0000
