data_image0
_chemical_formula_structural       Sn2SbO6
_chemical_formula_sum              "Sn2 Sb1 O6"
_cell_length_a       5.527413423184914
_cell_length_b       5.5274128583190345
_cell_length_c       5.527413446379541
_cell_angle_alpha    59.999998205780045
_cell_angle_beta     59.99999659347617
_cell_angle_gamma    59.999995410499295

_space_group_name_H-M_alt    "P 1"
_space_group_IT_number       1

loop_
  _space_group_symop_operation_xyz
  'x, y, z'

loop_
  _atom_site_type_symbol
  _atom_site_label
  _atom_site_symmetry_multiplicity
  _atom_site_fract_x
  _atom_site_fract_y
  _atom_site_fract_z
  _atom_site_occupancy
  Sn  Sn1       1.0  0.2500000786863439  0.24999987973607457  0.2499999630222511  1.0000
  Sn  Sn2       1.0  0.7499998699403352  0.7500001421869399  0.7500000341181661  1.0000
  Sb  Sb1       1.0  0.9999999939645687  2.4373418718855065e-08  3.063262502746503e-08  1.0000
  O   O1        1.0  0.2531988225638453  0.25319865849782597  0.7468011811874432  1.0000
  O   O2        1.0  0.7468011523768341  0.7468013346202371  0.2531987140760739  1.0000
  O   O3        1.0  0.7468013679593811  0.25319869577600473  0.25319865078785564  1.0000
  O   O4        1.0  0.25319864975418604  0.7468012818317086  0.7468014678449364  1.0000
  O   O5        1.0  0.2531988073811996  0.7468013214777705  0.2531986422788454  1.0000
  O   O6        1.0  0.7468012464579745  0.2531986605614691  0.7468013420980176  1.0000
