data_image0
_chemical_formula_structural       Sn2SbSe6
_chemical_formula_sum              "Sn2 Sb1 Se6"
_cell_length_a       6.712906463935717
_cell_length_b       6.712906468130294
_cell_length_c       6.712906546608492
_cell_angle_alpha    59.99999936295638
_cell_angle_beta     60.00000006430589
_cell_angle_gamma    59.99999921828273

_space_group_name_H-M_alt    "P 1"
_space_group_IT_number       1

loop_
  _space_group_symop_operation_xyz
  'x, y, z'

loop_
  _atom_site_type_symbol
  _atom_site_label
  _atom_site_symmetry_multiplicity
  _atom_site_fract_x
  _atom_site_fract_y
  _atom_site_fract_z
  _atom_site_occupancy
  Sn  Sn1       1.0  0.24999999018266808  0.249999997700121  0.25000005663335223  1.0000
  Sn  Sn2       1.0  0.7500000284239328  0.7499999949248262  0.7500000000210979  1.0000
  Sb  Sb1       1.0  1.5966990223771543e-08  3.466479478706975e-08  3.725015053804613e-08  1.0000
  Se  Se1       1.0  0.28682639956811995  0.2868264504888363  0.7131735774462928  1.0000
  Se  Se2       1.0  0.7131735951654844  0.713173531189334  0.2868264295829979  1.0000
  Se  Se3       1.0  0.7131735812369465  0.2868263871015319  0.2868264116328402  1.0000
  Se  Se4       1.0  0.28682640307159407  0.7131736000500274  0.7131735427545832  1.0000
  Se  Se5       1.0  0.2868263830829628  0.713173607493195  0.28682639222889944  1.0000
  Se  Se6       1.0  0.7131736038489781  0.28682639242960456  0.7131735514818682  1.0000
