data_image0
_chemical_formula_structural       Sn2SbS6
_chemical_formula_sum              "Sn2 Sb1 S6"
_cell_length_a       6.576296794960967
_cell_length_b       6.576296877323564
_cell_length_c       6.57629687511606
_cell_angle_alpha    59.99999953453414
_cell_angle_beta     59.999999902085655
_cell_angle_gamma    59.99999901789017

_space_group_name_H-M_alt    "P 1"
_space_group_IT_number       1

loop_
  _space_group_symop_operation_xyz
  'x, y, z'

loop_
  _atom_site_type_symbol
  _atom_site_label
  _atom_site_symmetry_multiplicity
  _atom_site_fract_x
  _atom_site_fract_y
  _atom_site_fract_z
  _atom_site_occupancy
  Sn  Sn1       1.0  0.2500000016826434  0.25000008172067906  0.2499999994025726  1.0000
  Sn  Sn2       1.0  0.7499998978741195  0.750000003054911  0.7500001895749255  1.0000
  Sb  Sb1       1.0  7.459787631755696e-08  0.9999999553032992  0.9999999211836826  1.0000
  S   S1        1.0  0.2617902787627044  0.2617902745146853  0.7382097039971006  1.0000
  S   S2        1.0  0.738209714033834  0.7382096780331671  0.26179024140839674  1.0000
  S   S3        1.0  0.7382096734497102  0.26179033431886256  0.26179025287192365  1.0000
  S   S4        1.0  0.2617902480993226  0.738209763493266  0.738209765009296  1.0000
  S   S5        1.0  0.26179037091546803  0.7382097014340216  0.26179017518924047  1.0000
  S   S6        1.0  0.7382097415103176  0.2617902082794913  0.7382097546279925  1.0000
