data_image0
_chemical_formula_structural       Sn2SbTe6
_chemical_formula_sum              "Sn2 Sb1 Te6"
_cell_length_a       7.4539357323456334
_cell_length_b       7.453935797114685
_cell_length_c       7.453935732938904
_cell_angle_alpha    59.99999977917984
_cell_angle_beta     59.99999969405825
_cell_angle_gamma    59.999999656913815

_space_group_name_H-M_alt    "P 1"
_space_group_IT_number       1

loop_
  _space_group_symop_operation_xyz
  'x, y, z'

loop_
  _atom_site_type_symbol
  _atom_site_label
  _atom_site_symmetry_multiplicity
  _atom_site_fract_x
  _atom_site_fract_y
  _atom_site_fract_z
  _atom_site_occupancy
  Sn  Sn1       1.0  0.2500001281108509  0.2500001364867146  0.2499998492060348  1.0000
  Sn  Sn2       1.0  0.7499999791276799  0.7500000496245701  0.7499999502619271  1.0000
  Sb  Sb1       1.0  0.9999999582061337  0.9999999441351162  8.505185023744537e-08  1.0000
  Te  Te1       1.0  0.2755115604526855  0.2755115825371247  0.7244884478916449  1.0000
  Te  Te2       1.0  0.7244884909559723  0.7244885526385304  0.2755115122849205  1.0000
  Te  Te3       1.0  0.7244884482464143  0.2755114668944217  0.27551149394762237  1.0000
  Te  Te4       1.0  0.2755116323674249  0.7244882739408774  0.7244885468369726  1.0000
  Te  Te5       1.0  0.27551144524788584  0.7244884304497515  0.2755115706703782  1.0000
  Te  Te6       1.0  0.724488358382947  0.27551156506369523  0.7244885456621569  1.0000
