data_image0
_chemical_formula_structural       Sn2TlO6
_chemical_formula_sum              "Sn2 Tl1 O6"
_cell_length_a       5.583835461142509
_cell_length_b       5.583835528141436
_cell_length_c       5.58383566598105
_cell_angle_alpha    59.999999441604466
_cell_angle_beta     59.999996738436856
_cell_angle_gamma    59.99999924399231

_space_group_name_H-M_alt    "P 1"
_space_group_IT_number       1

loop_
  _space_group_symop_operation_xyz
  'x, y, z'

loop_
  _atom_site_type_symbol
  _atom_site_label
  _atom_site_symmetry_multiplicity
  _atom_site_fract_x
  _atom_site_fract_y
  _atom_site_fract_z
  _atom_site_occupancy
  Sn  Sn1       1.0  0.24999941815259052  0.2500002741073412  0.2500001248803777  1.0000
  Sn  Sn2       1.0  0.7500002067102659  0.749999767308348  0.7500000997374056  1.0000
  Tl  Tl1       1.0  6.174779719053423e-08  0.9999998705908384  4.99486338800614e-08  1.0000
  O   O1        1.0  0.2752404751129404  0.2752405910555819  0.7247594621214505  1.0000
  O   O2        1.0  0.7247596517383962  0.7247592968238117  0.27524045932660973  1.0000
  O   O3        1.0  0.7247596968028411  0.27524070423620783  0.2752404367958738  1.0000
  O   O4        1.0  0.27524043511963436  0.7247594600085161  0.7247595194405503  1.0000
  O   O5        1.0  0.27524050805438094  0.7247594179265425  0.2752405926156478  1.0000
  O   O6        1.0  0.7247595496124655  0.27524062787589576  0.7247592629725326  1.0000
