data_image0
_chemical_formula_structural       Sn2TaSe6
_chemical_formula_sum              "Sn2 Ta1 Se6"
_cell_length_a       6.732050842714855
_cell_length_b       6.732050790156026
_cell_length_c       6.732050847928528
_cell_angle_alpha    59.999999382260086
_cell_angle_beta     59.99999977090326
_cell_angle_gamma    60.000000580982075

_space_group_name_H-M_alt    "P 1"
_space_group_IT_number       1

loop_
  _space_group_symop_operation_xyz
  'x, y, z'

loop_
  _atom_site_type_symbol
  _atom_site_label
  _atom_site_symmetry_multiplicity
  _atom_site_fract_x
  _atom_site_fract_y
  _atom_site_fract_z
  _atom_site_occupancy
  Sn  Sn1       1.0  0.24999991246878503  0.2500000109264889  0.25000007383405437  1.0000
  Sn  Sn2       1.0  0.7500000532343395  0.749999990936156  0.7499999508209959  1.0000
  Ta  Ta1       1.0  9.233059422689887e-09  8.550590426129325e-08  5.5125287439844034e-08  1.0000
  Se  Se1       1.0  0.2629951450665583  0.2629952224039545  0.7370048021355606  1.0000
  Se  Se2       1.0  0.7370047814984493  0.7370047630852187  0.2629952235375185  1.0000
  Se  Se3       1.0  0.7370047913268856  0.2629952269801135  0.2629952153230833  1.0000
  Se  Se4       1.0  0.26299529700768104  0.7370047002922756  0.7370046947000561  1.0000
  Se  Se5       1.0  0.2629951698121396  0.7370048017819018  0.26299526346482793  1.0000
  Se  Se6       1.0  0.7370048399845467  0.26299519644219427  0.7370047335355587  1.0000
