data_image0
_chemical_formula_structural       Sn2TaS6
_chemical_formula_sum              "Sn2 Ta1 S6"
_cell_length_a       6.420201325856082
_cell_length_b       6.420201535226457
_cell_length_c       6.420201605927754
_cell_angle_alpha    59.99999997994931
_cell_angle_beta     60.000000944911854
_cell_angle_gamma    60.00000281994172

_space_group_name_H-M_alt    "P 1"
_space_group_IT_number       1

loop_
  _space_group_symop_operation_xyz
  'x, y, z'

loop_
  _atom_site_type_symbol
  _atom_site_label
  _atom_site_symmetry_multiplicity
  _atom_site_fract_x
  _atom_site_fract_y
  _atom_site_fract_z
  _atom_site_occupancy
  Sn  Sn1       1.0  0.24999989354271743  0.2500000750894695  0.25000000169340164  1.0000
  Sn  Sn2       1.0  0.7499999688003308  0.7499998895233557  0.7499999478723051  1.0000
  Ta  Ta1       1.0  0.9999999639200494  5.722926320890599e-09  8.948177564505816e-09  1.0000
  S   S1        1.0  0.26230784481912967  0.2623078209639601  0.7376921606983605  1.0000
  S   S2        1.0  0.7376921542661037  0.7376922352157019  0.26230787719869103  1.0000
  S   S3        1.0  0.7376921906016707  0.2623078165078642  0.26230785221966796  1.0000
  S   S4        1.0  0.2623079259717606  0.7376921461973238  0.7376921487491878  1.0000
  S   S5        1.0  0.2623078486463732  0.737692165800642  0.26230781005671  1.0000
  S   S6        1.0  0.7376921955302406  0.2623078522261735  0.7376922056800734  1.0000
