data_image0
_chemical_formula_structural       Sn2TlSe6
_chemical_formula_sum              "Sn2 Tl1 Se6"
_cell_length_a       6.761018907660845
_cell_length_b       6.761019220327387
_cell_length_c       6.761020743911216
_cell_angle_alpha    59.99999158821953
_cell_angle_beta     59.99999161584715
_cell_angle_gamma    59.99998854014943

_space_group_name_H-M_alt    "P 1"
_space_group_IT_number       1

loop_
  _space_group_symop_operation_xyz
  'x, y, z'

loop_
  _atom_site_type_symbol
  _atom_site_label
  _atom_site_symmetry_multiplicity
  _atom_site_fract_x
  _atom_site_fract_y
  _atom_site_fract_z
  _atom_site_occupancy
  Sn  Sn1       1.0  0.25000006311179845  0.250000185591226  0.2500000654839009  1.0000
  Sn  Sn2       1.0  0.7499993539045174  0.7499996455993851  0.7500009262848307  1.0000
  Tl  Tl1       1.0  5.5024875330064025e-09  3.98525562690129e-08  0.9999999551364788  1.0000
  Se  Se1       1.0  0.28823214325487134  0.28823151606654634  0.7117678110485358  1.0000
  Se  Se2       1.0  0.7117679523732269  0.7117674782203481  0.2882318443994307  1.0000
  Se  Se3       1.0  0.7117675273251136  0.28823304130285354  0.288231367323088  1.0000
  Se  Se4       1.0  0.288232378380831  0.7117681213254051  0.711768353489746  1.0000
  Se  Se5       1.0  0.2882328655351601  0.7117676051759976  0.28823123824562835  1.0000
  Se  Se6       1.0  0.7117677072301667  0.2882323709329224  0.7117684376094752  1.0000
