data_image0
_chemical_formula_structural       Sn2TlTe6
_chemical_formula_sum              "Sn2 Tl1 Te6"
_cell_length_a       7.477289775981521
_cell_length_b       7.477289718940957
_cell_length_c       7.47729001975068
_cell_angle_alpha    59.99999986546551
_cell_angle_beta     60.00000083060679
_cell_angle_gamma    60.00000073318871

_space_group_name_H-M_alt    "P 1"
_space_group_IT_number       1

loop_
  _space_group_symop_operation_xyz
  'x, y, z'

loop_
  _atom_site_type_symbol
  _atom_site_label
  _atom_site_symmetry_multiplicity
  _atom_site_fract_x
  _atom_site_fract_y
  _atom_site_fract_z
  _atom_site_occupancy
  Sn  Sn1       1.0  0.25000050391870654  0.24999979219570823  0.2499997441490018  1.0000
  Sn  Sn2       1.0  0.7499997917793625  0.7500000334062454  0.7500005330209869  1.0000
  Tl  Tl1       1.0  3.684314762938934e-08  6.551811838434894e-08  0.9999999849287071  1.0000
  Te  Te1       1.0  0.2852808238288611  0.2852805486754882  0.7147194127556508  1.0000
  Te  Te2       1.0  0.7147190300935233  0.7147194718428581  0.2852804194562359  1.0000
  Te  Te3       1.0  0.7147192031960744  0.2852808967577952  0.2852806146594126  1.0000
  Te  Te4       1.0  0.2852806834504704  0.7147192433311181  0.714719371434975  1.0000
  Te  Te5       1.0  0.285280982330443  0.7147193781934157  0.2852803483227754  1.0000
  Te  Te6       1.0  0.7147189454844185  0.28528057353090813  0.7147195722819233  1.0000
