data_image0
_chemical_formula_structural       Sn2TaTe6
_chemical_formula_sum              "Sn2 Ta1 Te6"
_cell_length_a       7.301647406412275
_cell_length_b       7.301647368628218
_cell_length_c       7.301647578321469
_cell_angle_alpha    59.999998988678556
_cell_angle_beta     59.999998460402786
_cell_angle_gamma    59.999999527367486

_space_group_name_H-M_alt    "P 1"
_space_group_IT_number       1

loop_
  _space_group_symop_operation_xyz
  'x, y, z'

loop_
  _atom_site_type_symbol
  _atom_site_label
  _atom_site_symmetry_multiplicity
  _atom_site_fract_x
  _atom_site_fract_y
  _atom_site_fract_z
  _atom_site_occupancy
  Sn  Sn1       1.0  0.2500000134785447  0.24999993424412392  0.2500000274394827  1.0000
  Sn  Sn2       1.0  0.7499999593799765  0.7500000174337074  0.7499998141711844  1.0000
  Ta  Ta1       1.0  0.9999999769501345  0.9999999647755622  1.8663585158819555e-07  1.0000
  Te  Te1       1.0  0.26375058220873016  0.26375059319754757  0.736249364323248  1.0000
  Te  Te2       1.0  0.7362494383309419  0.7362494289291606  0.2637506756985404  1.0000
  Te  Te3       1.0  0.7362493987636975  0.26375051417940143  0.26375065301500755  1.0000
  Te  Te4       1.0  0.26375070129676265  0.7362493737589717  0.7362493787321521  1.0000
  Te  Te5       1.0  0.26375055794852004  0.7362494683382745  0.26375059199307854  1.0000
  Te  Te6       1.0  0.736249370131179  0.2637507030729561  0.7362493100521226  1.0000
