data_image0
_chemical_formula_structural       Sr2AsO6
_chemical_formula_sum              "Sr2 As1 O6"
_cell_length_a       5.714792348928944
_cell_length_b       5.7147919519787225
_cell_length_c       5.714792610572025
_cell_angle_alpha    59.999998491436195
_cell_angle_beta     59.999998630413685
_cell_angle_gamma    59.99999899921743

_space_group_name_H-M_alt    "P 1"
_space_group_IT_number       1

loop_
  _space_group_symop_operation_xyz
  'x, y, z'

loop_
  _atom_site_type_symbol
  _atom_site_label
  _atom_site_symmetry_multiplicity
  _atom_site_fract_x
  _atom_site_fract_y
  _atom_site_fract_z
  _atom_site_occupancy
  Sr  Sr1       1.0  0.2499999823892195  0.24999998613551988  0.25000000719003745  1.0000
  Sr  Sr2       1.0  0.7500000191929722  0.7499999605496759  0.7500000509799991  1.0000
  As  As1       1.0  0.9999999479350207  1.0715566517914691e-08  0.9999999681793632  1.0000
  O   O1        1.0  0.22309933932834441  0.2230993481659657  0.7769006602812394  1.0000
  O   O2        1.0  0.7769005941470601  0.7769006028054555  0.22309938430311374  1.0000
  O   O3        1.0  0.7769006709082212  0.22309940390541855  0.22309932396197  1.0000
  O   O4        1.0  0.22309941724926094  0.7769006649372602  0.7769006560893537  1.0000
  O   O5        1.0  0.22309940322049296  0.7769006379193734  0.2230993148370672  1.0000
  O   O6        1.0  0.7769006617935296  0.22309937305923205  0.7769005902282664  1.0000
