data_image0
_chemical_formula_structural       Sr2AsS6
_chemical_formula_sum              "Sr2 As1 S6"
_cell_length_a       6.6257148736887705
_cell_length_b       6.625715351154118
_cell_length_c       6.625714909080686
_cell_angle_alpha    59.99999991411699
_cell_angle_beta     59.99999830534569
_cell_angle_gamma    60.00000170871133

_space_group_name_H-M_alt    "P 1"
_space_group_IT_number       1

loop_
  _space_group_symop_operation_xyz
  'x, y, z'

loop_
  _atom_site_type_symbol
  _atom_site_label
  _atom_site_symmetry_multiplicity
  _atom_site_fract_x
  _atom_site_fract_y
  _atom_site_fract_z
  _atom_site_occupancy
  Sr  Sr1       1.0  0.24999994710317858  0.2500000217111252  0.25000004996687125  1.0000
  Sr  Sr2       1.0  0.750000034897462  0.7499999967399207  0.7499999333577253  1.0000
  As  As1       1.0  0.9999999926180384  3.567550679712869e-07  1.1811203324177591e-07  1.0000
  S   S1        1.0  0.2540029734295736  0.2540029994883724  0.7459970803184622  1.0000
  S   S2        1.0  0.7459966165566407  0.7459970134172512  0.25400323912973255  1.0000
  S   S3        1.0  0.7459971164569122  0.2540029352301056  0.254002864815983  1.0000
  S   S4        1.0  0.25400317827647295  0.7459967985562764  0.7459969278898562  1.0000
  S   S5        1.0  0.2540030757487234  0.7459968307047219  0.25400300850528507  1.0000
  S   S6        1.0  0.7459971025703137  0.2540030065960832  0.745996849512089  1.0000
