data_image0
_chemical_formula_structural       Sr2AsSe6
_chemical_formula_sum              "Sr2 As1 Se6"
_cell_length_a       6.872307908445441
_cell_length_b       6.872307644707304
_cell_length_c       6.872307936526533
_cell_angle_alpha    59.99999991051813
_cell_angle_beta     59.99999903989549
_cell_angle_gamma    60.00000196247854

_space_group_name_H-M_alt    "P 1"
_space_group_IT_number       1

loop_
  _space_group_symop_operation_xyz
  'x, y, z'

loop_
  _atom_site_type_symbol
  _atom_site_label
  _atom_site_symmetry_multiplicity
  _atom_site_fract_x
  _atom_site_fract_y
  _atom_site_fract_z
  _atom_site_occupancy
  Sr  Sr1       1.0  0.2500000047707652  0.2500000290472235  0.25000000173136616  1.0000
  Sr  Sr2       1.0  0.7500000297925248  0.7499999802129704  0.7499999854381468  1.0000
  As  As1       1.0  4.116119807595297e-08  0.9999997504997044  1.9875203652072934e-07  1.0000
  Se  Se1       1.0  0.26199464602886796  0.26199469579481693  0.738005336384752  1.0000
  Se  Se2       1.0  0.7380053794198531  0.7380053508904212  0.2619946249886021  1.0000
  Se  Se3       1.0  0.7380053500783519  0.26199467811010496  0.2619946468905071  1.0000
  Se  Se4       1.0  0.26199461179271405  0.7380054131287559  0.7380053283602096  1.0000
  Se  Se5       1.0  0.26199459508675765  0.7380054045479552  0.26199461939244234  1.0000
  Se  Se6       1.0  0.7380053285293988  0.26199469560162797  0.7380052846785694  1.0000
