data_image0
_chemical_formula_structural       Sr2BiS6
_chemical_formula_sum              "Sr2 Bi1 S6"
_cell_length_a       6.7972480788694005
_cell_length_b       6.7972479368577465
_cell_length_c       6.7972478391613445
_cell_angle_alpha    60.000002203351556
_cell_angle_beta     60.000003132963975
_cell_angle_gamma    60.00000092871637

_space_group_name_H-M_alt    "P 1"
_space_group_IT_number       1

loop_
  _space_group_symop_operation_xyz
  'x, y, z'

loop_
  _atom_site_type_symbol
  _atom_site_label
  _atom_site_symmetry_multiplicity
  _atom_site_fract_x
  _atom_site_fract_y
  _atom_site_fract_z
  _atom_site_occupancy
  Sr  Sr1       1.0  0.25000000255029786  0.24999999089590666  0.2500000059049348  1.0000
  Sr  Sr2       1.0  0.7500000151496563  0.7499999654804219  0.7500000499351127  1.0000
  Bi  Bi1       1.0  0.999999855963147  7.027115639415003e-08  0.9999997617715014  1.0000
  S   S1        1.0  0.2590982118217632  0.25909827058606866  0.7409017661533823  1.0000
  S   S2        1.0  0.7409017681252404  0.7409018245307529  0.259098170047263  1.0000
  S   S3        1.0  0.7409017726061619  0.25909824232436746  0.2590982452293445  1.0000
  S   S4        1.0  0.2590981585738863  0.7409018563961051  0.7409018356611967  1.0000
  S   S5        1.0  0.25909819418802593  0.7409017820692969  0.2590982063213741  1.0000
  S   S6        1.0  0.7409020142754899  0.2590979995300466  0.7409019533353447  1.0000
