data_image0
_chemical_formula_structural       Sr2BS6
_chemical_formula_sum              "Sr2 B1 S6"
_cell_length_a       6.289134018101443
_cell_length_b       6.289134997210329
_cell_length_c       6.289134575071462
_cell_angle_alpha    60.00000012719361
_cell_angle_beta     59.9999975092232
_cell_angle_gamma    59.999996924133995

_space_group_name_H-M_alt    "P 1"
_space_group_IT_number       1

loop_
  _space_group_symop_operation_xyz
  'x, y, z'

loop_
  _atom_site_type_symbol
  _atom_site_label
  _atom_site_symmetry_multiplicity
  _atom_site_fract_x
  _atom_site_fract_y
  _atom_site_fract_z
  _atom_site_occupancy
  Sr  Sr1       1.0  0.24999996052216  0.25000001694030316  0.25000000694478625  1.0000
  Sr  Sr2       1.0  0.7499999918393401  0.7500000449787096  0.7499999431783271  1.0000
  B   B1        1.0  2.1160417554220565e-08  1.3631784409565414e-08  0.9999999841939428  1.0000
  S   S1        1.0  0.22826238940315693  0.22826243482635508  0.7717375047226835  1.0000
  S   S2        1.0  0.771737706225599  0.7717375277753575  0.22826225011066995  1.0000
  S   S3        1.0  0.7717375077502637  0.22826243244486147  0.228262766009243  1.0000
  S   S4        1.0  0.22826235004804843  0.7717375496308326  0.7717375829657269  1.0000
  S   S5        1.0  0.22826229701164438  0.7717377951683394  0.22826241885002532  1.0000
  S   S6        1.0  0.7717377625457527  0.22826216548596964  0.771737663461224  1.0000
