data_image0
_chemical_formula_structural       Sr2BiTe6
_chemical_formula_sum              "Sr2 Bi1 Te6"
_cell_length_a       7.694208728976286
_cell_length_b       7.694208751739094
_cell_length_c       7.6942083983479215
_cell_angle_alpha    60.000000344847734
_cell_angle_beta     60.000000478630106
_cell_angle_gamma    59.99999855471951

_space_group_name_H-M_alt    "P 1"
_space_group_IT_number       1

loop_
  _space_group_symop_operation_xyz
  'x, y, z'

loop_
  _atom_site_type_symbol
  _atom_site_label
  _atom_site_symmetry_multiplicity
  _atom_site_fract_x
  _atom_site_fract_y
  _atom_site_fract_z
  _atom_site_occupancy
  Sr  Sr1       1.0  0.24999993591246256  0.25000006974860184  0.24999998677800372  1.0000
  Sr  Sr2       1.0  0.7500000749342363  0.7499999434193831  0.7500000103362741  1.0000
  Bi  Bi1       1.0  2.5967753487603104e-08  0.999999976123376  0.9999999261724192  1.0000
  Te  Te1       1.0  0.27656739724063834  0.2765674090516158  0.7234326134378998  1.0000
  Te  Te2       1.0  0.7234326300985787  0.723432631176543  0.2765673748968204  1.0000
  Te  Te3       1.0  0.723432625228874  0.276567372139789  0.2765674104766073  1.0000
  Te  Te4       1.0  0.2765673533298306  0.7234326028255976  0.723432645277187  1.0000
  Te  Te5       1.0  0.2765673523176439  0.723432623100964  0.27656740377349737  1.0000
  Te  Te6       1.0  0.7234326068068587  0.27656737414927257  0.7234326232617169  1.0000
