data_image0
_chemical_formula_structural       Sr2BO6
_chemical_formula_sum              "Sr2 B1 O6"
_cell_length_a       5.027016758245298
_cell_length_b       5.027014918874697
_cell_length_c       5.027018559438427
_cell_angle_alpha    60.000004222036445
_cell_angle_beta     60.00000790480461
_cell_angle_gamma    60.00000807341748

_space_group_name_H-M_alt    "P 1"
_space_group_IT_number       1

loop_
  _space_group_symop_operation_xyz
  'x, y, z'

loop_
  _atom_site_type_symbol
  _atom_site_label
  _atom_site_symmetry_multiplicity
  _atom_site_fract_x
  _atom_site_fract_y
  _atom_site_fract_z
  _atom_site_occupancy
  Sr  Sr1       1.0  0.2499999954423741  0.24999990740976683  0.25000004570351797  1.0000
  Sr  Sr2       1.0  0.7499998759240548  0.750000211930808  0.7499997366008516  1.0000
  B   B1        1.0  0.9999999672848041  2.9235908867462408e-08  0.9999999937826423  1.0000
  O   O1        1.0  0.21229519446653114  0.2122955281706716  0.7877047157022593  1.0000
  O   O2        1.0  0.7877047201486115  0.7877045716793326  0.2122951939705875  1.0000
  O   O3        1.0  0.7877046345154581  0.21229536185157769  0.2122953069156783  1.0000
  O   O4        1.0  0.2122952739054001  0.7877047014535402  0.7877046559547559  1.0000
  O   O5        1.0  0.21229527281454802  0.7877047262755766  0.21229518502338898  1.0000
  O   O6        1.0  0.787704570454592  0.212295380883405  0.7877047865067213  1.0000
