data_image0
_chemical_formula_structural       Sr2BiO6
_chemical_formula_sum              "Sr2 Bi1 O6"
_cell_length_a       5.788962300797397
_cell_length_b       5.788962260112557
_cell_length_c       5.788962256067942
_cell_angle_alpha    59.999999461564684
_cell_angle_beta     59.999998914094114
_cell_angle_gamma    59.99999952823824

_space_group_name_H-M_alt    "P 1"
_space_group_IT_number       1

loop_
  _space_group_symop_operation_xyz
  'x, y, z'

loop_
  _atom_site_type_symbol
  _atom_site_label
  _atom_site_symmetry_multiplicity
  _atom_site_fract_x
  _atom_site_fract_y
  _atom_site_fract_z
  _atom_site_occupancy
  Sr  Sr1       1.0  0.25000000873530426  0.2500000002729833  0.2500000026044518  1.0000
  Sr  Sr2       1.0  0.7500000073067713  0.7500000156285372  0.7499999994935808  1.0000
  Bi  Bi1       1.0  0.9999999757011035  1.9040897822411177e-08  0.9999999974467235  1.0000
  O   O1        1.0  0.25827930181651443  0.2582792718599308  0.7417207101263628  1.0000
  O   O2        1.0  0.7417207225671865  0.7417207250006917  0.258279271409926  1.0000
  O   O3        1.0  0.74172071511496  0.2582792853861861  0.2582793071540095  1.0000
  O   O4        1.0  0.25827928628004426  0.7417206966648493  0.7417207105556749  1.0000
  O   O5        1.0  0.2582792933114097  0.7417206951760434  0.25827930910080427  1.0000
  O   O6        1.0  0.7417206995207364  0.2582792826436813  0.7417207236430913  1.0000
