data_image0
_chemical_formula_structural       Sr2BSe6
_chemical_formula_sum              "Sr2 B1 Se6"
_cell_length_a       6.564116148532869
_cell_length_b       6.564111716642808
_cell_length_c       6.564114802072286
_cell_angle_alpha    59.99995730734489
_cell_angle_beta     59.99998736373936
_cell_angle_gamma    59.99998487973448

_space_group_name_H-M_alt    "P 1"
_space_group_IT_number       1

loop_
  _space_group_symop_operation_xyz
  'x, y, z'

loop_
  _atom_site_type_symbol
  _atom_site_label
  _atom_site_symmetry_multiplicity
  _atom_site_fract_x
  _atom_site_fract_y
  _atom_site_fract_z
  _atom_site_occupancy
  Sr  Sr1       1.0  0.2499996385378283  0.24999982394058606  0.250000174529837  1.0000
  Sr  Sr2       1.0  0.7500000500901243  0.749999910289843  0.7499997234059806  1.0000
  B   B1        1.0  1.2492743060505414e-06  0.999998753632412  0.9999988559707185  1.0000
  Se  Se1       1.0  0.23425977982389531  0.23426000865241922  0.765740010818444  1.0000
  Se  Se2       1.0  0.7657398887308547  0.765740440187322  0.23425935399014675  1.0000
  Se  Se3       1.0  0.7657391733620441  0.23426026490174864  0.23426054171271227  1.0000
  Se  Se4       1.0  0.2342605762732739  0.7657400831833722  0.7657402344928006  1.0000
  Se  Se5       1.0  0.2342602746762726  0.7657401442807069  0.2342599243731761  1.0000
  Se  Se6       1.0  0.7657396556497433  0.2342612449321744  0.7657408807654246  1.0000
