data_image0
_chemical_formula_structural       Sr2BTe6
_chemical_formula_sum              "Sr2 B1 Te6"
_cell_length_a       7.2746403590613085
_cell_length_b       7.274640220955254
_cell_length_c       7.274639868373527
_cell_angle_alpha    59.99999807194701
_cell_angle_beta     60.00000032128374
_cell_angle_gamma    59.999997022851986

_space_group_name_H-M_alt    "P 1"
_space_group_IT_number       1

loop_
  _space_group_symop_operation_xyz
  'x, y, z'

loop_
  _atom_site_type_symbol
  _atom_site_label
  _atom_site_symmetry_multiplicity
  _atom_site_fract_x
  _atom_site_fract_y
  _atom_site_fract_z
  _atom_site_occupancy
  Sr  Sr1       1.0  0.250000103366819  0.25000006607793784  0.24999998277575392  1.0000
  Sr  Sr2       1.0  0.7499999735829281  0.749999893505591  0.7500000421347988  1.0000
  B   B1        1.0  3.097562818461872e-08  4.040595534996145e-08  0.9999999051997515  1.0000
  Te  Te1       1.0  0.22857841765763512  0.22857834196370125  0.7714216330073193  1.0000
  Te  Te2       1.0  0.771421526391139  0.7714216782287627  0.2285783840608208  1.0000
  Te  Te3       1.0  0.7714215785937253  0.2285783468190722  0.22857833264799482  1.0000
  Te  Te4       1.0  0.228578437205255  0.7714216009793888  0.7714217039869835  1.0000
  Te  Te5       1.0  0.22857839545814593  0.7714216861358737  0.22857824378189123  1.0000
  Te  Te6       1.0  0.7714215487666788  0.22857835257598602  0.7714217611892482  1.0000
