data_image0
_chemical_formula_structural       Sr2GaTe6
_chemical_formula_sum              "Sr2 Ga1 Te6"
_cell_length_a       7.442777567067087
_cell_length_b       7.442777339941736
_cell_length_c       7.442776577041509
_cell_angle_alpha    60.00000025000386
_cell_angle_beta     60.00000358229205
_cell_angle_gamma    59.999995440070386

_space_group_name_H-M_alt    "P 1"
_space_group_IT_number       1

loop_
  _space_group_symop_operation_xyz
  'x, y, z'

loop_
  _atom_site_type_symbol
  _atom_site_label
  _atom_site_symmetry_multiplicity
  _atom_site_fract_x
  _atom_site_fract_y
  _atom_site_fract_z
  _atom_site_occupancy
  Sr  Sr1       1.0  0.25000007375562183  0.2499999427405455  0.24999993207148502  1.0000
  Sr  Sr2       1.0  0.7499999633166953  0.7500000668261351  0.7500000222044074  1.0000
  Ga  Ga1       1.0  7.741039229115885e-09  2.797431831301538e-08  1.3044766347509574e-08  1.0000
  Te  Te1       1.0  0.26572908679153695  0.2657290842381109  0.734270928430071  1.0000
  Te  Te2       1.0  0.7342708638708274  0.7342709006453495  0.2657291284178703  1.0000
  Te  Te3       1.0  0.7342710804577858  0.2657290417974694  0.2657289877402509  1.0000
  Te  Te4       1.0  0.2657289342517775  0.7342709743514058  0.7342709583029061  1.0000
  Te  Te5       1.0  0.26572898415494994  0.7342709665476486  0.2657291029118298  1.0000
  Te  Te6       1.0  0.7342709946215135  0.2657290084625218  0.7342709206311843  1.0000
