data_image0
_chemical_formula_structural       Sr2GaS6
_chemical_formula_sum              "Sr2 Ga1 S6"
_cell_length_a       6.433772003799868
_cell_length_b       6.433771643622381
_cell_length_c       6.433770721108544
_cell_angle_alpha    60.00000628790958
_cell_angle_beta     60.00000509280311
_cell_angle_gamma    60.00000934459302

_space_group_name_H-M_alt    "P 1"
_space_group_IT_number       1

loop_
  _space_group_symop_operation_xyz
  'x, y, z'

loop_
  _atom_site_type_symbol
  _atom_site_label
  _atom_site_symmetry_multiplicity
  _atom_site_fract_x
  _atom_site_fract_y
  _atom_site_fract_z
  _atom_site_occupancy
  Sr  Sr1       1.0  0.25000002636377144  0.24999998093397796  0.2499999885737444  1.0000
  Sr  Sr2       1.0  0.7499999536392823  0.7499999961032483  0.7500000468712498  1.0000
  Ga  Ga1       1.0  0.9999999767056206  0.999999935276964  3.6237214896900104e-08  1.0000
  S   S1        1.0  0.25504532916392025  0.25504529427284955  0.74495469440839  1.0000
  S   S2        1.0  0.7449547188778803  0.7449545971015423  0.2550453529572429  1.0000
  S   S3        1.0  0.744954686918107  0.25504537675923966  0.2550453319638935  1.0000
  S   S4        1.0  0.25504527602389676  0.7449547106878679  0.744954678566865  1.0000
  S   S5        1.0  0.2550453180266658  0.7449547469182662  0.2550453239599532  1.0000
  S   S6        1.0  0.7449547299030721  0.25504533862522716  0.7449545766396116  1.0000
