data_image0
_chemical_formula_structural       Sr2GaSe6
_chemical_formula_sum              "Sr2 Ga1 Se6"
_cell_length_a       6.780565448392455
_cell_length_b       6.780565449633469
_cell_length_c       6.780565499271348
_cell_angle_alpha    59.99999943987502
_cell_angle_beta     59.99999760218976
_cell_angle_gamma    59.99999835035393

_space_group_name_H-M_alt    "P 1"
_space_group_IT_number       1

loop_
  _space_group_symop_operation_xyz
  'x, y, z'

loop_
  _atom_site_type_symbol
  _atom_site_label
  _atom_site_symmetry_multiplicity
  _atom_site_fract_x
  _atom_site_fract_y
  _atom_site_fract_z
  _atom_site_occupancy
  Sr  Sr1       1.0  0.250000051707856  0.24999992961208523  0.2500000740473818  1.0000
  Sr  Sr2       1.0  0.7499999652482613  0.7500000417123398  0.7499999458244204  1.0000
  Ga  Ga1       1.0  0.999999914905361  0.9999999078808569  2.0216674252517615e-07  1.0000
  Se  Se1       1.0  0.2637966231378836  0.2637965780665813  0.7362033724637638  1.0000
  Se  Se2       1.0  0.7362035976357002  0.7362036298776047  0.2637963829453232  1.0000
  Se  Se3       1.0  0.7362034249270444  0.26379651579476376  0.26379654707745037  1.0000
  Se  Se4       1.0  0.2637965909991003  0.7362033308978769  0.7362034353386097  1.0000
  Se  Se5       1.0  0.26379649661670973  0.7362034046262385  0.2637966043270647  1.0000
  Se  Se6       1.0  0.7362033509026117  0.26379664075475556  0.7362034204655594  1.0000
