data_image0
_chemical_formula_structural       Sr2IrSe6
_chemical_formula_sum              "Sr2 Ir1 Se6"
_cell_length_a       6.773351321591566
_cell_length_b       6.773351437334408
_cell_length_c       6.77335154420567
_cell_angle_alpha    59.99999914444444
_cell_angle_beta     59.99999966607786
_cell_angle_gamma    60.00000052999446

_space_group_name_H-M_alt    "P 1"
_space_group_IT_number       1

loop_
  _space_group_symop_operation_xyz
  'x, y, z'

loop_
  _atom_site_type_symbol
  _atom_site_label
  _atom_site_symmetry_multiplicity
  _atom_site_fract_x
  _atom_site_fract_y
  _atom_site_fract_z
  _atom_site_occupancy
  Sr  Sr1       1.0  0.2500000123176587  0.2500000066325089  0.24999998067274545  1.0000
  Sr  Sr2       1.0  0.7499999545212945  0.7500000217057073  0.75000000595197  1.0000
  Ir  Ir1       1.0  0.9999999604800581  1.6273632954937122e-08  4.5579755796078224e-08  1.0000
  Se  Se1       1.0  0.2585547835181382  0.25855470173680456  0.741445263477147  1.0000
  Se  Se2       1.0  0.7414452315035027  0.7414452434250629  0.25855475097901714  1.0000
  Se  Se3       1.0  0.7414452465903989  0.25855473626859093  0.2585547713998559  1.0000
  Se  Se4       1.0  0.2585547957932299  0.7414452342078175  0.7414452300054101  1.0000
  Se  Se5       1.0  0.2585547734961254  0.7414452645313444  0.2585547265616728  1.0000
  Se  Se6       1.0  0.7414452488940956  0.2585547710395981  0.7414452286710459  1.0000
