data_image0
_chemical_formula_structural       Sr2IrS6
_chemical_formula_sum              "Sr2 Ir1 S6"
_cell_length_a       6.4620495410840935
_cell_length_b       6.4620495450139765
_cell_length_c       6.46204963189129
_cell_angle_alpha    59.999998823605246
_cell_angle_beta     60.00000084718542
_cell_angle_gamma    60.00000117409415

_space_group_name_H-M_alt    "P 1"
_space_group_IT_number       1

loop_
  _space_group_symop_operation_xyz
  'x, y, z'

loop_
  _atom_site_type_symbol
  _atom_site_label
  _atom_site_symmetry_multiplicity
  _atom_site_fract_x
  _atom_site_fract_y
  _atom_site_fract_z
  _atom_site_occupancy
  Sr  Sr1       1.0  0.2499999677930096  0.24999999624260189  0.2500000042311783  1.0000
  Sr  Sr2       1.0  0.7499999843312793  0.7499999602984777  0.75000002976198  1.0000
  Ir  Ir1       1.0  5.0160055493006324e-08  0.999999962094229  0.9999999923253619  1.0000
  S   S1        1.0  0.2543650146042079  0.2543650951987034  0.7456349366365738  1.0000
  S   S2        1.0  0.745634943654928  0.7456349769549807  0.25436503493536144  1.0000
  S   S3        1.0  0.7456349194255184  0.2543650524626374  0.2543650478109139  1.0000
  S   S4        1.0  0.25436503582039033  0.7456349590418119  0.7456349339272998  1.0000
  S   S5        1.0  0.2543650846610448  0.7456349484946037  0.25436506065677567  1.0000
  S   S6        1.0  0.7456349769686244  0.25436504405696014  0.7456349810482756  1.0000
