data_image0
_chemical_formula_structural       Sr2MoSe6
_chemical_formula_sum              "Sr2 Mo1 Se6"
_cell_length_a       6.896405737403012
_cell_length_b       6.896405704566695
_cell_length_c       6.896406004132223
_cell_angle_alpha    59.99999959085135
_cell_angle_beta     59.999998793294786
_cell_angle_gamma    60.000001715225196

_space_group_name_H-M_alt    "P 1"
_space_group_IT_number       1

loop_
  _space_group_symop_operation_xyz
  'x, y, z'

loop_
  _atom_site_type_symbol
  _atom_site_label
  _atom_site_symmetry_multiplicity
  _atom_site_fract_x
  _atom_site_fract_y
  _atom_site_fract_z
  _atom_site_occupancy
  Sr  Sr1       1.0  0.2499999978373473  0.24999997887394143  0.250000026474241  1.0000
  Sr  Sr2       1.0  0.7500000012395499  0.7500000289695422  0.7499999829841305  1.0000
  Mo  Mo1       1.0  0.9999999274776404  5.682936302029911e-08  0.9999999918961616  1.0000
  Se  Se1       1.0  0.25460185141949704  0.25460184195991925  0.7453981548285818  1.0000
  Se  Se2       1.0  0.7453981897018883  0.7453981854186594  0.2546018223899676  1.0000
  Se  Se3       1.0  0.7453981120263876  0.2546018780454548  0.2546018937369541  1.0000
  Se  Se4       1.0  0.2546018902309302  0.7453980800723341  0.7453981186936253  1.0000
  Se  Se5       1.0  0.2546019238498792  0.7453980585056423  0.2546019359383537  1.0000
  Se  Se6       1.0  0.7453980873711672  0.2546018978362292  0.7453980801484733  1.0000
