data_image0
_chemical_formula_structural       Sr2MoO6
_chemical_formula_sum              "Sr2 Mo1 O6"
_cell_length_a       5.66373732634553
_cell_length_b       5.663737458696548
_cell_length_c       5.663737447579931
_cell_angle_alpha    59.999997244002586
_cell_angle_beta     60.00000026523711
_cell_angle_gamma    60.00000083247241

_space_group_name_H-M_alt    "P 1"
_space_group_IT_number       1

loop_
  _space_group_symop_operation_xyz
  'x, y, z'

loop_
  _atom_site_type_symbol
  _atom_site_label
  _atom_site_symmetry_multiplicity
  _atom_site_fract_x
  _atom_site_fract_y
  _atom_site_fract_z
  _atom_site_occupancy
  Sr  Sr1       1.0  0.25000001190019383  0.24999998673544638  0.24999998416287134  1.0000
  Sr  Sr2       1.0  0.7500000070130435  0.7500000034549825  0.7500000158328027  1.0000
  Mo  Mo1       1.0  6.419095633072499e-08  0.9999999481016224  7.860340347160149e-08  1.0000
  O   O1        1.0  0.23797888001669043  0.2379788062425978  0.7620211469122139  1.0000
  O   O2        1.0  0.7620210915103628  0.7620212098970199  0.2379788090677815  1.0000
  O   O3        1.0  0.762021058803939  0.237978875894295  0.23797893645725277  1.0000
  O   O4        1.0  0.2379789808679207  0.7620210948342421  0.7620210982024281  1.0000
  O   O5        1.0  0.23797888191419905  0.7620211805552305  0.23797876396695403  1.0000
  O   O6        1.0  0.7620210344002063  0.23797891559438347  0.7620211460676122  1.0000
