data_image0
_chemical_formula_structural       Sr2NO6
_chemical_formula_sum              "Sr2 N1 O6"
_cell_length_a       5.46867723501129
_cell_length_b       5.468676128739163
_cell_length_c       5.468676816250097
_cell_angle_alpha    60.00000026980014
_cell_angle_beta     59.999997918688535
_cell_angle_gamma    60.00000358342982

_space_group_name_H-M_alt    "P 1"
_space_group_IT_number       1

loop_
  _space_group_symop_operation_xyz
  'x, y, z'

loop_
  _atom_site_type_symbol
  _atom_site_label
  _atom_site_symmetry_multiplicity
  _atom_site_fract_x
  _atom_site_fract_y
  _atom_site_fract_z
  _atom_site_occupancy
  Sr  Sr1       1.0  0.25000008077951197  0.24999982818379146  0.24999988276500404  1.0000
  Sr  Sr2       1.0  0.7500000531943161  0.7499998809541556  0.7499998280981158  1.0000
  N   N1        1.0  1.1918723441909707e-07  0.9999996551071676  0.9999996685039798  1.0000
  O   O1        1.0  0.20432313642199637  0.20432303141135782  0.7956770371693607  1.0000
  O   O2        1.0  0.795676796507206  0.7956770338172411  0.2043231502353225  1.0000
  O   O3        1.0  0.795676937719155  0.20432327876262865  0.20432316868200515  1.0000
  O   O4        1.0  0.20432282236121416  0.7956771403170364  0.7956771238813405  1.0000
  O   O5        1.0  0.2043231151411598  0.7956769905796568  0.20432317121818194  1.0000
  O   O6        1.0  0.7956769901829139  0.20432307688852763  0.7956770458994042  1.0000
