data_image0
_chemical_formula_structural       Sr2PS6
_chemical_formula_sum              "Sr2 P1 S6"
_cell_length_a       6.492026854893813
_cell_length_b       6.4920270871773855
_cell_length_c       6.492026382314565
_cell_angle_alpha    60.00000409522841
_cell_angle_beta     60.00000198222093
_cell_angle_gamma    60.00000089991197

_space_group_name_H-M_alt    "P 1"
_space_group_IT_number       1

loop_
  _space_group_symop_operation_xyz
  'x, y, z'

loop_
  _atom_site_type_symbol
  _atom_site_label
  _atom_site_symmetry_multiplicity
  _atom_site_fract_x
  _atom_site_fract_y
  _atom_site_fract_z
  _atom_site_occupancy
  Sr  Sr1       1.0  0.25000007497564836  0.25000004990545116  0.24999999144059443  1.0000
  Sr  Sr2       1.0  0.7499999741598168  0.7499999308780855  0.7500000597104244  1.0000
  P   P1        1.0  6.56649150353719e-08  6.980186188945923e-08  1.8526273371157702e-08  1.0000
  S   S1        1.0  0.23986117433603918  0.23986113703112594  0.7601388656659598  1.0000
  S   S2        1.0  0.7601387213891271  0.7601387116948358  0.23986129279092058  1.0000
  S   S3        1.0  0.7601388932511014  0.2398611248058262  0.2398612110572165  1.0000
  S   S4        1.0  0.23986126046684106  0.7601387503316444  0.7601386865904858  1.0000
  S   S5        1.0  0.23986114522747784  0.7601389106528013  0.23986116961405687  1.0000
  S   S6        1.0  0.7601386739202596  0.23986128519593786  0.7601386641069651  1.0000
