data_image0
_chemical_formula_structural       Sr2PSe6
_chemical_formula_sum              "Sr2 P1 Se6"
_cell_length_a       6.689252329822387
_cell_length_b       6.6892522622220545
_cell_length_c       6.689252616798799
_cell_angle_alpha    59.99999972641396
_cell_angle_beta     59.99999905056193
_cell_angle_gamma    60.00000087202351

_space_group_name_H-M_alt    "P 1"
_space_group_IT_number       1

loop_
  _space_group_symop_operation_xyz
  'x, y, z'

loop_
  _atom_site_type_symbol
  _atom_site_label
  _atom_site_symmetry_multiplicity
  _atom_site_fract_x
  _atom_site_fract_y
  _atom_site_fract_z
  _atom_site_occupancy
  Sr  Sr1       1.0  0.24999997931665305  0.24999998696286554  0.25000001779315184  1.0000
  Sr  Sr2       1.0  0.7499999584370027  0.7500000029996304  0.7500000758980889  1.0000
  P   P1        1.0  0.999999981430617  0.9999999780290251  0.9999999455234126  1.0000
  Se  Se1       1.0  0.2455715891577255  0.24557157990214257  0.7544284031225907  1.0000
  Se  Se2       1.0  0.7544284266579682  0.7544284503404717  0.24557155665080693  1.0000
  Se  Se3       1.0  0.7544284697527609  0.24557155082534518  0.2455715493441003  1.0000
  Se  Se4       1.0  0.2455715239184675  0.7544284940645846  0.7544284500563195  1.0000
  Se  Se5       1.0  0.24557156825661675  0.7544284315036822  0.245571562142785  1.0000
  Se  Se6       1.0  0.7544284960333948  0.24557153099509813  0.7544284506184942  1.0000
