data_image0
_chemical_formula_structural       Sr2PO6
_chemical_formula_sum              "Sr2 P1 O6"
_cell_length_a       5.4732870857944205
_cell_length_b       5.473286623014769
_cell_length_c       5.473287203726484
_cell_angle_alpha    60.00000076676042
_cell_angle_beta     60.00000115045282
_cell_angle_gamma    60.00000221008474

_space_group_name_H-M_alt    "P 1"
_space_group_IT_number       1

loop_
  _space_group_symop_operation_xyz
  'x, y, z'

loop_
  _atom_site_type_symbol
  _atom_site_label
  _atom_site_symmetry_multiplicity
  _atom_site_fract_x
  _atom_site_fract_y
  _atom_site_fract_z
  _atom_site_occupancy
  Sr  Sr1       1.0  0.2500000351906402  0.24999999963967223  0.24999998105524557  1.0000
  Sr  Sr2       1.0  0.7500000261930483  0.7499999206003133  0.7500000457662436  1.0000
  P   P1        1.0  0.9999999868298883  2.6852128289634766e-08  5.345182695759068e-08  1.0000
  O   O1        1.0  0.22430876132586458  0.22430872407512514  0.7756912615456077  1.0000
  O   O2        1.0  0.7756912894214858  0.7756913483269108  0.22430874384353108  1.0000
  O   O3        1.0  0.775691205051566  0.22430873161170717  0.2243087865173615  1.0000
  O   O4        1.0  0.2243086604039693  0.775691358691737  0.7756912313118108  1.0000
  O   O5        1.0  0.2243087099864454  0.7756912105331925  0.22430873887148348  1.0000
  O   O6        1.0  0.7756912664131996  0.224308667190922  0.7756913133317932  1.0000
