data_image0
_chemical_formula_structural       Sr2RuSe6
_chemical_formula_sum              "Sr2 Ru1 Se6"
_cell_length_a       6.757121408348773
_cell_length_b       6.7571213821246605
_cell_length_c       6.7571214602110246
_cell_angle_alpha    60.0000006607013
_cell_angle_beta     59.999999768953586
_cell_angle_gamma    60.00000160515751

_space_group_name_H-M_alt    "P 1"
_space_group_IT_number       1

loop_
  _space_group_symop_operation_xyz
  'x, y, z'

loop_
  _atom_site_type_symbol
  _atom_site_label
  _atom_site_symmetry_multiplicity
  _atom_site_fract_x
  _atom_site_fract_y
  _atom_site_fract_z
  _atom_site_occupancy
  Sr  Sr1       1.0  0.2500000271257836  0.24999998193262044  0.24999999154924166  1.0000
  Sr  Sr2       1.0  0.7499999931886584  0.7500000001735977  0.7500000270722863  1.0000
  Ru  Ru1       1.0  3.3158476570593797e-08  2.3562820790756895e-08  3.971567701546133e-08  1.0000
  Se  Se1       1.0  0.25833716687919916  0.25833714784484035  0.7416628002900413  1.0000
  Se  Se2       1.0  0.7416628396428822  0.7416628705118677  0.25833709758833334  1.0000
  Se  Se3       1.0  0.7416628213296443  0.2583371634310563  0.25833714345452047  1.0000
  Se  Se4       1.0  0.25833708958189605  0.7416628803009954  0.7416628620575388  1.0000
  Se  Se5       1.0  0.2583371430599306  0.7416628220649447  0.25833718215733437  1.0000
  Se  Se6       1.0  0.7416628937745516  0.25833710022796286  0.7416628521911479  1.0000
