data_image0
_chemical_formula_structural       Sr2RhO6
_chemical_formula_sum              "Sr2 Rh1 O6"
_cell_length_a       5.704249584471223
_cell_length_b       5.704249592386982
_cell_length_c       5.704249802716181
_cell_angle_alpha    59.99999880556378
_cell_angle_beta     59.99999653323931
_cell_angle_gamma    59.99999845556727

_space_group_name_H-M_alt    "P 1"
_space_group_IT_number       1

loop_
  _space_group_symop_operation_xyz
  'x, y, z'

loop_
  _atom_site_type_symbol
  _atom_site_label
  _atom_site_symmetry_multiplicity
  _atom_site_fract_x
  _atom_site_fract_y
  _atom_site_fract_z
  _atom_site_occupancy
  Sr  Sr1       1.0  0.25000000265682776  0.24999999888962193  0.24999999137156562  1.0000
  Sr  Sr2       1.0  0.7499999954774814  0.7499999794922705  0.750000073097283  1.0000
  Rh  Rh1       1.0  0.9999996578049605  5.711218185469325e-07  0.9999998837835374  1.0000
  O   O1        1.0  0.23993282804339816  0.2399329656449447  0.7600671110057885  1.0000
  O   O2        1.0  0.7600669882318384  0.7600670664138107  0.2399329754802741  1.0000
  O   O3        1.0  0.7600672052774452  0.23993278073943147  0.23993278239856025  1.0000
  O   O4        1.0  0.23993311296358807  0.7600669356993673  0.7600668585457141  1.0000
  O   O5        1.0  0.23993308992326642  0.7600669119003509  0.2399331303566753  1.0000
  O   O6        1.0  0.7600671599622912  0.23993281527382618  0.7600672020614749  1.0000
