data_image0
_chemical_formula_structural       Sr2RuO6
_chemical_formula_sum              "Sr2 Ru1 O6"
_cell_length_a       5.641158370531761
_cell_length_b       5.641158181837538
_cell_length_c       5.641158102542203
_cell_angle_alpha    60.00000317672469
_cell_angle_beta     60.000004176802825
_cell_angle_gamma    60.00000131619564

_space_group_name_H-M_alt    "P 1"
_space_group_IT_number       1

loop_
  _space_group_symop_operation_xyz
  'x, y, z'

loop_
  _atom_site_type_symbol
  _atom_site_label
  _atom_site_symmetry_multiplicity
  _atom_site_fract_x
  _atom_site_fract_y
  _atom_site_fract_z
  _atom_site_occupancy
  Sr  Sr1       1.0  0.2499999636791596  0.25000002213005834  0.24999994955390925  1.0000
  Sr  Sr2       1.0  0.7500000123237868  0.7500000034286395  0.7500000322216205  1.0000
  Ru  Ru1       1.0  4.5404756440638064e-08  0.9999999804602081  0.9999998168896961  1.0000
  O   O1        1.0  0.23558770831475662  0.23558763038560163  0.7644122900307304  1.0000
  O   O2        1.0  0.7644122208786479  0.7644123452380828  0.23558776670735954  1.0000
  O   O3        1.0  0.7644123738014826  0.23558757460831667  0.23558764037929453  1.0000
  O   O4        1.0  0.23558760916878596  0.7644124791745212  0.7644123982533018  1.0000
  O   O5        1.0  0.2355875961169061  0.7644124029915221  0.23558762077337234  1.0000
  O   O6        1.0  0.7644124621566829  0.23558756611890083  0.7644124668609121  1.0000
