data_image0
_chemical_formula_structural       Sr2SbTe6
_chemical_formula_sum              "Sr2 Sb1 Te6"
_cell_length_a       7.61163729095278
_cell_length_b       7.6116372079071555
_cell_length_c       7.611637135748483
_cell_angle_alpha    60.00000089463466
_cell_angle_beta     59.99999926637356
_cell_angle_gamma    59.99999956851532

_space_group_name_H-M_alt    "P 1"
_space_group_IT_number       1

loop_
  _space_group_symop_operation_xyz
  'x, y, z'

loop_
  _atom_site_type_symbol
  _atom_site_label
  _atom_site_symmetry_multiplicity
  _atom_site_fract_x
  _atom_site_fract_y
  _atom_site_fract_z
  _atom_site_occupancy
  Sr  Sr1       1.0  0.2500000522154514  0.24999998009362487  0.24999997993448514  1.0000
  Sr  Sr2       1.0  0.7500000238374149  0.7499999837250264  0.7500000265267409  1.0000
  Sb  Sb1       1.0  0.9999999920468091  1.9308511626219277e-08  1.2715229180024096e-08  1.0000
  Te  Te1       1.0  0.271018349930384  0.2710184493768787  0.7289815847592889  1.0000
  Te  Te2       1.0  0.7289815792160411  0.728981554667838  0.27101838045012405  1.0000
  Te  Te3       1.0  0.7289815339056435  0.27101844205043274  0.2710183968115115  1.0000
  Te  Te4       1.0  0.271018416263437  0.7289816263559887  0.7289815690603891  1.0000
  Te  Te5       1.0  0.27101844209481385  0.728981577458517  0.2710184042317423  1.0000
  Te  Te6       1.0  0.7289816136242114  0.27101836544258073  0.7289816425618482  1.0000
