data_image0
_chemical_formula_structural       Sr2SbO6
_chemical_formula_sum              "Sr2 Sb1 O6"
_cell_length_a       5.777555548454334
_cell_length_b       5.7775561262428266
_cell_length_c       5.777555549714532
_cell_angle_alpha    59.999999856930096
_cell_angle_beta     59.99999857809108
_cell_angle_gamma    59.99999899503184

_space_group_name_H-M_alt    "P 1"
_space_group_IT_number       1

loop_
  _space_group_symop_operation_xyz
  'x, y, z'

loop_
  _atom_site_type_symbol
  _atom_site_label
  _atom_site_symmetry_multiplicity
  _atom_site_fract_x
  _atom_site_fract_y
  _atom_site_fract_z
  _atom_site_occupancy
  Sr  Sr1       1.0  0.24999998681863342  0.24999999339252618  0.249999987757935  1.0000
  Sr  Sr2       1.0  0.7500000064444331  0.749999944140431  0.7499999946456649  1.0000
  Sb  Sb1       1.0  5.676776337599457e-08  2.7557807951299933e-08  1.7246085259986565e-07  1.0000
  O   O1        1.0  0.24196990405749913  0.24197003598081707  0.7580300748010992  1.0000
  O   O2        1.0  0.7580299699547527  0.7580299715065971  0.2419700516783492  1.0000
  O   O3        1.0  0.7580301056906313  0.2419699397717093  0.24196977399373348  1.0000
  O   O4        1.0  0.2419699456945863  0.7580299193274643  0.758030104330521  1.0000
  O   O5        1.0  0.24196995082585107  0.7580300639067736  0.2419699510658897  1.0000
  O   O6        1.0  0.7580300320977594  0.24197006653090103  0.7580299296700596  1.0000
