data_image0
_chemical_formula_structural       Sr2SbS6
_chemical_formula_sum              "Sr2 Sb1 S6"
_cell_length_a       6.738286777117627
_cell_length_b       6.738287096153165
_cell_length_c       6.7382870648963324
_cell_angle_alpha    60.00000094200222
_cell_angle_beta     59.999999827658996
_cell_angle_gamma    60.00000198180427

_space_group_name_H-M_alt    "P 1"
_space_group_IT_number       1

loop_
  _space_group_symop_operation_xyz
  'x, y, z'

loop_
  _atom_site_type_symbol
  _atom_site_label
  _atom_site_symmetry_multiplicity
  _atom_site_fract_x
  _atom_site_fract_y
  _atom_site_fract_z
  _atom_site_occupancy
  Sr  Sr1       1.0  0.24999996705095018  0.2500000004731328  0.25000000486757884  1.0000
  Sr  Sr2       1.0  0.7500000014795828  0.7499999523444483  0.7500000053014698  1.0000
  Sb  Sb1       1.0  2.8612152113696558e-08  2.72638622282583e-08  5.22010545373589e-08  1.0000
  S   S1        1.0  0.25769016508808834  0.2576901456297629  0.7423098671585985  1.0000
  S   S2        1.0  0.7423097941465923  0.7423098453572248  0.2576901849678275  1.0000
  S   S3        1.0  0.7423098216022292  0.25769019783000285  0.25769019375357155  1.0000
  S   S4        1.0  0.25769024289220677  0.7423097549875791  0.7423097580451293  1.0000
  S   S5        1.0  0.2576901912176524  0.7423098147250652  0.2576901750984335  1.0000
  S   S6        1.0  0.7423097732083981  0.2576902635062794  0.7423097298942747  1.0000
