data_image0
_chemical_formula_structural       Sr2TlSe6
_chemical_formula_sum              "Sr2 Tl1 Se6"
_cell_length_a       7.001892806261423
_cell_length_b       7.001892876163458
_cell_length_c       7.0018922627001405
_cell_angle_alpha    60.00000523112266
_cell_angle_beta     60.00000094722273
_cell_angle_gamma    60.00000369977518

_space_group_name_H-M_alt    "P 1"
_space_group_IT_number       1

loop_
  _space_group_symop_operation_xyz
  'x, y, z'

loop_
  _atom_site_type_symbol
  _atom_site_label
  _atom_site_symmetry_multiplicity
  _atom_site_fract_x
  _atom_site_fract_y
  _atom_site_fract_z
  _atom_site_occupancy
  Sr  Sr1       1.0  0.24999996128024998  0.2499999996743625  0.2499999963961512  1.0000
  Sr  Sr2       1.0  0.7500000382755608  0.7500000007722546  0.7500000053566964  1.0000
  Tl  Tl1       1.0  1.1454145156154392e-07  0.999999874060307  3.283463888870335e-08  1.0000
  Se  Se1       1.0  0.27595542033834314  0.27595544040951286  0.7240445735819202  1.0000
  Se  Se2       1.0  0.7240445530800682  0.7240446335019256  0.2759553987944762  1.0000
  Se  Se3       1.0  0.7240444980017434  0.27595543522982363  0.2759555348578166  1.0000
  Se  Se4       1.0  0.27595546332405607  0.7240445809592537  0.7240444424341731  1.0000
  Se  Se5       1.0  0.2759554628799789  0.7240445943513337  0.2759554848185418  1.0000
  Se  Se6       1.0  0.7240444893170256  0.2759554393293692  0.7240445339939646  1.0000
