data_image0
_chemical_formula_structural       Sr2TaSe6
_chemical_formula_sum              "Sr2 Ta1 Se6"
_cell_length_a       6.856822678535347
_cell_length_b       6.856822099579595
_cell_length_c       6.856822712034902
_cell_angle_alpha    60.00000173484499
_cell_angle_beta     59.999998835586545
_cell_angle_gamma    60.00000174940172

_space_group_name_H-M_alt    "P 1"
_space_group_IT_number       1

loop_
  _space_group_symop_operation_xyz
  'x, y, z'

loop_
  _atom_site_type_symbol
  _atom_site_label
  _atom_site_symmetry_multiplicity
  _atom_site_fract_x
  _atom_site_fract_y
  _atom_site_fract_z
  _atom_site_occupancy
  Sr  Sr1       1.0  0.2500000819977861  0.24999997154387812  0.24999997202521768  1.0000
  Sr  Sr2       1.0  0.7499999135765288  0.7500000378773414  0.7500000381620382  1.0000
  Ta  Ta1       1.0  9.126089611138877e-08  0.9999999535595924  5.19682260116779e-08  1.0000
  Se  Se1       1.0  0.26171283006031293  0.26171284087785884  0.7382871584005258  1.0000
  Se  Se2       1.0  0.7382871002109008  0.7382872078390931  0.2617128472895991  1.0000
  Se  Se3       1.0  0.7382870882872791  0.26171280851439804  0.2617128352864725  1.0000
  Se  Se4       1.0  0.2617129537099224  0.7382870919504612  0.7382871244970363  1.0000
  Se  Se5       1.0  0.2617129570075068  0.7382871773376952  0.2617127982697449  1.0000
  Se  Se6       1.0  0.7382869711535527  0.2617129231781803  0.7382871811175957  1.0000
