data_image0
_chemical_formula_structural       Sr2TlS6
_chemical_formula_sum              "Sr2 Tl1 S6"
_cell_length_a       6.689699483152095
_cell_length_b       6.689699526451706
_cell_length_c       6.689699581181893
_cell_angle_alpha    60.00000490406103
_cell_angle_beta     60.00000417252779
_cell_angle_gamma    60.00000522924437

_space_group_name_H-M_alt    "P 1"
_space_group_IT_number       1

loop_
  _space_group_symop_operation_xyz
  'x, y, z'

loop_
  _atom_site_type_symbol
  _atom_site_label
  _atom_site_symmetry_multiplicity
  _atom_site_fract_x
  _atom_site_fract_y
  _atom_site_fract_z
  _atom_site_occupancy
  Sr  Sr1       1.0  0.24999994694085365  0.24999997528180648  0.25000000206768797  1.0000
  Sr  Sr2       1.0  0.7500000156449698  0.749999960630475  0.7500000150068322  1.0000
  Tl  Tl1       1.0  1.125606043085069e-07  7.140089727019081e-08  1.2626522983589228e-07  1.0000
  S   S1        1.0  0.2711002457721313  0.2711002853603219  0.7288998097101372  1.0000
  S   S2        1.0  0.7288995558359148  0.7288995535199865  0.271100423069704  1.0000
  S   S3        1.0  0.7288998195866246  0.2711002514243265  0.2711003330465106  1.0000
  S   S4        1.0  0.2711005133960573  0.7288995105627245  0.7288994856382274  1.0000
  S   S5        1.0  0.27110027561114103  0.7288998487685638  0.2711002707814362  1.0000
  S   S6        1.0  0.7288995150208812  0.2711005356877374  0.7288995511942393  1.0000
