data_image0
_chemical_formula_structural       Sr2TaO6
_chemical_formula_sum              "Sr2 Ta1 O6"
_cell_length_a       5.726349141414525
_cell_length_b       5.726348901301966
_cell_length_c       5.726348991840427
_cell_angle_alpha    60.00000072582019
_cell_angle_beta     60.00000051669112
_cell_angle_gamma    59.999997256617846

_space_group_name_H-M_alt    "P 1"
_space_group_IT_number       1

loop_
  _space_group_symop_operation_xyz
  'x, y, z'

loop_
  _atom_site_type_symbol
  _atom_site_label
  _atom_site_symmetry_multiplicity
  _atom_site_fract_x
  _atom_site_fract_y
  _atom_site_fract_z
  _atom_site_occupancy
  Sr  Sr1       1.0  0.25000002395988485  0.2500000142404007  0.24999996759872256  1.0000
  Sr  Sr2       1.0  0.7499999588350713  0.7500000491375716  0.7500000067533636  1.0000
  Ta  Ta1       1.0  0.9999999926854204  1.3688245959812206e-07  0.9999999090213603  1.0000
  O   O1        1.0  0.2418069003212082  0.2418071300387435  0.7581929407418899  1.0000
  O   O2        1.0  0.7581928800545655  0.7581928328161776  0.24180715190135776  1.0000
  O   O3        1.0  0.7581930067392152  0.24180699164431965  0.24180701741231414  1.0000
  O   O4        1.0  0.24180704883390888  0.758192956239075  0.7581929817906023  1.0000
  O   O5        1.0  0.24180709426614172  0.7581928798094881  0.24180707770710014  1.0000
  O   O6        1.0  0.758193088365516  0.24180703171450085  0.7581929617156088  1.0000
