data_image0
_chemical_formula_structural       Sr2TlTe6
_chemical_formula_sum              "Sr2 Tl1 Te6"
_cell_length_a       7.615124781383058
_cell_length_b       7.615125164238895
_cell_length_c       7.615125050745838
_cell_angle_alpha    59.99999866614914
_cell_angle_beta     59.99999694375348
_cell_angle_gamma    59.99999657263366

_space_group_name_H-M_alt    "P 1"
_space_group_IT_number       1

loop_
  _space_group_symop_operation_xyz
  'x, y, z'

loop_
  _atom_site_type_symbol
  _atom_site_label
  _atom_site_symmetry_multiplicity
  _atom_site_fract_x
  _atom_site_fract_y
  _atom_site_fract_z
  _atom_site_occupancy
  Sr  Sr1       1.0  0.25000010968878794  0.250000008737568  0.24999991468153882  1.0000
  Sr  Sr2       1.0  0.7499999030263166  0.7499999441891291  0.7500000768669993  1.0000
  Tl  Tl1       1.0  0.9999999592431793  0.9999999903501668  6.591178586048358e-08  1.0000
  Te  Te1       1.0  0.2791540628307818  0.2791539747819089  0.7208459719491874  1.0000
  Te  Te2       1.0  0.7208460078856768  0.7208460907261828  0.2791539054181002  1.0000
  Te  Te3       1.0  0.7208458753953884  0.2791540025541116  0.2791540634695299  1.0000
  Te  Te4       1.0  0.27915407182600677  0.7208459921885341  0.720845997697636  1.0000
  Te  Te5       1.0  0.2791541035544925  0.7208459949711862  0.2791538969127791  1.0000
  Te  Te6       1.0  0.7208459032477083  0.2791540029880689  0.7208461144712133  1.0000
