data_image0
_chemical_formula_structural       Sr2TaTe6
_chemical_formula_sum              "Sr2 Ta1 Te6"
_cell_length_a       7.47361488525775
_cell_length_b       7.47361493655453
_cell_length_c       7.47361497176564
_cell_angle_alpha    59.99999982619053
_cell_angle_beta     60.0000018286861
_cell_angle_gamma    60.00000210153476

_space_group_name_H-M_alt    "P 1"
_space_group_IT_number       1

loop_
  _space_group_symop_operation_xyz
  'x, y, z'

loop_
  _atom_site_type_symbol
  _atom_site_label
  _atom_site_symmetry_multiplicity
  _atom_site_fract_x
  _atom_site_fract_y
  _atom_site_fract_z
  _atom_site_occupancy
  Sr  Sr1       1.0  0.2500000490918883  0.24999995391537852  0.25000000988205545  1.0000
  Sr  Sr2       1.0  0.7499999913340585  0.7499999912080405  0.7499999799981077  1.0000
  Ta  Ta1       1.0  1.2844978456537259e-08  0.9999999475597342  0.9999999863466298  1.0000
  Te  Te1       1.0  0.2621018301516825  0.2621018031725807  0.7378982008272426  1.0000
  Te  Te2       1.0  0.7378982106785563  0.7378982288050291  0.26210177352253095  1.0000
  Te  Te3       1.0  0.7378981734508552  0.2621017885366485  0.2621018042100372  1.0000
  Te  Te4       1.0  0.2621017560269795  0.7378982762161257  0.7378982080903138  1.0000
  Te  Te5       1.0  0.2621017757164523  0.7378982409590378  0.26210177955330405  1.0000
  Te  Te6       1.0  0.7378981970545542  0.26210176807595414  0.7378982563538804  1.0000
