data_image0
_chemical_formula_structural       Ta2AsO6
_chemical_formula_sum              "Ta2 As1 O6"
_cell_length_a       4.848399478003698
_cell_length_b       4.84839948703085
_cell_length_c       4.8483994601842015
_cell_angle_alpha    59.99999996751226
_cell_angle_beta     60.000000245216654
_cell_angle_gamma    59.99999974261522

_space_group_name_H-M_alt    "P 1"
_space_group_IT_number       1

loop_
  _space_group_symop_operation_xyz
  'x, y, z'

loop_
  _atom_site_type_symbol
  _atom_site_label
  _atom_site_symmetry_multiplicity
  _atom_site_fract_x
  _atom_site_fract_y
  _atom_site_fract_z
  _atom_site_occupancy
  Ta  Ta1       1.0  0.24999999453206742  0.24999999780315726  0.2500000077646041  1.0000
  Ta  Ta2       1.0  0.7500000081098782  0.7499999984616332  0.7499999940731396  1.0000
  As  As1       1.0  1.1210500967167663e-08  0.9999999949478385  0.9999999659827854  1.0000
  O   O1        1.0  0.2612143914689409  0.26121439297370624  0.7387856075590253  1.0000
  O   O2        1.0  0.738785596041307  0.738785605817165  0.26121440264406326  1.0000
  O   O3        1.0  0.7387856143028418  0.26121438439730604  0.26121438729259927  1.0000
  O   O4        1.0  0.261214384273438  0.7387856169196461  0.7387856243645781  1.0000
  O   O5        1.0  0.26121438937324054  0.7387856284146285  0.2612143765241404  1.0000
  O   O6        1.0  0.7387856169009638  0.26121438553272736  0.7387856249688728  1.0000
