data_image0
_chemical_formula_structural       Ta2AsS6
_chemical_formula_sum              "Ta2 As1 S6"
_cell_length_a       6.2004456780082275
_cell_length_b       6.200446037316536
_cell_length_c       6.2004460497624185
_cell_angle_alpha    60.000003314663175
_cell_angle_beta     60.0000003991829
_cell_angle_gamma    59.999998791430514

_space_group_name_H-M_alt    "P 1"
_space_group_IT_number       1

loop_
  _space_group_symop_operation_xyz
  'x, y, z'

loop_
  _atom_site_type_symbol
  _atom_site_label
  _atom_site_symmetry_multiplicity
  _atom_site_fract_x
  _atom_site_fract_y
  _atom_site_fract_z
  _atom_site_occupancy
  Ta  Ta1       1.0  0.2499971732654773  0.25000069993126656  0.25000138799741484  1.0000
  Ta  Ta2       1.0  0.7500018710757578  0.7500001423177384  0.7499969931111587  1.0000
  As  As1       1.0  8.875616733682156e-09  1.856737555958557e-07  0.9999996801606856  1.0000
  S   S1        1.0  0.26406925356925276  0.26406948359345733  0.7359304010412716  1.0000
  S   S2        1.0  0.7359311823911495  0.7359301280730576  0.2640699881083762  1.0000
  S   S3        1.0  0.7359314555268551  0.26406845045802335  0.264070082611207  1.0000
  S   S4        1.0  0.2640690170889923  0.7359304757957823  0.7359310179859829  1.0000
  S   S5        1.0  0.2640684395483658  0.7359308056521772  0.2640704713990547  1.0000
  S   S6        1.0  0.7359316011421516  0.26406961191750317  0.7359300043484486  1.0000
