data_image0
_chemical_formula_structural       Ta2AsN6
_chemical_formula_sum              "Ta2 As1 N6"
_cell_length_a       4.749760409357015
_cell_length_b       4.749760316316141
_cell_length_c       4.749760335321076
_cell_angle_alpha    60.00000003258541
_cell_angle_beta     59.99999841005542
_cell_angle_gamma    59.99999920234833

_space_group_name_H-M_alt    "P 1"
_space_group_IT_number       1

loop_
  _space_group_symop_operation_xyz
  'x, y, z'

loop_
  _atom_site_type_symbol
  _atom_site_label
  _atom_site_symmetry_multiplicity
  _atom_site_fract_x
  _atom_site_fract_y
  _atom_site_fract_z
  _atom_site_occupancy
  Ta  Ta1       1.0  0.2500001223735634  0.24999986665212115  0.25000004442052304  1.0000
  Ta  Ta2       1.0  0.7499999404738377  0.7499999609520166  0.7500001892462392  1.0000
  As  As1       1.0  0.9999999952600261  3.609956474231474e-08  0.9999999380020782  1.0000
  N   N1        1.0  0.27424475339054927  0.27424479330502344  0.7257552046668323  1.0000
  N   N2        1.0  0.7257551903300276  0.7257552895746093  0.2742447588101356  1.0000
  N   N3        1.0  0.7257552602308922  0.2742448234562633  0.27424467728940827  1.0000
  N   N4        1.0  0.2742447361390395  0.7257552181667231  0.7257552468052945  1.0000
  N   N5        1.0  0.274244728705482  0.7257552910862674  0.2742447254062392  1.0000
  N   N6        1.0  0.7257552363301611  0.274244778900663  0.7257551959628975  1.0000
