data_image0
_chemical_formula_structural       Ta2BeSe6
_chemical_formula_sum              "Ta2 Be1 Se6"
_cell_length_a       6.191091967259457
_cell_length_b       6.191091952859479
_cell_length_c       6.191091976533147
_cell_angle_alpha    60.00000041727774
_cell_angle_beta     60.00000038126191
_cell_angle_gamma    60.00000101545751

_space_group_name_H-M_alt    "P 1"
_space_group_IT_number       1

loop_
  _space_group_symop_operation_xyz
  'x, y, z'

loop_
  _atom_site_type_symbol
  _atom_site_label
  _atom_site_symmetry_multiplicity
  _atom_site_fract_x
  _atom_site_fract_y
  _atom_site_fract_z
  _atom_site_occupancy
  Ta  Ta1       1.0  0.25000002821212725  0.2500000991094002  0.24999994330624442  1.0000
  Ta  Ta2       1.0  0.7500000281049444  0.7499999689408197  0.750000166133072  1.0000
  Be  Be1       1.0  0.9999999846460624  0.9999999901088136  0.9999999948550985  1.0000
  Se  Se1       1.0  0.23600117148385769  0.23600114699984212  0.7639988059062155  1.0000
  Se  Se2       1.0  0.7639988026007741  0.7639988320297004  0.23600118241099402  1.0000
  Se  Se3       1.0  0.7639988312765553  0.2360012019155605  0.236001144213098  1.0000
  Se  Se4       1.0  0.2360011069186287  0.7639988008528286  0.7639988453337404  1.0000
  Se  Se5       1.0  0.23600119604225608  0.7639988063705866  0.23600114713167786  1.0000
  Se  Se6       1.0  0.7639988374055733  0.23600115683305833  0.7639987790362831  1.0000
