data_image0
_chemical_formula_structural       Ta2BS6
_chemical_formula_sum              "Ta2 B1 S6"
_cell_length_a       6.192731592304842
_cell_length_b       6.857999748897259
_cell_length_c       9.538344883047632
_cell_angle_alpha    46.839924293725524
_cell_angle_beta     48.13196907991523
_cell_angle_gamma    56.428341177542755

_space_group_name_H-M_alt    "P 1"
_space_group_IT_number       1

loop_
  _space_group_symop_operation_xyz
  'x, y, z'

loop_
  _atom_site_type_symbol
  _atom_site_label
  _atom_site_symmetry_multiplicity
  _atom_site_fract_x
  _atom_site_fract_y
  _atom_site_fract_z
  _atom_site_occupancy
  Ta  Ta1       1.0  0.2752189777185869  0.21642364991251334  0.4844517702770003  1.0000
  Ta  Ta2       1.0  0.7049170928099466  0.9606045787823347  0.8495008317897533  1.0000
  B   B1        1.0  0.8937650291489165  0.889127843519464  0.16985320206865834  1.0000
  S   S1        1.0  0.47660206342749184  0.08175089637060177  0.672436120709596  1.0000
  S   S2        1.0  0.786951028176979  0.7039444127721053  0.1580113108441145  1.0000
  S   S3        1.0  0.6999503104772316  0.21892825657271717  0.15061400842169237  1.0000
  S   S4        1.0  0.16795115773209016  0.8172086548222834  0.6220256915687731  1.0000
  S   S5        1.0  0.22707756389659062  0.7316832964395488  0.20032724249260722  1.0000
  S   S6        1.0  0.7675757723914431  0.38032798284558617  0.6927696876359493  1.0000
