data_image0
_chemical_formula_structural       Ta2BeO6
_chemical_formula_sum              "Ta2 Be1 O6"
_cell_length_a       4.70695156483589
_cell_length_b       4.706951594796562
_cell_length_c       4.706951694907291
_cell_angle_alpha    59.999999318763656
_cell_angle_beta     59.99999851113493
_cell_angle_gamma    59.999999002897326

_space_group_name_H-M_alt    "P 1"
_space_group_IT_number       1

loop_
  _space_group_symop_operation_xyz
  'x, y, z'

loop_
  _atom_site_type_symbol
  _atom_site_label
  _atom_site_symmetry_multiplicity
  _atom_site_fract_x
  _atom_site_fract_y
  _atom_site_fract_z
  _atom_site_occupancy
  Ta  Ta1       1.0  0.2499999178387457  0.25000000126142385  0.25000005269427483  1.0000
  Ta  Ta2       1.0  0.7500000187574382  0.7499999881723204  0.7500001628637499  1.0000
  Be  Be1       1.0  9.838257020479817e-09  0.9999999557661418  2.3571352285989358e-08  1.0000
  O   O1        1.0  0.25469315509141144  0.2546932408258606  0.7453067808148316  1.0000
  O   O2        1.0  0.7453067536269172  0.7453067954437332  0.2546931830692313  1.0000
  O   O3        1.0  0.7453067665200387  0.2546931957425391  0.2546932227118195  1.0000
  O   O4        1.0  0.2546932180980998  0.7453068483330292  0.7453067056929028  1.0000
  O   O5        1.0  0.2546933509848244  0.7453067378596852  0.2546930915256052  1.0000
  O   O6        1.0  0.745306817375355  0.2546932333601155  0.7453067835604968  1.0000
