data_image0
_chemical_formula_structural       Ta2BO6
_chemical_formula_sum              "Ta2 B1 O6"
_cell_length_a       4.643086416348809
_cell_length_b       4.6430863210389965
_cell_length_c       4.643086452855204
_cell_angle_alpha    59.99999967876732
_cell_angle_beta     59.999999099668585
_cell_angle_gamma    59.999999710892816

_space_group_name_H-M_alt    "P 1"
_space_group_IT_number       1

loop_
  _space_group_symop_operation_xyz
  'x, y, z'

loop_
  _atom_site_type_symbol
  _atom_site_label
  _atom_site_symmetry_multiplicity
  _atom_site_fract_x
  _atom_site_fract_y
  _atom_site_fract_z
  _atom_site_occupancy
  Ta  Ta1       1.0  0.25000002176473585  0.25000008143832997  0.2500000374289777  1.0000
  Ta  Ta2       1.0  0.7500000138016403  0.7499999884501487  0.7499999450584091  1.0000
  B   B1        1.0  0.9999999865352598  1.055112702392975e-08  0.9999999734581896  1.0000
  O   O1        1.0  0.23269233489476313  0.23269233859552396  0.767307688445498  1.0000
  O   O2        1.0  0.7673076596007545  0.7673076679861901  0.23269231607834343  1.0000
  O   O3        1.0  0.7673076179908225  0.2326923409025745  0.23269232390569927  1.0000
  O   O4        1.0  0.23269235399740026  0.7673076287501938  0.767307703875043  1.0000
  O   O5        1.0  0.23269233104128342  0.7673076184364656  0.2326923186206548  1.0000
  O   O6        1.0  0.7673076715443203  0.23269231164957505  0.767307689953623  1.0000
