data_image0
_chemical_formula_structural       Ta2BeTe6
_chemical_formula_sum              "Ta2 Be1 Te6"
_cell_length_a       6.763749397169391
_cell_length_b       6.763749379282021
_cell_length_c       6.763749332702092
_cell_angle_alpha    60.000000894669434
_cell_angle_beta     60.00000119035429
_cell_angle_gamma    60.000000774288644

_space_group_name_H-M_alt    "P 1"
_space_group_IT_number       1

loop_
  _space_group_symop_operation_xyz
  'x, y, z'

loop_
  _atom_site_type_symbol
  _atom_site_label
  _atom_site_symmetry_multiplicity
  _atom_site_fract_x
  _atom_site_fract_y
  _atom_site_fract_z
  _atom_site_occupancy
  Ta  Ta1       1.0  0.24999991827266316  0.25000007993666495  0.2500000620084142  1.0000
  Ta  Ta2       1.0  0.7499999975526895  0.7500000442491634  0.7499999317969998  1.0000
  Be  Be1       1.0  7.346552125781325e-09  0.9999999728387735  8.428867178605104e-09  1.0000
  Te  Te1       1.0  0.2460601275619805  0.2460600872107342  0.7539398773398598  1.0000
  Te  Te2       1.0  0.7539398695901894  0.7539398903044712  0.246060144702047  1.0000
  Te  Te3       1.0  0.7539399160988544  0.24606009617648264  0.24606013800665327  1.0000
  Te  Te4       1.0  0.24606011819726153  0.7539399030677041  0.7539398516418504  1.0000
  Te  Te5       1.0  0.24606011849243906  0.7539398375314733  0.24606012689300327  1.0000
  Te  Te6       1.0  0.7539399281002174  0.2460600838505304  0.7539398585765732  1.0000
