data_image0
_chemical_formula_structural       Ta2BSe6
_chemical_formula_sum              "Ta2 B1 Se6"
_cell_length_a       6.347445387431977
_cell_length_b       6.347445329427126
_cell_length_c       6.347445391810588
_cell_angle_alpha    60.000000063400726
_cell_angle_beta     59.99999972189378
_cell_angle_gamma    60.000000952788255

_space_group_name_H-M_alt    "P 1"
_space_group_IT_number       1

loop_
  _space_group_symop_operation_xyz
  'x, y, z'

loop_
  _atom_site_type_symbol
  _atom_site_label
  _atom_site_symmetry_multiplicity
  _atom_site_fract_x
  _atom_site_fract_y
  _atom_site_fract_z
  _atom_site_occupancy
  Ta  Ta1       1.0  0.2500000732893253  0.24999998315251726  0.25000011604064715  1.0000
  Ta  Ta2       1.0  0.7499998910764208  0.7500000517214856  0.7499997902496128  1.0000
  B   B1        1.0  0.9999999880194144  0.9999999922819668  5.711241790670375e-08  1.0000
  Se  Se1       1.0  0.24096246426562604  0.2409625275742518  0.7590375103391741  1.0000
  Se  Se2       1.0  0.7590375065696792  0.7590374224013854  0.24096260531267935  1.0000
  Se  Se3       1.0  0.7590374629099336  0.2409625559070748  0.24096248414260024  1.0000
  Se  Se4       1.0  0.2409624826746159  0.7590375735128366  0.7590374614617146  1.0000
  Se  Se5       1.0  0.24096259562888056  0.7590374896919756  0.240962458137688  1.0000
  Se  Se6       1.0  0.7590375223753791  0.2409624062574296  0.7590375148411499  1.0000
