data_image0
_chemical_formula_structural       Ta2BeS6
_chemical_formula_sum              "Ta2 Be1 S6"
_cell_length_a       5.662771005760827
_cell_length_b       5.662771088903573
_cell_length_c       5.6627711853204925
_cell_angle_alpha    59.99999914624058
_cell_angle_beta     60.00000070996994
_cell_angle_gamma    59.99999853108874

_space_group_name_H-M_alt    "P 1"
_space_group_IT_number       1

loop_
  _space_group_symop_operation_xyz
  'x, y, z'

loop_
  _atom_site_type_symbol
  _atom_site_label
  _atom_site_symmetry_multiplicity
  _atom_site_fract_x
  _atom_site_fract_y
  _atom_site_fract_z
  _atom_site_occupancy
  Ta  Ta1       1.0  0.2500001085892288  0.24999986519168008  0.25000012490108137  1.0000
  Ta  Ta2       1.0  0.7499998998128414  0.7500000476005312  0.7499999042946752  1.0000
  Be  Be1       1.0  2.290374213123687e-08  1.0814006938259273e-08  0.9999999213339312  1.0000
  S   S1        1.0  0.24927213209793778  0.2492719802571307  0.7507279562446336  1.0000
  S   S2        1.0  0.7507278099606447  0.7507279541630942  0.24927216417973289  1.0000
  S   S3        1.0  0.7507278772289803  0.2492720245170865  0.2492720106022856  1.0000
  S   S4        1.0  0.2492719340155919  0.7507280331828179  0.7507280058681342  1.0000
  S   S5        1.0  0.24927214900532949  0.7507279732831986  0.24927197026474668  1.0000
  S   S6        1.0  0.7507280391032675  0.24927210388191084  0.7507279539962539  1.0000
