data_image0
_chemical_formula_structural       Ta2BTe6
_chemical_formula_sum              "Ta2 B1 Te6"
_cell_length_a       6.810038389908807
_cell_length_b       6.810038368328931
_cell_length_c       6.81003842444634
_cell_angle_alpha    60.000000655810005
_cell_angle_beta     59.999999114692855
_cell_angle_gamma    60.00000001493187

_space_group_name_H-M_alt    "P 1"
_space_group_IT_number       1

loop_
  _space_group_symop_operation_xyz
  'x, y, z'

loop_
  _atom_site_type_symbol
  _atom_site_label
  _atom_site_symmetry_multiplicity
  _atom_site_fract_x
  _atom_site_fract_y
  _atom_site_fract_z
  _atom_site_occupancy
  Ta  Ta1       1.0  0.25000003521542324  0.249999943051556  0.2500000109384459  1.0000
  Ta  Ta2       1.0  0.750000122619779  0.7499997985811768  0.7499998105417311  1.0000
  B   B1        1.0  3.185462016060517e-09  1.0790643820750242e-08  6.790139242850867e-08  1.0000
  Te  Te1       1.0  0.24627288149323556  0.24627299112730977  0.7537270502134857  1.0000
  Te  Te2       1.0  0.7537270232998289  0.7537270976044392  0.24627308106443668  1.0000
  Te  Te3       1.0  0.7537269624206198  0.24627302308768856  0.2462729424599706  1.0000
  Te  Te4       1.0  0.24627300033093255  0.7537270494580942  0.753727026963323  1.0000
  Te  Te5       1.0  0.24627294447784617  0.7537270805086925  0.24627292462791558  1.0000
  Te  Te6       1.0  0.7537270201573535  0.2462730118199361  0.7537270868252693  1.0000
