data_image0
_chemical_formula_structural       Ta2CuO6
_chemical_formula_sum              "Ta2 Cu1 O6"
_cell_length_a       4.832524804635413
_cell_length_b       4.832524747050075
_cell_length_c       4.832524738341968
_cell_angle_alpha    60.000000492973044
_cell_angle_beta     60.00000007406766
_cell_angle_gamma    60.000001162805354

_space_group_name_H-M_alt    "P 1"
_space_group_IT_number       1

loop_
  _space_group_symop_operation_xyz
  'x, y, z'

loop_
  _atom_site_type_symbol
  _atom_site_label
  _atom_site_symmetry_multiplicity
  _atom_site_fract_x
  _atom_site_fract_y
  _atom_site_fract_z
  _atom_site_occupancy
  Ta  Ta1       1.0  0.2500001727371638  0.2500000008810478  0.24999988863204456  1.0000
  Ta  Ta2       1.0  0.7499997285631638  0.7500000203837864  0.7500001573848754  1.0000
  Cu  Cu1       1.0  0.999999999155207  2.5343789789598747e-09  1.777901237359498e-08  1.0000
  O   O1        1.0  0.2667251865543982  0.2667251332832832  0.733274844671003  1.0000
  O   O2        1.0  0.7332748457797764  0.7332748246220805  0.2667251199145589  1.0000
  O   O3        1.0  0.7332748105849805  0.2667251249541052  0.26672519654353527  1.0000
  O   O4        1.0  0.2667252453536597  0.7332748481575326  0.7332748438249951  1.0000
  O   O5        1.0  0.2667252420426489  0.733274913624286  0.26672502726717345  1.0000
  O   O6        1.0  0.7332747791394062  0.2667251279155804  0.7332749010771971  1.0000
