data_image0
_chemical_formula_structural       Ta2CO6
_chemical_formula_sum              "Ta2 C1 O6"
_cell_length_a       4.689337867302346
_cell_length_b       4.689337862282616
_cell_length_c       4.689337948077814
_cell_angle_alpha    60.00000000173267
_cell_angle_beta     60.00000041455123
_cell_angle_gamma    60.00000044533839

_space_group_name_H-M_alt    "P 1"
_space_group_IT_number       1

loop_
  _space_group_symop_operation_xyz
  'x, y, z'

loop_
  _atom_site_type_symbol
  _atom_site_label
  _atom_site_symmetry_multiplicity
  _atom_site_fract_x
  _atom_site_fract_y
  _atom_site_fract_z
  _atom_site_occupancy
  Ta  Ta1       1.0  0.24999986961143728  0.2500001610575836  0.25000009770063536  1.0000
  Ta  Ta2       1.0  0.7500001249774917  0.7499998876903218  0.7499998700196416  1.0000
  C   C1        1.0  0.9999999803520899  0.9999999111999885  7.341643493405016e-08  1.0000
  O   O1        1.0  0.22931264286844083  0.2293125884167666  0.7706873555376383  1.0000
  O   O2        1.0  0.770687391118819  0.7706874603311389  0.2293126031459592  1.0000
  O   O3        1.0  0.7706874056756182  0.22931258213827851  0.22931261475675252  1.0000
  O   O4        1.0  0.22931260836499304  0.7706873934802059  0.770687418187343  1.0000
  O   O5        1.0  0.2293125738417238  0.7706874440042665  0.22931257473909394  1.0000
  O   O6        1.0  0.7706873875923613  0.22931257862598817  0.7706873927624691  1.0000
