data_image0
_chemical_formula_structural       Ta2CuS6
_chemical_formula_sum              "Ta2 Cu1 S6"
_cell_length_a       5.998344490878972
_cell_length_b       5.9983444979504865
_cell_length_c       5.998344311974032
_cell_angle_alpha    60.00000156922355
_cell_angle_beta     60.0000026596934
_cell_angle_gamma    60.00000215048369

_space_group_name_H-M_alt    "P 1"
_space_group_IT_number       1

loop_
  _space_group_symop_operation_xyz
  'x, y, z'

loop_
  _atom_site_type_symbol
  _atom_site_label
  _atom_site_symmetry_multiplicity
  _atom_site_fract_x
  _atom_site_fract_y
  _atom_site_fract_z
  _atom_site_occupancy
  Ta  Ta1       1.0  0.2500001523827812  0.2499998870177767  0.25000032024931673  1.0000
  Ta  Ta2       1.0  0.7500000854568646  0.7499999387387772  0.7499994406518582  1.0000
  Cu  Cu1       1.0  0.9999999812734389  7.350497204462635e-08  0.9999999509381474  1.0000
  S   S1        1.0  0.26894126149415065  0.2689414038445629  0.7310585714793687  1.0000
  S   S2        1.0  0.7310585276126979  0.7310587690187998  0.2689415019736894  1.0000
  S   S3        1.0  0.7310585512929366  0.2689413657345682  0.26894134631709776  1.0000
  S   S4        1.0  0.26894154234275514  0.7310585519031996  0.7310586941487051  1.0000
  S   S5        1.0  0.2689411408465721  0.7310586704016873  0.2689415803131731  1.0000
  S   S6        1.0  0.7310587304361907  0.2689413656607557  0.7310585854703295  1.0000
