data_image0
_chemical_formula_structural       Ta2CS6
_chemical_formula_sum              "Ta2 C1 S6"
_cell_length_a       5.705833205651949
_cell_length_b       5.7058339212680265
_cell_length_c       5.705832748639236
_cell_angle_alpha    60.000004855062826
_cell_angle_beta     60.00000847312633
_cell_angle_gamma    59.99998916026224

_space_group_name_H-M_alt    "P 1"
_space_group_IT_number       1

loop_
  _space_group_symop_operation_xyz
  'x, y, z'

loop_
  _atom_site_type_symbol
  _atom_site_label
  _atom_site_symmetry_multiplicity
  _atom_site_fract_x
  _atom_site_fract_y
  _atom_site_fract_z
  _atom_site_occupancy
  Ta  Ta1       1.0  0.24999999758750008  0.24999890057535554  0.2500001316128774  1.0000
  Ta  Ta2       1.0  0.7500000024160678  0.7499999815448679  0.749999996195707  1.0000
  C   C1        1.0  1.1022528918017399e-06  1.1676839845631545e-06  0.9999990210123306  1.0000
  S   S1        1.0  0.2676743362563539  0.26767401220999354  0.7323257795245883  1.0000
  S   S2        1.0  0.7323246888505552  0.7323257971890069  0.26767523962619577  1.0000
  S   S3        1.0  0.7323263320383148  0.2676744300276122  0.2676739873610914  1.0000
  S   S4        1.0  0.26767371982354043  0.7323257657373113  0.7323258204826414  1.0000
  S   S5        1.0  0.26767422596773205  0.7323257561476422  0.2676740503688597  1.0000
  S   S6        1.0  0.7323255555576285  0.26767421853006707  0.7323259944237561  1.0000
