data_image0
_chemical_formula_structural       Ta2GaTe6
_chemical_formula_sum              "Ta2 Ga1 Te6"
_cell_length_a       7.044252099601314
_cell_length_b       7.044252058961802
_cell_length_c       7.044252082390723
_cell_angle_alpha    59.9999995441941
_cell_angle_beta     60.00000018054884
_cell_angle_gamma    60.00000031125934

_space_group_name_H-M_alt    "P 1"
_space_group_IT_number       1

loop_
  _space_group_symop_operation_xyz
  'x, y, z'

loop_
  _atom_site_type_symbol
  _atom_site_label
  _atom_site_symmetry_multiplicity
  _atom_site_fract_x
  _atom_site_fract_y
  _atom_site_fract_z
  _atom_site_occupancy
  Ta  Ta1       1.0  0.25000006460942104  0.2499998335547677  0.2499999310371624  1.0000
  Ta  Ta2       1.0  0.7499999410658489  0.750000062246411  0.7500002008620998  1.0000
  Ga  Ga1       1.0  0.9999999724146814  1.3909154437723704e-08  0.999999972767751  1.0000
  Te  Te1       1.0  0.26313723918170534  0.26313719655162643  0.7368627884026119  1.0000
  Te  Te2       1.0  0.7368627537917601  0.7368628209546546  0.26313713851770604  1.0000
  Te  Te3       1.0  0.7368628225891424  0.2631372460204009  0.26313718682144266  1.0000
  Te  Te4       1.0  0.26313721406343327  0.7368627732245244  0.7368627713346888  1.0000
  Te  Te5       1.0  0.2631372496987293  0.7368628517603487  0.2631371801584386  1.0000
  Te  Te6       1.0  0.7368627492349664  0.26313719704152955  0.7368628260861673  1.0000
