data_image0
_chemical_formula_structural       Ta2GaO6
_chemical_formula_sum              "Ta2 Ga1 O6"
_cell_length_a       4.862332565159805
_cell_length_b       4.862332637147134
_cell_length_c       4.862332454912808
_cell_angle_alpha    59.99999993437564
_cell_angle_beta     60.000001001223865
_cell_angle_gamma    59.999998848151684

_space_group_name_H-M_alt    "P 1"
_space_group_IT_number       1

loop_
  _space_group_symop_operation_xyz
  'x, y, z'

loop_
  _atom_site_type_symbol
  _atom_site_label
  _atom_site_symmetry_multiplicity
  _atom_site_fract_x
  _atom_site_fract_y
  _atom_site_fract_z
  _atom_site_occupancy
  Ta  Ta1       1.0  0.2500000039246768  0.24999995063579633  0.2500000891197168  1.0000
  Ta  Ta2       1.0  0.7500000006655565  0.7499999778495051  0.7499999364110522  1.0000
  Ga  Ga1       1.0  4.4544736888343334e-08  3.022610638526614e-08  0.9999999379350646  1.0000
  O   O1        1.0  0.2629408305777459  0.2629408345418553  0.7370591931276483  1.0000
  O   O2        1.0  0.737059081371069  0.7370591367637642  0.26294094780522015  1.0000
  O   O3        1.0  0.73705912207905  0.26294090813156423  0.26294083860817885  1.0000
  O   O4        1.0  0.26294087334533306  0.7370591689654291  0.7370591110297893  1.0000
  O   O5        1.0  0.26294091816067366  0.737059123535986  0.2629408293442662  1.0000
  O   O6        1.0  0.7370590993570701  0.2629409157783737  0.7370591199118344  1.0000
