data_image0
_chemical_formula_structural       Ta2GaS6
_chemical_formula_sum              "Ta2 Ga1 S6"
_cell_length_a       6.222430665265655
_cell_length_b       6.22243063423185
_cell_length_c       6.222430516152546
_cell_angle_alpha    60.00000051326473
_cell_angle_beta     60.0000012240378
_cell_angle_gamma    60.00000033310647

_space_group_name_H-M_alt    "P 1"
_space_group_IT_number       1

loop_
  _space_group_symop_operation_xyz
  'x, y, z'

loop_
  _atom_site_type_symbol
  _atom_site_label
  _atom_site_symmetry_multiplicity
  _atom_site_fract_x
  _atom_site_fract_y
  _atom_site_fract_z
  _atom_site_occupancy
  Ta  Ta1       1.0  0.2499996080309291  0.25000010097503833  0.25000039228945353  1.0000
  Ta  Ta2       1.0  0.7499999096457912  0.7500001749873052  0.7499996357748994  1.0000
  Ga  Ga1       1.0  0.9999999123315233  2.3619288266764153e-08  1.1237904683806213e-07  1.0000
  S   S1        1.0  0.2631455487656806  0.26314538890788597  0.7368545725888946  1.0000
  S   S2        1.0  0.7368546456330917  0.7368544323831536  0.2631456465828301  1.0000
  S   S3        1.0  0.7368545150892235  0.26314558618680767  0.2631453924814538  1.0000
  S   S4        1.0  0.26314558458794457  0.7368545638059971  0.736854412388714  1.0000
  S   S5        1.0  0.2631454496202414  0.7368544392232463  0.2631455031721202  1.0000
  S   S6        1.0  0.7368548024566263  0.26314530924165497  0.7368543185871834  1.0000
