data_image0
_chemical_formula_structural       Ta2GaSe6
_chemical_formula_sum              "Ta2 Ga1 Se6"
_cell_length_a       6.507956068502872
_cell_length_b       6.5079560181497484
_cell_length_c       6.507956064729219
_cell_angle_alpha    60.000000163032304
_cell_angle_beta     60.00000030695969
_cell_angle_gamma    60.000000529357074

_space_group_name_H-M_alt    "P 1"
_space_group_IT_number       1

loop_
  _space_group_symop_operation_xyz
  'x, y, z'

loop_
  _atom_site_type_symbol
  _atom_site_label
  _atom_site_symmetry_multiplicity
  _atom_site_fract_x
  _atom_site_fract_y
  _atom_site_fract_z
  _atom_site_occupancy
  Ta  Ta1       1.0  0.25000007238844724  0.2500001212616433  0.24999977657449385  1.0000
  Ta  Ta2       1.0  0.750000040102436  0.7499999102423548  0.7500001060004445  1.0000
  Ga  Ga1       1.0  2.4231228212328677e-08  0.9999999698892899  4.13542596238043e-08  1.0000
  Se  Se1       1.0  0.262611342448845  0.2626113316730619  0.7373886866256897  1.0000
  Se  Se2       1.0  0.7373886498207922  0.7373886772479028  0.26261129347326084  1.0000
  Se  Se3       1.0  0.7373887067307294  0.26261132426950795  0.2626113368565411  1.0000
  Se  Se4       1.0  0.26261131523756875  0.7373885849097288  0.7373887043858154  1.0000
  Se  Se5       1.0  0.2626113164661918  0.7373886303222366  0.2626113593888231  1.0000
  Se  Se6       1.0  0.7373885334112158  0.26261143317438995  0.7373886999597686  1.0000
