data_image0
_chemical_formula_structural       Ta2IrSe6
_chemical_formula_sum              "Ta2 Ir1 Se6"
_cell_length_a       6.658982854557764
_cell_length_b       6.658982699359361
_cell_length_c       6.658982692554344
_cell_angle_alpha    60.00000000723661
_cell_angle_beta     60.000000070626704
_cell_angle_gamma    59.999998731907944

_space_group_name_H-M_alt    "P 1"
_space_group_IT_number       1

loop_
  _space_group_symop_operation_xyz
  'x, y, z'

loop_
  _atom_site_type_symbol
  _atom_site_label
  _atom_site_symmetry_multiplicity
  _atom_site_fract_x
  _atom_site_fract_y
  _atom_site_fract_z
  _atom_site_occupancy
  Ta  Ta1       1.0  0.25000012409593436  0.24999994111619506  0.2500001106818764  1.0000
  Ta  Ta2       1.0  0.7499999019876047  0.7500001157873059  0.7499998983740211  1.0000
  Ir  Ir1       1.0  0.9999999898060793  0.9999999889645768  0.9999999880887087  1.0000
  Se  Se1       1.0  0.2570536458163896  0.25705350712104524  0.7429463751161866  1.0000
  Se  Se2       1.0  0.7429464134095173  0.7429463879295802  0.25705360218418755  1.0000
  Se  Se3       1.0  0.7429463244389963  0.2570535972142496  0.2570536440496533  1.0000
  Se  Se4       1.0  0.25705360001779753  0.7429465148663688  0.7429463717120187  1.0000
  Se  Se5       1.0  0.25705360849987224  0.7429463389372202  0.25705359020588747  1.0000
  Se  Se6       1.0  0.7429463924505245  0.2570536112905223  0.7429464186783011  1.0000
