data_image0
_chemical_formula_structural       Ta2IrS6
_chemical_formula_sum              "Ta2 Ir1 S6"
_cell_length_a       6.322632390986132
_cell_length_b       6.322632057966904
_cell_length_c       6.322631799424227
_cell_angle_alpha    60.000003570558945
_cell_angle_beta     60.00000528061735
_cell_angle_gamma    60.00000051057852

_space_group_name_H-M_alt    "P 1"
_space_group_IT_number       1

loop_
  _space_group_symop_operation_xyz
  'x, y, z'

loop_
  _atom_site_type_symbol
  _atom_site_label
  _atom_site_symmetry_multiplicity
  _atom_site_fract_x
  _atom_site_fract_y
  _atom_site_fract_z
  _atom_site_occupancy
  Ta  Ta1       1.0  0.25000231677138113  0.24999830339880233  0.24999924119210926  1.0000
  Ta  Ta2       1.0  0.7499976662639597  0.7500027534361902  0.7499956840548565  1.0000
  Ir  Ir1       1.0  0.9999999718490692  7.74832534047971e-09  1.3989413063854494e-07  1.0000
  S   S1        1.0  0.2612254416181249  0.26122344436513806  0.7387759248204787  1.0000
  S   S2        1.0  0.7387749183981344  0.7387761034841062  0.2612261364777672  1.0000
  S   S3        1.0  0.7387750805883155  0.2612232319282642  0.26122586166475426  1.0000
  S   S4        1.0  0.2612256905794093  0.7387755372145262  0.738775651120986  1.0000
  S   S5        1.0  0.2612237857173976  0.7387759824286642  0.2612253047814945  1.0000
  S   S6        1.0  0.7387751285546962  0.2612246153183168  0.7387760228658639  1.0000
