data_image0
_chemical_formula_structural       Ta2MoSe6
_chemical_formula_sum              "Ta2 Mo1 Se6"
_cell_length_a       6.596746411173357
_cell_length_b       6.596746519893138
_cell_length_c       6.596746408658939
_cell_angle_alpha    59.999999014651536
_cell_angle_beta     59.999999974606496
_cell_angle_gamma    59.99999922777043

_space_group_name_H-M_alt    "P 1"
_space_group_IT_number       1

loop_
  _space_group_symop_operation_xyz
  'x, y, z'

loop_
  _atom_site_type_symbol
  _atom_site_label
  _atom_site_symmetry_multiplicity
  _atom_site_fract_x
  _atom_site_fract_y
  _atom_site_fract_z
  _atom_site_occupancy
  Ta  Ta1       1.0  0.24999982223433173  0.25000018848807604  0.2499999530976537  1.0000
  Ta  Ta2       1.0  0.7500001145579124  0.7500000344796821  0.7500003101997802  1.0000
  Mo  Mo1       1.0  0.9999999755124891  0.9999999684379831  0.9999999870954965  1.0000
  Se  Se1       1.0  0.2620121655837747  0.26201219910737467  0.7379877935042276  1.0000
  Se  Se2       1.0  0.7379878360313858  0.7379877453719995  0.26201211276090886  1.0000
  Se  Se3       1.0  0.7379879161507177  0.2620121724311533  0.2620122003886857  1.0000
  Se  Se4       1.0  0.2620121523864942  0.7379877813311666  0.7379876829329401  1.0000
  Se  Se5       1.0  0.2620122919177521  0.7379877728799394  0.2620120992377085  1.0000
  Se  Se6       1.0  0.7379877181491317  0.2620121567467198  0.7379878526730904  1.0000
