data_image0
_chemical_formula_structural       Ta2MgSe6
_chemical_formula_sum              "Ta2 Mg1 Se6"
_cell_length_a       6.333163483492119
_cell_length_b       6.333163526671231
_cell_length_c       6.333163568628387
_cell_angle_alpha    60.0000000732884
_cell_angle_beta     60.000000271091714
_cell_angle_gamma    60.000000166600195

_space_group_name_H-M_alt    "P 1"
_space_group_IT_number       1

loop_
  _space_group_symop_operation_xyz
  'x, y, z'

loop_
  _atom_site_type_symbol
  _atom_site_label
  _atom_site_symmetry_multiplicity
  _atom_site_fract_x
  _atom_site_fract_y
  _atom_site_fract_z
  _atom_site_occupancy
  Ta  Ta1       1.0  0.25000009069524565  0.24999968054083546  0.2500002813995779  1.0000
  Ta  Ta2       1.0  0.7500002573315673  0.7500002618878753  0.7499996935337132  1.0000
  Mg  Mg1       1.0  0.9999999846586985  7.735438149731693e-09  0.9999999848550553  1.0000
  Se  Se1       1.0  0.2664298115145449  0.2664299835482404  0.7335702341924356  1.0000
  Se  Se2       1.0  0.7335700084271305  0.7335701155230931  0.2664299533049352  1.0000
  Se  Se3       1.0  0.7335699801909169  0.2664298014746199  0.2664300199475195  1.0000
  Se  Se4       1.0  0.26642982282636946  0.7335702608533823  0.7335699385873808  1.0000
  Se  Se5       1.0  0.26642990880347683  0.7335700420420956  0.2664298864932514  1.0000
  Se  Se6       1.0  0.7335701261945402  0.2664298385031098  0.7335700058889509  1.0000
