data_image0
_chemical_formula_structural       Ta2MoO6
_chemical_formula_sum              "Ta2 Mo1 O6"
_cell_length_a       5.006427934325067
_cell_length_b       5.006427679123311
_cell_length_c       5.006427813900394
_cell_angle_alpha    60.00000051908541
_cell_angle_beta     60.000000102655974
_cell_angle_gamma    60.00000124209873

_space_group_name_H-M_alt    "P 1"
_space_group_IT_number       1

loop_
  _space_group_symop_operation_xyz
  'x, y, z'

loop_
  _atom_site_type_symbol
  _atom_site_label
  _atom_site_symmetry_multiplicity
  _atom_site_fract_x
  _atom_site_fract_y
  _atom_site_fract_z
  _atom_site_occupancy
  Ta  Ta1       1.0  0.25000012149920825  0.24999985369506347  0.24999993646606147  1.0000
  Ta  Ta2       1.0  0.7499997982254158  0.7499999867491901  0.7500001453607759  1.0000
  Mo  Mo1       1.0  2.8376775372856152e-08  0.9999999633048272  0.9999999841848763  1.0000
  O   O1        1.0  0.2673478863870716  0.2673479907402757  0.7326520221564313  1.0000
  O   O2        1.0  0.7326520616862058  0.7326520967848092  0.26734789998391223  1.0000
  O   O3        1.0  0.7326520441336448  0.26734789076025356  0.2673479696152316  1.0000
  O   O4        1.0  0.26734805220718344  0.7326520010572476  0.7326521000859203  1.0000
  O   O5        1.0  0.26734800897071626  0.7326522027888878  0.26734786454308535  1.0000
  O   O6        1.0  0.7326520120210476  0.267348011946134  0.732652087366139  1.0000
