data_image0
_chemical_formula_structural       Ta2MgO6
_chemical_formula_sum              "Ta2 Mg1 O6"
_cell_length_a       4.841962205759963
_cell_length_b       4.8419621025071
_cell_length_c       4.8419622714760004
_cell_angle_alpha    59.99999953047323
_cell_angle_beta     59.99999968205378
_cell_angle_gamma    59.999999755193805

_space_group_name_H-M_alt    "P 1"
_space_group_IT_number       1

loop_
  _space_group_symop_operation_xyz
  'x, y, z'

loop_
  _atom_site_type_symbol
  _atom_site_label
  _atom_site_symmetry_multiplicity
  _atom_site_fract_x
  _atom_site_fract_y
  _atom_site_fract_z
  _atom_site_occupancy
  Ta  Ta1       1.0  0.2499998480220266  0.24999992649526093  0.250000013964416  1.0000
  Ta  Ta2       1.0  0.7500000130944184  0.7499999034283072  0.7499998982384175  1.0000
  Mg  Mg1       1.0  0.999999978127834  0.9999999797644861  0.9999999921399425  1.0000
  O   O1        1.0  0.2632108505789805  0.26321096605510547  0.7367891239802343  1.0000
  O   O2        1.0  0.736789117294395  0.7367891016357511  0.26321093814391844  1.0000
  O   O3        1.0  0.7367891505539381  0.26321094875202855  0.2632108642152504  1.0000
  O   O4        1.0  0.2632109830512346  0.7367890152318213  0.7367892040715176  1.0000
  O   O5        1.0  0.26321085341898426  0.7367892090858571  0.2632109568827545  1.0000
  O   O6        1.0  0.7367892106638413  0.2632108990760274  0.7367890534233866  1.0000
