data_image0
_chemical_formula_structural       Ta2NiSe6
_chemical_formula_sum              "Ta2 Ni1 Se6"
_cell_length_a       6.417098241153352
_cell_length_b       6.417098171059349
_cell_length_c       6.417098225747323
_cell_angle_alpha    59.9999994061326
_cell_angle_beta     59.999999361660265
_cell_angle_gamma    59.999999729934736

_space_group_name_H-M_alt    "P 1"
_space_group_IT_number       1

loop_
  _space_group_symop_operation_xyz
  'x, y, z'

loop_
  _atom_site_type_symbol
  _atom_site_label
  _atom_site_symmetry_multiplicity
  _atom_site_fract_x
  _atom_site_fract_y
  _atom_site_fract_z
  _atom_site_occupancy
  Ta  Ta1       1.0  0.2499999669518397  0.24999972544632143  0.2500002511411486  1.0000
  Ta  Ta2       1.0  0.7500002092249014  0.7500003997291125  0.7499997335347858  1.0000
  Ni  Ni1       1.0  1.5358944601535225e-08  0.9999999809143504  4.9800259949707805e-09  1.0000
  Se  Se1       1.0  0.2574227963203995  0.2574227277989806  0.7425771088161317  1.0000
  Se  Se2       1.0  0.7425772168583786  0.7425772007942607  0.25742286085778765  1.0000
  Se  Se3       1.0  0.7425773060870476  0.2574226915541301  0.2574228672897248  1.0000
  Se  Se4       1.0  0.2574226216274038  0.7425773152902747  0.7425771122241235  1.0000
  Se  Se5       1.0  0.25742277195611896  0.7425772527074793  0.25742281163298203  1.0000
  Se  Se6       1.0  0.7425771058301266  0.2574226987885411  0.7425772392192029  1.0000
