data_image0
_chemical_formula_structural       Ta2NO6
_chemical_formula_sum              "Ta2 N1 O6"
_cell_length_a       4.776031197099674
_cell_length_b       4.776031165201883
_cell_length_c       4.776031164446269
_cell_angle_alpha    59.999999907861906
_cell_angle_beta     60.000000104353425
_cell_angle_gamma    60.000000274550196

_space_group_name_H-M_alt    "P 1"
_space_group_IT_number       1

loop_
  _space_group_symop_operation_xyz
  'x, y, z'

loop_
  _atom_site_type_symbol
  _atom_site_label
  _atom_site_symmetry_multiplicity
  _atom_site_fract_x
  _atom_site_fract_y
  _atom_site_fract_z
  _atom_site_occupancy
  Ta  Ta1       1.0  0.25000015340212045  0.250000113999941  0.24999943200511707  1.0000
  Ta  Ta2       1.0  0.7500001241045217  0.7499999214452802  0.7500004477825574  1.0000
  N   N1        1.0  4.2188161254673487e-07  1.1206239896296991e-06  0.9999995155962472  1.0000
  O   O1        1.0  0.24081575111905482  0.24081582561898676  0.759184187269445  1.0000
  O   O2        1.0  0.7591833707656278  0.7591834046181463  0.24081666246431133  1.0000
  O   O3        1.0  0.7591839072486456  0.2408160820881191  0.240815999614584  1.0000
  O   O4        1.0  0.24081632637924688  0.759183591782772  0.7591837143928224  1.0000
  O   O5        1.0  0.2408161572462663  0.7591838254728417  0.24081621658559826  1.0000
  O   O6        1.0  0.7591837771441154  0.24081611509117054  0.7591838403250372  1.0000
