data_image0
_chemical_formula_structural       Ta2NiTe6
_chemical_formula_sum              "Ta2 Ni1 Te6"
_cell_length_a       6.832359939180692
_cell_length_b       6.832359919802723
_cell_length_c       6.832359862576757
_cell_angle_alpha    59.99999989746632
_cell_angle_beta     59.99999974818248
_cell_angle_gamma    60.00000031696142

_space_group_name_H-M_alt    "P 1"
_space_group_IT_number       1

loop_
  _space_group_symop_operation_xyz
  'x, y, z'

loop_
  _atom_site_type_symbol
  _atom_site_label
  _atom_site_symmetry_multiplicity
  _atom_site_fract_x
  _atom_site_fract_y
  _atom_site_fract_z
  _atom_site_occupancy
  Ta  Ta1       1.0  0.24999991905849397  0.24999993770922413  0.25000012368789654  1.0000
  Ta  Ta2       1.0  0.7500000436250299  0.7500000945603668  0.7499998368430093  1.0000
  Ni  Ni1       1.0  2.5948217538640022e-08  0.9999999982074351  3.329449090993566e-08  1.0000
  Te  Te1       1.0  0.25623986765159157  0.256239866005518  0.7437601571985241  1.0000
  Te  Te2       1.0  0.7437601672616921  0.7437600712581321  0.25623990839235306  1.0000
  Te  Te3       1.0  0.7437601251692755  0.2562398259856173  0.2562399159077434  1.0000
  Te  Te4       1.0  0.25623986416250627  0.743760197321149  0.7437600577347926  1.0000
  Te  Te5       1.0  0.25623986724740644  0.7437601211916176  0.25623985717993275  1.0000
  Te  Te6       1.0  0.7437601179193132  0.2562398841894995  0.7437601114081044  1.0000
