data_image0
_chemical_formula_structural       Ta2NiO6
_chemical_formula_sum              "Ta2 Ni1 O6"
_cell_length_a       4.908378105717649
_cell_length_b       4.908378121382957
_cell_length_c       4.908378131410542
_cell_angle_alpha    60.00000009746496
_cell_angle_beta     59.9999996173023
_cell_angle_gamma    60.00000007096991

_space_group_name_H-M_alt    "P 1"
_space_group_IT_number       1

loop_
  _space_group_symop_operation_xyz
  'x, y, z'

loop_
  _atom_site_type_symbol
  _atom_site_label
  _atom_site_symmetry_multiplicity
  _atom_site_fract_x
  _atom_site_fract_y
  _atom_site_fract_z
  _atom_site_occupancy
  Ta  Ta1       1.0  0.25000005439721695  0.25000014100332674  0.2499998114106588  1.0000
  Ta  Ta2       1.0  0.7500002718638749  0.7500001111083616  0.7499998862679231  1.0000
  Ni  Ni1       1.0  6.890342017378578e-10  4.9904257847626974e-09  0.9999999482642816  1.0000
  O   O1        1.0  0.2524218884993632  0.2524220808692846  0.7475779864207571  1.0000
  O   O2        1.0  0.7475780887872903  0.7475778842929134  0.25242190086781974  1.0000
  O   O3        1.0  0.747577947685305  0.25242182838006766  0.25242215991438094  1.0000
  O   O4        1.0  0.2524219559642395  0.7475779271842424  0.7475781195836347  1.0000
  O   O5        1.0  0.25242189081650546  0.7475780481311767  0.25242208802431637  1.0000
  O   O6        1.0  0.7475778961778125  0.25242194447836436  0.7475781210920331  1.0000
