data_image0
_chemical_formula_structural       Ta2PS6
_chemical_formula_sum              "Ta2 P1 S6"
_cell_length_a       5.882764484471355
_cell_length_b       5.882764226606798
_cell_length_c       5.882764805190843
_cell_angle_alpha    60.000000819679535
_cell_angle_beta     60.00000021289877
_cell_angle_gamma    60.000004610894926

_space_group_name_H-M_alt    "P 1"
_space_group_IT_number       1

loop_
  _space_group_symop_operation_xyz
  'x, y, z'

loop_
  _atom_site_type_symbol
  _atom_site_label
  _atom_site_symmetry_multiplicity
  _atom_site_fract_x
  _atom_site_fract_y
  _atom_site_fract_z
  _atom_site_occupancy
  Ta  Ta1       1.0  0.24999863306106396  0.25000049203354197  0.25000117436603736  1.0000
  Ta  Ta2       1.0  0.7500007416764759  0.7499994441461877  0.7499986942684074  1.0000
  P   P1        1.0  0.9999999093311085  5.412992847884616e-08  0.999999916276623  1.0000
  S   S1        1.0  0.26148241722022714  0.2614821420566932  0.7385176550183019  1.0000
  S   S2        1.0  0.7385178196693618  0.7385175984225656  0.2614825110462044  1.0000
  S   S3        1.0  0.7385178277567684  0.26148240289260705  0.2614822389593316  1.0000
  S   S4        1.0  0.26148246995735736  0.7385175790894543  0.7385178167386569  1.0000
  S   S5        1.0  0.2614818938376724  0.738517529468548  0.2614829271266355  1.0000
  S   S6        1.0  0.738518285268277  0.2614827023439898  0.738517127555686  1.0000
