data_image0
_chemical_formula_structural       Ta2PO6
_chemical_formula_sum              "Ta2 P1 O6"
_cell_length_a       4.77045304651565
_cell_length_b       4.770453001842493
_cell_length_c       4.770453043451725
_cell_angle_alpha    59.99999983019072
_cell_angle_beta     60.000000114178206
_cell_angle_gamma    59.99999905816987

_space_group_name_H-M_alt    "P 1"
_space_group_IT_number       1

loop_
  _space_group_symop_operation_xyz
  'x, y, z'

loop_
  _atom_site_type_symbol
  _atom_site_label
  _atom_site_symmetry_multiplicity
  _atom_site_fract_x
  _atom_site_fract_y
  _atom_site_fract_z
  _atom_site_occupancy
  Ta  Ta1       1.0  0.24999997974139107  0.25000002269924626  0.2499999925290814  1.0000
  Ta  Ta2       1.0  0.7500000101787663  0.7499999859423621  0.7499999643215033  1.0000
  P   P1        1.0  1.2127822293827096e-08  0.9999999563549563  3.881721726638391e-08  1.0000
  O   O1        1.0  0.24724455459382155  0.24724456784313414  0.7527554321647331  1.0000
  O   O2        1.0  0.7527554250569137  0.7527554716067405  0.24724456682235377  1.0000
  O   O3        1.0  0.7527554592320416  0.24724453778602365  0.2472445569055721  1.0000
  O   O4        1.0  0.24724452812076023  0.7527554785576513  0.7527554497835813  1.0000
  O   O5        1.0  0.24724454136071933  0.7527554446792035  0.2472445645894059  1.0000
  O   O6        1.0  0.7527554843052013  0.24724455112562704  0.7527554227314254  1.0000
