data_image0
_chemical_formula_structural       Ta2RhS6
_chemical_formula_sum              "Ta2 Rh1 S6"
_cell_length_a       6.212129717458467
_cell_length_b       6.212129950845211
_cell_length_c       6.212129894093484
_cell_angle_alpha    60.00000013501837
_cell_angle_beta     60.00000015609821
_cell_angle_gamma    60.00000177980388

_space_group_name_H-M_alt    "P 1"
_space_group_IT_number       1

loop_
  _space_group_symop_operation_xyz
  'x, y, z'

loop_
  _atom_site_type_symbol
  _atom_site_label
  _atom_site_symmetry_multiplicity
  _atom_site_fract_x
  _atom_site_fract_y
  _atom_site_fract_z
  _atom_site_occupancy
  Ta  Ta1       1.0  0.2500001676559017  0.2500006507959733  0.24999980066388003  1.0000
  Ta  Ta2       1.0  0.7500005263536385  0.7499991330889635  0.7500009094114168  1.0000
  Rh  Rh1       1.0  3.049112702349435e-08  2.5629991032517336e-08  0.9999999461833796  1.0000
  S   S1        1.0  0.26744068176661645  0.2674410895999573  0.7325590994389078  1.0000
  S   S2        1.0  0.732559005806342  0.7325591930840212  0.2674405621642873  1.0000
  S   S3        1.0  0.7325589226043228  0.2674411478792514  0.2674405490497931  1.0000
  S   S4        1.0  0.267440666040774  0.7325590914308959  0.7325591659969555  1.0000
  S   S5        1.0  0.26744086274597656  0.7325587925946375  0.2674408230077781  1.0000
  S   S6        1.0  0.7325591012512681  0.267440900599562  0.7325590997621666  1.0000
