data_image0
_chemical_formula_structural       Ta2RuO6
_chemical_formula_sum              "Ta2 Ru1 O6"
_cell_length_a       4.9371353689768585
_cell_length_b       4.937135284857155
_cell_length_c       4.93713534373396
_cell_angle_alpha    59.999999291262775
_cell_angle_beta     59.99999844894869
_cell_angle_gamma    59.99999898986266

_space_group_name_H-M_alt    "P 1"
_space_group_IT_number       1

loop_
  _space_group_symop_operation_xyz
  'x, y, z'

loop_
  _atom_site_type_symbol
  _atom_site_label
  _atom_site_symmetry_multiplicity
  _atom_site_fract_x
  _atom_site_fract_y
  _atom_site_fract_z
  _atom_site_occupancy
  Ta  Ta1       1.0  0.2500000546571866  0.25000006534119984  0.249999891218593  1.0000
  Ta  Ta2       1.0  0.7500000605007462  0.7499999802045098  0.7500000419237352  1.0000
  Ru  Ru1       1.0  4.7627369151082185e-08  0.9999999553477744  3.902174861008584e-08  1.0000
  O   O1        1.0  0.26778194905225583  0.2677820466375246  0.7322179831033352  1.0000
  O   O2        1.0  0.7322180037835883  0.7322179666593553  0.2677819663058125  1.0000
  O   O3        1.0  0.7322180010431678  0.2677819758884716  0.26778204422127055  1.0000
  O   O4        1.0  0.26778204303047975  0.732217995236862  0.7322179819280499  1.0000
  O   O5        1.0  0.2677819707637303  0.7322180186792766  0.26778202264571094  1.0000
  O   O6        1.0  0.7322178898898833  0.2677820045403205  0.7322180529627688  1.0000
