data_image0
_chemical_formula_structural       Ta2RuSe6
_chemical_formula_sum              "Ta2 Ru1 Se6"
_cell_length_a       6.597609724768954
_cell_length_b       6.597609717302805
_cell_length_c       6.59760977091175
_cell_angle_alpha    59.99999909889061
_cell_angle_beta     59.999999321136784
_cell_angle_gamma    60.000000764150194

_space_group_name_H-M_alt    "P 1"
_space_group_IT_number       1

loop_
  _space_group_symop_operation_xyz
  'x, y, z'

loop_
  _atom_site_type_symbol
  _atom_site_label
  _atom_site_symmetry_multiplicity
  _atom_site_fract_x
  _atom_site_fract_y
  _atom_site_fract_z
  _atom_site_occupancy
  Ta  Ta1       1.0  0.24999987916836935  0.250000049681505  0.24999985233956543  1.0000
  Ta  Ta2       1.0  0.7500000141883119  0.7499998223275557  0.750000656685297  1.0000
  Ru  Ru1       1.0  0.9999999693096573  1.856346300017427e-08  2.5767545517074317e-08  1.0000
  Se  Se1       1.0  0.25867872845120266  0.2586789396658049  0.741321183396383  1.0000
  Se  Se2       1.0  0.7413212343969464  0.7413211124088566  0.2586786445878843  1.0000
  Se  Se3       1.0  0.741321259194402  0.2586789464987416  0.25867868069887684  1.0000
  Se  Se4       1.0  0.2586788179280709  0.7413211092886139  0.7413211458884976  1.0000
  Se  Se5       1.0  0.25867899777500986  0.7413212325946161  0.25867863888821435  1.0000
  Se  Se6       1.0  0.7413210965671956  0.258678776784081  0.741321170463914  1.0000
