data_image0
_chemical_formula_structural       Ta2SO6
_chemical_formula_sum              "Ta2 S1 O6"
_cell_length_a       4.881465644141303
_cell_length_b       4.881465547121503
_cell_length_c       4.881465417059117
_cell_angle_alpha    59.99999721245708
_cell_angle_beta     59.99999741820659
_cell_angle_gamma    59.99999853094774

_space_group_name_H-M_alt    "P 1"
_space_group_IT_number       1

loop_
  _space_group_symop_operation_xyz
  'x, y, z'

loop_
  _atom_site_type_symbol
  _atom_site_label
  _atom_site_symmetry_multiplicity
  _atom_site_fract_x
  _atom_site_fract_y
  _atom_site_fract_z
  _atom_site_occupancy
  Ta  Ta1       1.0  0.24999970123098622  0.24999987749460012  0.2500000835499676  1.0000
  Ta  Ta2       1.0  0.7499991194353605  0.7499998407282645  0.7500008925284439  1.0000
  S   S1        1.0  8.659292970268142e-07  1.9820861860102783e-07  0.9999991975204081  1.0000
  O   O1        1.0  0.24068402612184964  0.24068394958916547  0.7593159350724641  1.0000
  O   O2        1.0  0.7593156736460679  0.7593155654071702  0.24068437529797845  1.0000
  O   O3        1.0  0.7593157206641747  0.24068461268892424  0.24068409370112984  1.0000
  O   O4        1.0  0.24068434057469057  0.7593159184401285  0.7593157921323469  1.0000
  O   O5        1.0  0.24068446778835165  0.7593157362357937  0.2406840146880039  1.0000
  O   O6        1.0  0.7593160708306884  0.24068436335048496  0.7593155573305164  1.0000
