data_image0
_chemical_formula_structural       Te2AsN6
_chemical_formula_sum              "Te2 As1 N6"
_cell_length_a       5.295298231998449
_cell_length_b       5.295298710430275
_cell_length_c       5.295298577555036
_cell_angle_alpha    59.99999860325858
_cell_angle_beta     59.99999726666853
_cell_angle_gamma    60.000000318626284

_space_group_name_H-M_alt    "P 1"
_space_group_IT_number       1

loop_
  _space_group_symop_operation_xyz
  'x, y, z'

loop_
  _atom_site_type_symbol
  _atom_site_label
  _atom_site_symmetry_multiplicity
  _atom_site_fract_x
  _atom_site_fract_y
  _atom_site_fract_z
  _atom_site_occupancy
  Te  Te1       1.0  0.24999986449676492  0.24999985616492876  0.2500004443157187  1.0000
  Te  Te2       1.0  0.7499999632196046  0.7499999246800096  0.7500005526385337  1.0000
  As  As1       1.0  0.9999999806390193  0.9999999861226534  4.4946178598620876e-08  1.0000
  N   N1        1.0  0.2543699286480201  0.2543699735334561  0.7456299571159616  1.0000
  N   N2        1.0  0.7456300675877959  0.7456300802326477  0.25436963127183504  1.0000
  N   N3        1.0  0.7456300481725474  0.25437010860102904  0.2543697501846511  1.0000
  N   N4        1.0  0.2543698386318152  0.7456301949572995  0.745629903992426  1.0000
  N   N5        1.0  0.2543700784276317  0.7456300467023114  0.2543698184149447  1.0000
  N   N6        1.0  0.7456302370396835  0.25436984747430896  0.7456298808870768  1.0000
