data_image0
_chemical_formula_structural       Te2BiN6
_chemical_formula_sum              "Te2 Bi1 N6"
_cell_length_a       5.5722174429283475
_cell_length_b       5.572217471596603
_cell_length_c       5.572217528920751
_cell_angle_alpha    60.00000020269015
_cell_angle_beta     60.00000070885926
_cell_angle_gamma    60.00000079716491

_space_group_name_H-M_alt    "P 1"
_space_group_IT_number       1

loop_
  _space_group_symop_operation_xyz
  'x, y, z'

loop_
  _atom_site_type_symbol
  _atom_site_label
  _atom_site_symmetry_multiplicity
  _atom_site_fract_x
  _atom_site_fract_y
  _atom_site_fract_z
  _atom_site_occupancy
  Te  Te1       1.0  0.2500001033450235  0.250000102642013  0.2499998367241467  1.0000
  Te  Te2       1.0  0.7500001991073739  0.749999677114735  0.7500000102544083  1.0000
  Bi  Bi1       1.0  2.8760039021521986e-08  1.3187692999163902e-08  3.107004653851698e-08  1.0000
  N   N1        1.0  0.26395305616085496  0.2639533088472597  0.7360468283836877  1.0000
  N   N2        1.0  0.7360468053159915  0.736046811591549  0.26395322487334666  1.0000
  N   N3        1.0  0.7360467728004196  0.26395324957549693  0.263953138834875  1.0000
  N   N4        1.0  0.2639531467855813  0.7360467214027939  0.7360468613938693  1.0000
  N   N5        1.0  0.2639531524049768  0.7360467866104998  0.26395319963735986  1.0000
  N   N6        1.0  0.7360467372249612  0.2639533426201043  0.7360468548880253  1.0000
