data_image0
_chemical_formula_structural       Te2SbN6
_chemical_formula_sum              "Te2 Sb1 N6"
_cell_length_a       5.404549657935493
_cell_length_b       5.404549767677275
_cell_length_c       5.404549883482978
_cell_angle_alpha    60.000001035806314
_cell_angle_beta     60.00000047638204
_cell_angle_gamma    60.000001513483774

_space_group_name_H-M_alt    "P 1"
_space_group_IT_number       1

loop_
  _space_group_symop_operation_xyz
  'x, y, z'

loop_
  _atom_site_type_symbol
  _atom_site_label
  _atom_site_symmetry_multiplicity
  _atom_site_fract_x
  _atom_site_fract_y
  _atom_site_fract_z
  _atom_site_occupancy
  Te  Te1       1.0  0.2500000263742056  0.24999997421386874  0.2499999432783903  1.0000
  Te  Te2       1.0  0.7499999761134557  0.7500000586098032  0.7499995265602618  1.0000
  Sb  Sb1       1.0  0.9999999998703974  6.7984099500068556e-09  0.9999999874141321  1.0000
  N   N1        1.0  0.2658259708068829  0.26582591791684584  0.7341740677799297  1.0000
  N   N2        1.0  0.7341740569748644  0.7341740582534192  0.2658262022625505  1.0000
  N   N3        1.0  0.7341740051122315  0.26582590894524566  0.2658260384486569  1.0000
  N   N4        1.0  0.2658260596163717  0.7341740717572908  0.7341740480284892  1.0000
  N   N5        1.0  0.2658258629527781  0.7341740521840159  0.2658260948706771  1.0000
  N   N6        1.0  0.7341740329673864  0.26582596704284356  0.7341740882035036  1.0000
