data_image0
_chemical_formula_structural       Te2YN6
_chemical_formula_sum              "Te2 Y1 N6"
_cell_length_a       5.834822515552732
_cell_length_b       5.834813667875462
_cell_length_c       5.8348242172736136
_cell_angle_alpha    60.000002919287695
_cell_angle_beta     60.000046831134675
_cell_angle_gamma    60.00000517629317

_space_group_name_H-M_alt    "P 1"
_space_group_IT_number       1

loop_
  _space_group_symop_operation_xyz
  'x, y, z'

loop_
  _atom_site_type_symbol
  _atom_site_label
  _atom_site_symmetry_multiplicity
  _atom_site_fract_x
  _atom_site_fract_y
  _atom_site_fract_z
  _atom_site_occupancy
  Te  Te1       1.0  0.25000062166818443  0.2499986961872929  0.2500009041593429  1.0000
  Te  Te2       1.0  0.7500000795210845  0.7499996758033854  0.7500002794201144  1.0000
  Y   Y1        1.0  7.02430441152181e-07  0.9999981717452552  1.4352600585973016e-06  1.0000
  N   N1        1.0  0.34859131304168456  0.3485926043348658  0.6514135316467224  1.0000
  N   N2        1.0  0.6514289575129861  0.6514065002236245  0.3485807127253973  1.0000
  N   N3        1.0  0.651416879000267  0.34858748360671665  0.34858933957488836  1.0000
  N   N4        1.0  0.3485841654659894  0.6514012559406319  0.6514293424409869  1.0000
  N   N5        1.0  0.34857540407540455  0.6514185985360985  0.34857773987618373  1.0000
  N   N6        1.0  0.6514018730337406  0.34859698128911887  0.6514067380310937  1.0000
