data_image0
_chemical_formula_structural       Ti2AsS6
_chemical_formula_sum              "Ti2 As1 S6"
_cell_length_a       6.201044206424957
_cell_length_b       6.201044712469764
_cell_length_c       6.201044040480639
_cell_angle_alpha    60.000001403054725
_cell_angle_beta     60.000000329612874
_cell_angle_gamma    60.00000223750602

_space_group_name_H-M_alt    "P 1"
_space_group_IT_number       1

loop_
  _space_group_symop_operation_xyz
  'x, y, z'

loop_
  _atom_site_type_symbol
  _atom_site_label
  _atom_site_symmetry_multiplicity
  _atom_site_fract_x
  _atom_site_fract_y
  _atom_site_fract_z
  _atom_site_occupancy
  Ti  Ti1       1.0  0.25000013120219244  0.24999943314979087  0.24999990621341722  1.0000
  Ti  Ti2       1.0  0.7499998349381021  0.7500004502919622  0.7500005432479887  1.0000
  As  As1       1.0  0.9999999578686601  0.9999999308728257  8.949452345465358e-08  1.0000
  S   S1        1.0  0.26221443636512987  0.2622142388366639  0.7377857020507719  1.0000
  S   S2        1.0  0.7377855838310736  0.7377857394080842  0.26221404889272437  1.0000
  S   S3        1.0  0.7377857759693294  0.2622144088563324  0.2622143529489587  1.0000
  S   S4        1.0  0.2622143714824624  0.7377859920517008  0.7377853197761569  1.0000
  S   S5        1.0  0.26221445448773617  0.7377857677827782  0.2622142654895714  1.0000
  S   S6        1.0  0.7377854783799287  0.26221407023255594  0.7377858104876523  1.0000
