data_image0
_chemical_formula_structural       Ti2AsN6
_chemical_formula_sum              "Ti2 As1 N6"
_cell_length_a       4.819522291937683
_cell_length_b       4.819522424258217
_cell_length_c       4.81952239928445
_cell_angle_alpha    59.99999986858285
_cell_angle_beta     59.99999874768491
_cell_angle_gamma    60.00000063478704

_space_group_name_H-M_alt    "P 1"
_space_group_IT_number       1

loop_
  _space_group_symop_operation_xyz
  'x, y, z'

loop_
  _atom_site_type_symbol
  _atom_site_label
  _atom_site_symmetry_multiplicity
  _atom_site_fract_x
  _atom_site_fract_y
  _atom_site_fract_z
  _atom_site_occupancy
  Ti  Ti1       1.0  0.2499999865528454  0.25000005126186226  0.24999996302155736  1.0000
  Ti  Ti2       1.0  0.7500000112095317  0.7499999631943691  0.750000068554186  1.0000
  As  As1       1.0  1.4533466302179715e-10  0.9999999923763514  0.9999999580914803  1.0000
  N   N1        1.0  0.27097803238080753  0.2709779990620154  0.729021945403048  1.0000
  N   N2        1.0  0.7290219733208223  0.7290219340752965  0.2709780274173867  1.0000
  N   N3        1.0  0.7290220265472395  0.2709779865179631  0.2709779608846415  1.0000
  N   N4        1.0  0.270978021408255  0.7290219923612412  0.72902201773538  1.0000
  N   N5        1.0  0.2709779772875819  0.7290220743603242  0.2709779983517009  1.0000
  N   N6        1.0  0.729021974396639  0.2709779273898258  0.7290220667659504  1.0000
