data_image0
_chemical_formula_structural       Ti2AsSe6
_chemical_formula_sum              "Ti2 As1 Se6"
_cell_length_a       6.295076384858406
_cell_length_b       6.295076501749331
_cell_length_c       6.295076438531466
_cell_angle_alpha    60.00000197116135
_cell_angle_beta     60.0000001258827
_cell_angle_gamma    60.000001885339586

_space_group_name_H-M_alt    "P 1"
_space_group_IT_number       1

loop_
  _space_group_symop_operation_xyz
  'x, y, z'

loop_
  _atom_site_type_symbol
  _atom_site_label
  _atom_site_symmetry_multiplicity
  _atom_site_fract_x
  _atom_site_fract_y
  _atom_site_fract_z
  _atom_site_occupancy
  Ti  Ti1       1.0  0.2499995828540476  0.2500002466497852  0.25000018136756136  1.0000
  Ti  Ti2       1.0  0.7500001661427802  0.7499992496504707  0.7499997973100642  1.0000
  As  As1       1.0  1.1523910879799982e-08  3.696563821673062e-08  0.9999999821093982  1.0000
  Se  Se1       1.0  0.2865677472867884  0.28656796223733777  0.7134321451386095  1.0000
  Se  Se2       1.0  0.7134323126396388  0.7134321585876574  0.2865679789894774  1.0000
  Se  Se3       1.0  0.7134322649871467  0.286567939965943  0.28656771040699747  1.0000
  Se  Se4       1.0  0.2865678150783075  0.7134322470080867  0.7134322482592437  1.0000
  Se  Se5       1.0  0.28656782008419196  0.713432204715003  0.2865677822156854  1.0000
  Se  Se6       1.0  0.7134322729516613  0.2865679433478286  0.7134321767126105  1.0000
