data_image0
_chemical_formula_structural       Ti2BO6
_chemical_formula_sum              "Ti2 B1 O6"
_cell_length_a       4.50117975133275
_cell_length_b       4.501179916571266
_cell_length_c       4.501179687699711
_cell_angle_alpha    60.000002887967575
_cell_angle_beta     60.000003885492674
_cell_angle_gamma    60.00000517609679

_space_group_name_H-M_alt    "P 1"
_space_group_IT_number       1

loop_
  _space_group_symop_operation_xyz
  'x, y, z'

loop_
  _atom_site_type_symbol
  _atom_site_label
  _atom_site_symmetry_multiplicity
  _atom_site_fract_x
  _atom_site_fract_y
  _atom_site_fract_z
  _atom_site_occupancy
  Ti  Ti1       1.0  0.2500002575227375  0.24999974308497366  0.24999998313891583  1.0000
  Ti  Ti2       1.0  0.7499998414157751  0.7500001679797866  0.7500001988974563  1.0000
  B   B1        1.0  0.9999999882359508  0.9999999891162328  1.1323907784282628e-08  1.0000
  O   O1        1.0  0.24293896995208544  0.2429390355610941  0.7570609573677372  1.0000
  O   O2        1.0  0.7570610100209288  0.7570609707366226  0.24293891217549096  1.0000
  O   O3        1.0  0.7570608132008801  0.2429390089911849  0.2429390338045581  1.0000
  O   O4        1.0  0.24293910476410988  0.7570609755389964  0.7570609331674434  1.0000
  O   O5        1.0  0.24293900050823786  0.7570610812670936  0.24293894651642547  1.0000
  O   O6        1.0  0.7570610467590754  0.24293893863533364  0.7570609603346933  1.0000
