data_image0
_chemical_formula_structural       Ti2BS6
_chemical_formula_sum              "Ti2 B1 S6"
_cell_length_a       5.991867741658788
_cell_length_b       5.991867706829833
_cell_length_c       5.9918673918083964
_cell_angle_alpha    60.00000224617331
_cell_angle_beta     60.00000295592566
_cell_angle_gamma    60.00000223607051

_space_group_name_H-M_alt    "P 1"
_space_group_IT_number       1

loop_
  _space_group_symop_operation_xyz
  'x, y, z'

loop_
  _atom_site_type_symbol
  _atom_site_label
  _atom_site_symmetry_multiplicity
  _atom_site_fract_x
  _atom_site_fract_y
  _atom_site_fract_z
  _atom_site_occupancy
  Ti  Ti1       1.0  0.24999996259357185  0.24999987971235402  0.2500000557213002  1.0000
  Ti  Ti2       1.0  0.7499999620728258  0.7500001562720532  0.7499997028885447  1.0000
  B   B1        1.0  0.9999999808257141  2.8616165271169193e-08  0.9999999585626269  1.0000
  S   S1        1.0  0.2345840475711034  0.23458409258323393  0.7654158555654349  1.0000
  S   S2        1.0  0.7654159490396941  0.7654160108535644  0.23458404863782942  1.0000
  S   S3        1.0  0.7654158880512161  0.2345840125922001  0.2345841723029982  1.0000
  S   S4        1.0  0.23458414700843777  0.7654158598712633  0.765416073495037  1.0000
  S   S5        1.0  0.23458404610595207  0.7654159958240259  0.23458412962447142  1.0000
  S   S6        1.0  0.7654160318544513  0.23458398497206404  0.7654159637861522  1.0000
