data_image0
_chemical_formula_structural       Ti2BSe6
_chemical_formula_sum              "Ti2 B1 Se6"
_cell_length_a       6.2779545247727855
_cell_length_b       6.2779543862767895
_cell_length_c       6.277954502331127
_cell_angle_alpha    59.99999948617303
_cell_angle_beta     60.00000002104847
_cell_angle_gamma    59.999999664325934

_space_group_name_H-M_alt    "P 1"
_space_group_IT_number       1

loop_
  _space_group_symop_operation_xyz
  'x, y, z'

loop_
  _atom_site_type_symbol
  _atom_site_label
  _atom_site_symmetry_multiplicity
  _atom_site_fract_x
  _atom_site_fract_y
  _atom_site_fract_z
  _atom_site_occupancy
  Ti  Ti1       1.0  0.25000005355215543  0.2500000067587824  0.2499999330236505  1.0000
  Ti  Ti2       1.0  0.7499999835263623  0.7500000495393396  0.7500000944142036  1.0000
  B   B1        1.0  2.5087258856305466e-09  0.999999964884409  3.560428426306837e-09  1.0000
  Se  Se1       1.0  0.23784624753699604  0.23784614050362074  0.7621538374667538  1.0000
  Se  Se2       1.0  0.7621538671107371  0.7621537382656803  0.237846208093393  1.0000
  Se  Se3       1.0  0.7621537599396243  0.2378462237331626  0.23784616742893488  1.0000
  Se  Se4       1.0  0.23784608908459726  0.7621538559753526  0.7621538101222036  1.0000
  Se  Se5       1.0  0.23784624643816013  0.762153810332244  0.2378461523597353  1.0000
  Se  Se6       1.0  0.7621537526846114  0.23784621085028657  0.7621538017053774  1.0000
