data_image0
_chemical_formula_structural       Ti2BTe6
_chemical_formula_sum              "Ti2 B1 Te6"
_cell_length_a       6.829642046223403
_cell_length_b       6.82964203589049
_cell_length_c       6.829642078248202
_cell_angle_alpha    59.99999983455852
_cell_angle_beta     59.99999991816687
_cell_angle_gamma    60.000000475195236

_space_group_name_H-M_alt    "P 1"
_space_group_IT_number       1

loop_
  _space_group_symop_operation_xyz
  'x, y, z'

loop_
  _atom_site_type_symbol
  _atom_site_label
  _atom_site_symmetry_multiplicity
  _atom_site_fract_x
  _atom_site_fract_y
  _atom_site_fract_z
  _atom_site_occupancy
  Ti  Ti1       1.0  0.2500001497870115  0.24999994919413207  0.24999999038473014  1.0000
  Ti  Ti2       1.0  0.7500000965135663  0.7499998206832195  0.7499999677523768  1.0000
  B   B1        1.0  0.9999999969438361  0.9999999533747648  5.558901660826333e-08  1.0000
  Te  Te1       1.0  0.24174650520893287  0.24174661010971235  0.7582534369468075  1.0000
  Te  Te2       1.0  0.7582533692123985  0.7582535399426317  0.24174654779074342  1.0000
  Te  Te3       1.0  0.7582534110207292  0.2417466063849447  0.24174651554005852  1.0000
  Te  Te4       1.0  0.2417465357440695  0.758253473729547  0.758253470923096  1.0000
  Te  Te5       1.0  0.24174655663937003  0.7582533642500268  0.24174658709448438  1.0000
  Te  Te6       1.0  0.7582533755243134  0.24174668358545587  0.758253424272938  1.0000
