data_image0
_chemical_formula_structural       Ti2GaS6
_chemical_formula_sum              "Ti2 Ga1 S6"
_cell_length_a       6.144908672949621
_cell_length_b       6.144908494571717
_cell_length_c       6.144908785147563
_cell_angle_alpha    59.99999947142133
_cell_angle_beta     59.99999853069149
_cell_angle_gamma    59.99999921708085

_space_group_name_H-M_alt    "P 1"
_space_group_IT_number       1

loop_
  _space_group_symop_operation_xyz
  'x, y, z'

loop_
  _atom_site_type_symbol
  _atom_site_label
  _atom_site_symmetry_multiplicity
  _atom_site_fract_x
  _atom_site_fract_y
  _atom_site_fract_z
  _atom_site_occupancy
  Ti  Ti1       1.0  0.25000013323648296  0.24999986952645076  0.25000011894644375  1.0000
  Ti  Ti2       1.0  0.7499999473662474  0.7500000410831588  0.7499996214265724  1.0000
  Ga  Ga1       1.0  2.6555177445540004e-08  0.999999954158582  4.0563025439899655e-08  1.0000
  S   S1        1.0  0.2635028352896915  0.26350284758685855  0.7364971092423748  1.0000
  S   S2        1.0  0.7364971889003941  0.7364971307883312  0.26350296231841  1.0000
  S   S3        1.0  0.7364971233374434  0.2635027953159304  0.2635029740963559  1.0000
  S   S4        1.0  0.2635029907440787  0.7364973305490405  0.7364969494812782  1.0000
  S   S5        1.0  0.2635027608114795  0.7364971081938347  0.2635029845600313  1.0000
  S   S6        1.0  0.7364970009274062  0.26350293595382507  0.7364972374157511  1.0000
