data_image0
_chemical_formula_structural       Ti2GaN6
_chemical_formula_sum              "Ti2 Ga1 N6"
_cell_length_a       4.833175141705283
_cell_length_b       4.833175183866352
_cell_length_c       4.833175518960887
_cell_angle_alpha    60.000000558438465
_cell_angle_beta     59.99999946622825
_cell_angle_gamma    59.99999983138201

_space_group_name_H-M_alt    "P 1"
_space_group_IT_number       1

loop_
  _space_group_symop_operation_xyz
  'x, y, z'

loop_
  _atom_site_type_symbol
  _atom_site_label
  _atom_site_symmetry_multiplicity
  _atom_site_fract_x
  _atom_site_fract_y
  _atom_site_fract_z
  _atom_site_occupancy
  Ti  Ti1       1.0  0.2499999236135739  0.24999995023676364  0.25000005175032625  1.0000
  Ti  Ti2       1.0  0.7500000069985463  0.7499999951504457  0.7500000146087898  1.0000
  Ga  Ga1       1.0  4.5132442658342045e-09  0.9999999721255837  0.9999999930592879  1.0000
  N   N1        1.0  0.27180371433953765  0.2718035712299535  0.7281963219773138  1.0000
  N   N2        1.0  0.7281963215385131  0.7281963665551403  0.27180363347890396  1.0000
  N   N3        1.0  0.7281964441311704  0.27180372265971464  0.27180357615749395  1.0000
  N   N4        1.0  0.2718036625010215  0.7281963468953463  0.728196342176699  1.0000
  N   N5        1.0  0.2718035798859368  0.7281964446361768  0.271803683168335  1.0000
  N   N6        1.0  0.7281963356171508  0.2718036249188862  0.7281963741801004  1.0000
