data_image0
_chemical_formula_structural       Ti2GaSe6
_chemical_formula_sum              "Ti2 Ga1 Se6"
_cell_length_a       6.378059329872948
_cell_length_b       6.378059332009237
_cell_length_c       6.378059252900382
_cell_angle_alpha    59.99999942946096
_cell_angle_beta     60.00000058026631
_cell_angle_gamma    59.99999950515473

_space_group_name_H-M_alt    "P 1"
_space_group_IT_number       1

loop_
  _space_group_symop_operation_xyz
  'x, y, z'

loop_
  _atom_site_type_symbol
  _atom_site_label
  _atom_site_symmetry_multiplicity
  _atom_site_fract_x
  _atom_site_fract_y
  _atom_site_fract_z
  _atom_site_occupancy
  Ti  Ti1       1.0  0.250000340311394  0.25000005686448135  0.24999984435803146  1.0000
  Ti  Ti2       1.0  0.7499997094513597  0.7500003357346885  0.7499997377942424  1.0000
  Ga  Ga1       1.0  3.564057639941361e-08  6.144790114055577e-08  0.9999999781096367  1.0000
  Se  Se1       1.0  0.2725109419973756  0.27251081754116674  0.7274891541899493  1.0000
  Se  Se2       1.0  0.7274891059646568  0.727489004744663  0.2725109993726195  1.0000
  Se  Se3       1.0  0.7274889716274873  0.2725107782927445  0.272511072037483  1.0000
  Se  Se4       1.0  0.272511040307979  0.7274890977599991  0.7274890930372871  1.0000
  Se  Se5       1.0  0.2725108661743579  0.7274890147988125  0.272510964886874  1.0000
  Se  Se6       1.0  0.727488996794745  0.2725108247692417  0.7274891659155432  1.0000
