data_image0
_chemical_formula_structural       Ti2GaO6
_chemical_formula_sum              "Ti2 Ga1 O6"
_cell_length_a       4.891878184975371
_cell_length_b       4.891878582798296
_cell_length_c       4.891878209746131
_cell_angle_alpha    60.00000281012439
_cell_angle_beta     60.000002427605914
_cell_angle_gamma    60.00000121177866

_space_group_name_H-M_alt    "P 1"
_space_group_IT_number       1

loop_
  _space_group_symop_operation_xyz
  'x, y, z'

loop_
  _atom_site_type_symbol
  _atom_site_label
  _atom_site_symmetry_multiplicity
  _atom_site_fract_x
  _atom_site_fract_y
  _atom_site_fract_z
  _atom_site_occupancy
  Ti  Ti1       1.0  0.2499999209902894  0.24999973187692956  0.25000055210597266  1.0000
  Ti  Ti2       1.0  0.7499999768216034  0.7500003598182023  0.7500001393959823  1.0000
  Ga  Ga1       1.0  2.3056268469995353e-08  0.9999999874818551  6.996166271634202e-09  1.0000
  O   O1        1.0  0.2632002620366924  0.2632002841487146  0.7367994240181608  1.0000
  O   O2        1.0  0.7367997742805281  0.7367996823649795  0.2632001221998824  1.0000
  O   O3        1.0  0.7367997822701847  0.26320014507898243  0.2632002844528689  1.0000
  O   O4        1.0  0.2632002776514876  0.7367998214347087  0.7367996179197805  1.0000
  O   O5        1.0  0.26320029596622674  0.7367999346951828  0.26320014702347033  1.0000
  O   O6        1.0  0.7367997243760658  0.263200044336654  0.7367996748463832  1.0000
