data_image0
_chemical_formula_structural       Ti2IrS6
_chemical_formula_sum              "Ti2 Ir1 S6"
_cell_length_a       6.065192300511152
_cell_length_b       6.065192979871568
_cell_length_c       6.065192523999696
_cell_angle_alpha    59.99999808120015
_cell_angle_beta     59.99999787365399
_cell_angle_gamma    59.99999808413496

_space_group_name_H-M_alt    "P 1"
_space_group_IT_number       1

loop_
  _space_group_symop_operation_xyz
  'x, y, z'

loop_
  _atom_site_type_symbol
  _atom_site_label
  _atom_site_symmetry_multiplicity
  _atom_site_fract_x
  _atom_site_fract_y
  _atom_site_fract_z
  _atom_site_occupancy
  Ti  Ti1       1.0  0.24999999265896367  0.25000014043607793  0.2499998983540303  1.0000
  Ti  Ti2       1.0  0.749999946275508  0.749999853884715  0.7500000308971112  1.0000
  Ir  Ir1       1.0  0.9999999565587059  0.9999999818262932  5.2241280993068416e-08  1.0000
  S   S1        1.0  0.2690891822135543  0.26908922921481326  0.7309107135749082  1.0000
  S   S2        1.0  0.730910841604019  0.7309107731831784  0.2690892137123937  1.0000
  S   S3        1.0  0.7309108608613798  0.26908923114163885  0.2690892231033536  1.0000
  S   S4        1.0  0.2690892968765505  0.7309108035651537  0.7309107875933477  1.0000
  S   S5        1.0  0.26908921267300057  0.7309107604262857  0.2690892060461383  1.0000
  S   S6        1.0  0.7309107519151422  0.2690892197593955  0.7309108411021447  1.0000
