data_image0
_chemical_formula_structural       Ti2MoS6
_chemical_formula_sum              "Ti2 Mo1 S6"
_cell_length_a       6.05820643727075
_cell_length_b       6.0582057397479145
_cell_length_c       6.058205379139455
_cell_angle_alpha    59.99999654538333
_cell_angle_beta     59.9999983071473
_cell_angle_gamma    60.00000395776865

_space_group_name_H-M_alt    "P 1"
_space_group_IT_number       1

loop_
  _space_group_symop_operation_xyz
  'x, y, z'

loop_
  _atom_site_type_symbol
  _atom_site_label
  _atom_site_symmetry_multiplicity
  _atom_site_fract_x
  _atom_site_fract_y
  _atom_site_fract_z
  _atom_site_occupancy
  Ti  Ti1       1.0  0.2499996929817426  0.24999989621846547  0.2500003874406251  1.0000
  Ti  Ti2       1.0  0.7500011377041383  0.749999807931751  0.7499996144223526  1.0000
  Mo  Mo1       1.0  1.2300880078460636e-07  0.9999997796423673  6.353030264823796e-08  1.0000
  S   S1        1.0  0.2701888493925817  0.2701895965233377  0.729810465291529  1.0000
  S   S2        1.0  0.7298107412960754  0.7298108313702433  0.27018910142380415  1.0000
  S   S3        1.0  0.7298109264340477  0.2701889942146974  0.27018941115987527  1.0000
  S   S4        1.0  0.2701889035005401  0.7298106816326215  0.7298108576321788  1.0000
  S   S5        1.0  0.27018898234683303  0.7298108748204771  0.27018956225526686  1.0000
  S   S6        1.0  0.729810592324045  0.27018952679189717  0.7298105785785991  1.0000
