data_image0
_chemical_formula_structural       Ti2MoSe6
_chemical_formula_sum              "Ti2 Mo1 Se6"
_cell_length_a       6.399980323842188
_cell_length_b       6.399980329788374
_cell_length_c       6.39998082276333
_cell_angle_alpha    59.99999953968969
_cell_angle_beta     59.99999839965879
_cell_angle_gamma    59.999998008980434

_space_group_name_H-M_alt    "P 1"
_space_group_IT_number       1

loop_
  _space_group_symop_operation_xyz
  'x, y, z'

loop_
  _atom_site_type_symbol
  _atom_site_label
  _atom_site_symmetry_multiplicity
  _atom_site_fract_x
  _atom_site_fract_y
  _atom_site_fract_z
  _atom_site_occupancy
  Ti  Ti1       1.0  0.25000024810393956  0.24999981571093355  0.2500000064824504  1.0000
  Ti  Ti2       1.0  0.7500005009001843  0.750000826888703  0.7499995075254058  1.0000
  Mo  Mo1       1.0  0.9999999444880203  9.568350904334236e-09  8.078448738391748e-08  1.0000
  Se  Se1       1.0  0.2701751967415196  0.27017496053629925  0.7298247209393867  1.0000
  Se  Se2       1.0  0.7298245809612407  0.7298251156171003  0.2701753322540656  1.0000
  Se  Se3       1.0  0.7298246449254047  0.2701751432754549  0.27017518115754285  1.0000
  Se  Se4       1.0  0.2701748706614856  0.729824517611611  0.7298252029144794  1.0000
  Se  Se5       1.0  0.2701750308345658  0.7298248624613777  0.27017522152624435  1.0000
  Se  Se6       1.0  0.729824941749739  0.27017480225301593  0.7298247336953154  1.0000
