data_image0
_chemical_formula_structural       Ti2MoO6
_chemical_formula_sum              "Ti2 Mo1 O6"
_cell_length_a       5.122031225623493
_cell_length_b       5.122031135064904
_cell_length_c       5.122031237416312
_cell_angle_alpha    59.99999988759427
_cell_angle_beta     59.99999867193443
_cell_angle_gamma    59.99999916893323

_space_group_name_H-M_alt    "P 1"
_space_group_IT_number       1

loop_
  _space_group_symop_operation_xyz
  'x, y, z'

loop_
  _atom_site_type_symbol
  _atom_site_label
  _atom_site_symmetry_multiplicity
  _atom_site_fract_x
  _atom_site_fract_y
  _atom_site_fract_z
  _atom_site_occupancy
  Ti  Ti1       1.0  0.24999983148329236  0.2500001710689978  0.2500000503607526  1.0000
  Ti  Ti2       1.0  0.7499999018873733  0.7499999536822772  0.7500001353653902  1.0000
  Mo  Mo1       1.0  2.969650047102182e-10  0.9999999450039813  4.1015979813893754e-08  1.0000
  O   O1        1.0  0.26041670360759706  0.26041667595627643  0.7395832878624885  1.0000
  O   O2        1.0  0.7395833597934689  0.7395832838069397  0.2604167099155555  1.0000
  O   O3        1.0  0.739583373234028  0.26041669582595406  0.26041669062340905  1.0000
  O   O4        1.0  0.2604166560309077  0.7395833595825122  0.7395832588289217  1.0000
  O   O5        1.0  0.26041687897136945  0.7395832634727255  0.2604165276917313  1.0000
  O   O6        1.0  0.7395833362936755  0.26041665325012625  0.7395832926764252  1.0000
