data_image0
_chemical_formula_structural       Ti2NO6
_chemical_formula_sum              "Ti2 N1 O6"
_cell_length_a       4.479846454794694
_cell_length_b       4.479846280627872
_cell_length_c       4.479846301370662
_cell_angle_alpha    59.999998807180745
_cell_angle_beta     59.99999766208983
_cell_angle_gamma    59.99999887910877

_space_group_name_H-M_alt    "P 1"
_space_group_IT_number       1

loop_
  _space_group_symop_operation_xyz
  'x, y, z'

loop_
  _atom_site_type_symbol
  _atom_site_label
  _atom_site_symmetry_multiplicity
  _atom_site_fract_x
  _atom_site_fract_y
  _atom_site_fract_z
  _atom_site_occupancy
  Ti  Ti1       1.0  0.2500002557973352  0.24999956455996036  0.25000058339578773  1.0000
  Ti  Ti2       1.0  0.7499999248245658  0.7500000305566605  0.7499994851063314  1.0000
  N   N1        1.0  3.224495817067566e-06  0.9999992345081943  0.9999961788911464  1.0000
  O   O1        1.0  0.2530961882532463  0.25309635693581883  0.7469038568696131  1.0000
  O   O2        1.0  0.746902546893243  0.7469028499670852  0.25309743652339406  1.0000
  O   O3        1.0  0.7469021595551316  0.2530977810800935  0.2530977246392554  1.0000
  O   O4        1.0  0.2530957362527783  0.746904260876444  0.7469042718474372  1.0000
  O   O5        1.0  0.25309670487465113  0.7469031775957498  0.2530970172333035  1.0000
  O   O6        1.0  0.7469032217092119  0.2530968084684786  0.7469033466658032  1.0000
