data_image0
_chemical_formula_structural       Ti2PSe6
_chemical_formula_sum              "Ti2 P1 Se6"
_cell_length_a       6.411212450875881
_cell_length_b       6.411212392660105
_cell_length_c       6.411212401084038
_cell_angle_alpha    59.999999846698955
_cell_angle_beta     60.00000005910778
_cell_angle_gamma    60.00000068381269

_space_group_name_H-M_alt    "P 1"
_space_group_IT_number       1

loop_
  _space_group_symop_operation_xyz
  'x, y, z'

loop_
  _atom_site_type_symbol
  _atom_site_label
  _atom_site_symmetry_multiplicity
  _atom_site_fract_x
  _atom_site_fract_y
  _atom_site_fract_z
  _atom_site_occupancy
  Ti  Ti1       1.0  0.2500000250597184  0.2499998647326693  0.2500000606770897  1.0000
  Ti  Ti2       1.0  0.7500000700753314  0.7500001768447254  0.7499999447321456  1.0000
  P   P1        1.0  0.9999999960888577  0.9999999847174631  2.3823529260204355e-10  1.0000
  Se  Se1       1.0  0.2535024620414686  0.253502472961684  0.7464975426583238  1.0000
  Se  Se2       1.0  0.7464975313069439  0.7464975227680989  0.25350246793827136  1.0000
  Se  Se3       1.0  0.7464975045671661  0.2535024246297916  0.2535025009694392  1.0000
  Se  Se4       1.0  0.2535024459739717  0.7464975806515765  0.7464974825815138  1.0000
  Se  Se5       1.0  0.2535024586269849  0.7464975942691543  0.2535024566050316  1.0000
  Se  Se6       1.0  0.7464975123813764  0.2535023766265061  0.7464975417040005  1.0000
