data_image0
_chemical_formula_structural       Ti2PS6
_chemical_formula_sum              "Ti2 P1 S6"
_cell_length_a       6.008002880311652
_cell_length_b       6.00800281581085
_cell_length_c       6.0080026765421675
_cell_angle_alpha    59.99999848994008
_cell_angle_beta     59.99999737170524
_cell_angle_gamma    59.9999988767986

_space_group_name_H-M_alt    "P 1"
_space_group_IT_number       1

loop_
  _space_group_symop_operation_xyz
  'x, y, z'

loop_
  _atom_site_type_symbol
  _atom_site_label
  _atom_site_symmetry_multiplicity
  _atom_site_fract_x
  _atom_site_fract_y
  _atom_site_fract_z
  _atom_site_occupancy
  Ti  Ti1       1.0  0.24999984343010842  0.24999987626057904  0.25000011241050785  1.0000
  Ti  Ti2       1.0  0.7500000137721643  0.7500003116867726  0.7499998805360072  1.0000
  P   P1        1.0  0.999999957910544  5.707863077860891e-08  0.999999902625293  1.0000
  S   S1        1.0  0.25340328825118313  0.25340330606636136  0.7465966352831026  1.0000
  S   S2        1.0  0.746596936940685  0.7465964986387648  0.2534031655561244  1.0000
  S   S3        1.0  0.7465966845681461  0.2534031451998637  0.25340333580766994  1.0000
  S   S4        1.0  0.25340337999706236  0.7465966166962862  0.7465968513697594  1.0000
  S   S5        1.0  0.2534031334289208  0.7465969914095787  0.2534033718599293  1.0000
  S   S6        1.0  0.7465967801690382  0.25340322915413155  0.7465966997496143  1.0000
