data_image0
_chemical_formula_structural       Ti2RhO6
_chemical_formula_sum              "Ti2 Rh1 O6"
_cell_length_a       5.060626770771495
_cell_length_b       5.060626831408457
_cell_length_c       5.06062689344185
_cell_angle_alpha    60.00000114564238
_cell_angle_beta     60.000001742336906
_cell_angle_gamma    60.00000082629983

_space_group_name_H-M_alt    "P 1"
_space_group_IT_number       1

loop_
  _space_group_symop_operation_xyz
  'x, y, z'

loop_
  _atom_site_type_symbol
  _atom_site_label
  _atom_site_symmetry_multiplicity
  _atom_site_fract_x
  _atom_site_fract_y
  _atom_site_fract_z
  _atom_site_occupancy
  Ti  Ti1       1.0  0.2499999676495544  0.25000000378413767  0.25000012937487026  1.0000
  Ti  Ti2       1.0  0.7499999254694992  0.7499998274214209  0.7499999352989494  1.0000
  Rh  Rh1       1.0  3.099915372104051e-08  9.680578266322214e-09  0.999999985588254  1.0000
  O   O1        1.0  0.26307418722052195  0.2630741563223326  0.7369259186843825  1.0000
  O   O2        1.0  0.7369257591810633  0.7369259120573959  0.26307420231714684  1.0000
  O   O3        1.0  0.7369257557738453  0.26307421851504265  0.26307407435516456  1.0000
  O   O4        1.0  0.2630742784171715  0.7369258329236724  0.7369258590670947  1.0000
  O   O5        1.0  0.26307407093105484  0.7369257686433743  0.26307422114978446  1.0000
  O   O6        1.0  0.7369260391108315  0.26307425375360527  0.7369256513231534  1.0000
