data_image0
_chemical_formula_structural       Ti2RuS6
_chemical_formula_sum              "Ti2 Ru1 S6"
_cell_length_a       5.970258751104693
_cell_length_b       5.970258580334102
_cell_length_c       5.970258673543735
_cell_angle_alpha    59.999999601042894
_cell_angle_beta     59.999999629471496
_cell_angle_gamma    59.99999965877617

_space_group_name_H-M_alt    "P 1"
_space_group_IT_number       1

loop_
  _space_group_symop_operation_xyz
  'x, y, z'

loop_
  _atom_site_type_symbol
  _atom_site_label
  _atom_site_symmetry_multiplicity
  _atom_site_fract_x
  _atom_site_fract_y
  _atom_site_fract_z
  _atom_site_occupancy
  Ti  Ti1       1.0  0.2500000363258313  0.24999999672052087  0.25000008490062525  1.0000
  Ti  Ti2       1.0  0.7499999977959101  0.750000039395402  0.7499997011114624  1.0000
  Ru  Ru1       1.0  3.419017005407634e-09  0.9999999897429493  0.9999999816444158  1.0000
  S   S1        1.0  0.2703694579567113  0.2703695105142097  0.7296305506251626  1.0000
  S   S2        1.0  0.7296305156418194  0.7296305214988943  0.2703696244684013  1.0000
  S   S3        1.0  0.7296304674808097  0.27036944591545686  0.2703694873376024  1.0000
  S   S4        1.0  0.27036946130186307  0.7296305696863654  0.7296305592474479  1.0000
  S   S5        1.0  0.2703694369559489  0.7296304507554529  0.27036954523971796  1.0000
  S   S6        1.0  0.7296306081469034  0.27036948278996553  0.7296304775135668  1.0000
