data_image0
_chemical_formula_structural       Ti2RuSe6
_chemical_formula_sum              "Ti2 Ru1 Se6"
_cell_length_a       6.343076601518841
_cell_length_b       6.343076667994698
_cell_length_c       6.343076784655086
_cell_angle_alpha    60.00000230764587
_cell_angle_beta     60.00000116219409
_cell_angle_gamma    60.00000359601878

_space_group_name_H-M_alt    "P 1"
_space_group_IT_number       1

loop_
  _space_group_symop_operation_xyz
  'x, y, z'

loop_
  _atom_site_type_symbol
  _atom_site_label
  _atom_site_symmetry_multiplicity
  _atom_site_fract_x
  _atom_site_fract_y
  _atom_site_fract_z
  _atom_site_occupancy
  Ti  Ti1       1.0  0.24999975714569816  0.24999979697699368  0.25000046698327977  1.0000
  Ti  Ti2       1.0  0.7499999429916728  0.7500000686548259  0.7499998103513804  1.0000
  Ru  Ru1       1.0  7.121687404804712e-08  0.9999999884149792  0.9999999938319041  1.0000
  Se  Se1       1.0  0.2706476217230113  0.2706479839735705  0.729352153111305  1.0000
  Se  Se2       1.0  0.7293523291514555  0.7293519704767664  0.2706479954351264  1.0000
  Se  Se3       1.0  0.7293521341699049  0.2706476028502037  0.27064801071569455  1.0000
  Se  Se4       1.0  0.270647950440069  0.729352370908506  0.7293519730235681  1.0000
  Se  Se5       1.0  0.27064796938374197  0.7293522628731975  0.27064767915765586  1.0000
  Se  Se6       1.0  0.729352260322663  0.2706478981767179  0.7293519539347227  1.0000
