data_image0
_chemical_formula_structural       Ti2RhSe6
_chemical_formula_sum              "Ti2 Rh1 Se6"
_cell_length_a       6.3307800915737955
_cell_length_b       6.330780074359163
_cell_length_c       6.330780299624009
_cell_angle_alpha    60.00000098471424
_cell_angle_beta     60.00000037505718
_cell_angle_gamma    60.0000004395273

_space_group_name_H-M_alt    "P 1"
_space_group_IT_number       1

loop_
  _space_group_symop_operation_xyz
  'x, y, z'

loop_
  _atom_site_type_symbol
  _atom_site_label
  _atom_site_symmetry_multiplicity
  _atom_site_fract_x
  _atom_site_fract_y
  _atom_site_fract_z
  _atom_site_occupancy
  Ti  Ti1       1.0  0.24999944353559075  0.25000000457814453  0.2500003760152609  1.0000
  Ti  Ti2       1.0  0.7499999238922661  0.749999802864381  0.7500002472879822  1.0000
  Rh  Rh1       1.0  1.541975201245919e-08  5.223386528788971e-08  0.9999999803894494  1.0000
  Se  Se1       1.0  0.27353382666255455  0.27353387166792  0.7264661394306634  1.0000
  Se  Se2       1.0  0.7264660498991583  0.7264662414394394  0.273533785829768  1.0000
  Se  Se3       1.0  0.7264664812103608  0.2735338766809605  0.27353377853567284  1.0000
  Se  Se4       1.0  0.2735338809257677  0.7264662789873267  0.7264659458404576  1.0000
  Se  Se5       1.0  0.27353409332712153  0.7264658679958901  0.2735337391178148  1.0000
  Se  Se6       1.0  0.7264662725171052  0.27353399748425566  0.7264660052907714  1.0000
