data_image0
_chemical_formula_structural       Ti2RuO6
_chemical_formula_sum              "Ti2 Ru1 O6"
_cell_length_a       5.051276730032085
_cell_length_b       5.051276533725264
_cell_length_c       5.05127681508644
_cell_angle_alpha    59.99999790605611
_cell_angle_beta     59.99999842607811
_cell_angle_gamma    59.99999935824434

_space_group_name_H-M_alt    "P 1"
_space_group_IT_number       1

loop_
  _space_group_symop_operation_xyz
  'x, y, z'

loop_
  _atom_site_type_symbol
  _atom_site_label
  _atom_site_symmetry_multiplicity
  _atom_site_fract_x
  _atom_site_fract_y
  _atom_site_fract_z
  _atom_site_occupancy
  Ti  Ti1       1.0  0.249999901025108  0.24999999876875514  0.2499998205279553  1.0000
  Ti  Ti2       1.0  0.7499999807141716  0.7500000617711322  0.7499998700833691  1.0000
  Ru  Ru1       1.0  4.159998177235558e-10  0.9999999781783793  1.07028105003754e-08  1.0000
  O   O1        1.0  0.260364173342866  0.26036421213832694  0.7396358532492666  1.0000
  O   O2        1.0  0.7396357604425644  0.739635836278439  0.2603641994821572  1.0000
  O   O3        1.0  0.7396358644664934  0.26036414385615375  0.2603643352700503  1.0000
  O   O4        1.0  0.2603642951930498  0.7396357275630252  0.7396358513989079  1.0000
  O   O5        1.0  0.2603642570832162  0.739635753757932  0.2603642853115573  1.0000
  O   O6        1.0  0.7396357497141963  0.26036430193270876  0.7396358341806015  1.0000
