data_image0
_chemical_formula_structural       Ti2SbN6
_chemical_formula_sum              "Ti2 Sb1 N6"
_cell_length_a       4.476258223370885
_cell_length_b       3.636003588536154
_cell_length_c       3.131888788986746
_cell_angle_alpha    82.17807388643398
_cell_angle_beta     65.58978808810612
_cell_angle_gamma    84.42687123807082

_space_group_name_H-M_alt    "P 1"
_space_group_IT_number       1

loop_
  _space_group_symop_operation_xyz
  'x, y, z'

loop_
  _atom_site_type_symbol
  _atom_site_label
  _atom_site_symmetry_multiplicity
  _atom_site_fract_x
  _atom_site_fract_y
  _atom_site_fract_z
  _atom_site_occupancy
  Ti  Ti1       1.0  0.19612673158417845  0.31313444309440935  0.3276144752366767  1.0000
  Ti  Ti2       1.0  0.7900061562766572  0.8446949091057606  0.6082215027796204  1.0000
  Sb  Sb1       1.0  0.0854297124137367  0.9186348810075216  0.04939147272614632  1.0000
  N   N1        1.0  0.2686367567051871  0.053222181497740946  0.9193958960582885  1.0000
  N   N2        1.0  0.7487383972071037  0.6142593771340482  0.19785973810581456  1.0000
  N   N3        1.0  0.6331161755296023  0.44233605455271635  0.2716280778865297  1.0000
  N   N4        1.0  0.23952165525939265  0.6969072027874635  0.7072078058677685  1.0000
  N   N5        1.0  0.3593982839520078  0.7575317148886502  0.121903702303255  1.0000
  N   N6        1.0  0.6710182930195073  0.3704255631286171  0.8052143498366341  1.0000
