data_image0
_chemical_formula_structural       Ti2TaSe6
_chemical_formula_sum              "Ti2 Ta1 Se6"
_cell_length_a       6.597748830231617
_cell_length_b       6.5977489582091104
_cell_length_c       6.597748950733781
_cell_angle_alpha    59.99999947945436
_cell_angle_beta     60.00000034153074
_cell_angle_gamma    59.99999983860056

_space_group_name_H-M_alt    "P 1"
_space_group_IT_number       1

loop_
  _space_group_symop_operation_xyz
  'x, y, z'

loop_
  _atom_site_type_symbol
  _atom_site_label
  _atom_site_symmetry_multiplicity
  _atom_site_fract_x
  _atom_site_fract_y
  _atom_site_fract_z
  _atom_site_occupancy
  Ti  Ti1       1.0  0.2500000653026925  0.2499999590144127  0.24999994532175782  1.0000
  Ti  Ti2       1.0  0.7499999485706378  0.7499999680022882  0.7500001612084253  1.0000
  Ta  Ta1       1.0  1.8420479062484058e-08  1.2994149659025336e-08  4.037241878306455e-08  1.0000
  Se  Se1       1.0  0.2642658264712048  0.26426586591114354  0.7357340999078109  1.0000
  Se  Se2       1.0  0.7357341239176672  0.7357341780529117  0.2642658192300664  1.0000
  Se  Se3       1.0  0.7357341256769889  0.264265902024132  0.2642658130235811  1.0000
  Se  Se4       1.0  0.26426585160101584  0.7357341085263933  0.7357341639405599  1.0000
  Se  Se5       1.0  0.26426586793110235  0.7357342245721202  0.2642657843585751  1.0000
  Se  Se6       1.0  0.7357341631949011  0.2642657766968689  0.735734180932014  1.0000
