data_image0
_chemical_formula_structural       Ti2TaTe6
_chemical_formula_sum              "Ti2 Ta1 Te6"
_cell_length_a       7.181577839673289
_cell_length_b       7.181577845484394
_cell_length_c       7.181577873940967
_cell_angle_alpha    59.999999823643506
_cell_angle_beta     59.99999950497849
_cell_angle_gamma    60.000000096393386

_space_group_name_H-M_alt    "P 1"
_space_group_IT_number       1

loop_
  _space_group_symop_operation_xyz
  'x, y, z'

loop_
  _atom_site_type_symbol
  _atom_site_label
  _atom_site_symmetry_multiplicity
  _atom_site_fract_x
  _atom_site_fract_y
  _atom_site_fract_z
  _atom_site_occupancy
  Ti  Ti1       1.0  0.24999998411963895  0.24999991946829364  0.2500000868939195  1.0000
  Ti  Ti2       1.0  0.7500000014028518  0.7499999971606054  0.7500000360197329  1.0000
  Ta  Ta1       1.0  0.999999989915347  0.9999999386056708  5.941116926055009e-08  1.0000
  Te  Te1       1.0  0.263897555028537  0.2638975751045674  0.7361024252672014  1.0000
  Te  Te2       1.0  0.7361024535863894  0.7361024796615723  0.26389753766186824  1.0000
  Te  Te3       1.0  0.7361024510296612  0.2638975592289788  0.2638975369118283  1.0000
  Te  Te4       1.0  0.26389754246521746  0.7361024733669863  0.7361024209906744  1.0000
  Te  Te5       1.0  0.2638975729358452  0.736102483240118  0.2638974885382768  1.0000
  Te  Te6       1.0  0.7361024517577283  0.26389757152602156  0.7361024036911447  1.0000
