data_image0
_chemical_formula_structural       Ti2TaS6
_chemical_formula_sum              "Ti2 Ta1 S6"
_cell_length_a       6.267799659949023
_cell_length_b       6.267799689919778
_cell_length_c       6.267799545907971
_cell_angle_alpha    60.00000099557005
_cell_angle_beta     59.999999435816754
_cell_angle_gamma    60.0000000944806

_space_group_name_H-M_alt    "P 1"
_space_group_IT_number       1

loop_
  _space_group_symop_operation_xyz
  'x, y, z'

loop_
  _atom_site_type_symbol
  _atom_site_label
  _atom_site_symmetry_multiplicity
  _atom_site_fract_x
  _atom_site_fract_y
  _atom_site_fract_z
  _atom_site_occupancy
  Ti  Ti1       1.0  0.24999981284971146  0.25000000469907463  0.2500001480280453  1.0000
  Ti  Ti2       1.0  0.7499999840474536  0.7500000688099696  0.7499998264828035  1.0000
  Ta  Ta1       1.0  5.6143073430955324e-08  0.9999999863218119  0.9999999420720629  1.0000
  S   S1        1.0  0.2667354946624098  0.2667354739197261  0.7332645447996229  1.0000
  S   S2        1.0  0.7332645756001945  0.7332644979799243  0.2667354938060887  1.0000
  S   S3        1.0  0.733264599543524  0.2667354076863328  0.2667353725365573  1.0000
  S   S4        1.0  0.26673550540620633  0.7332645485811027  0.7332645959143606  1.0000
  S   S5        1.0  0.26673539201700225  0.733264557004052  0.2667354767826994  1.0000
  S   S6        1.0  0.733264591416037  0.26673545983821517  0.7332645731937496  1.0000
