data_image0
_chemical_formula_structural       Ti2TaO6
_chemical_formula_sum              "Ti2 Ta1 O6"
_cell_length_a       5.119457788266704
_cell_length_b       5.11945777937579
_cell_length_c       5.1194576772046645
_cell_angle_alpha    59.99999992651092
_cell_angle_beta     60.00000149467055
_cell_angle_gamma    60.00000089393303

_space_group_name_H-M_alt    "P 1"
_space_group_IT_number       1

loop_
  _space_group_symop_operation_xyz
  'x, y, z'

loop_
  _atom_site_type_symbol
  _atom_site_label
  _atom_site_symmetry_multiplicity
  _atom_site_fract_x
  _atom_site_fract_y
  _atom_site_fract_z
  _atom_site_occupancy
  Ti  Ti1       1.0  0.24999995330105781  0.2499999215048665  0.25000010983193865  1.0000
  Ti  Ti2       1.0  0.749999929612814  0.7500001305415781  0.7499999963809226  1.0000
  Ta  Ta1       1.0  0.9999999731605308  6.698532893223935e-08  0.9999999740670739  1.0000
  O   O1        1.0  0.26406255586534266  0.2640622777040228  0.7359375955678643  1.0000
  O   O2        1.0  0.7359376150741606  0.7359375733864373  0.2640624221835426  1.0000
  O   O3        1.0  0.7359375602197333  0.2640624085599851  0.26406243809023694  1.0000
  O   O4        1.0  0.2640624360170828  0.7359376147784628  0.7359375847951816  1.0000
  O   O5        1.0  0.26406242579108496  0.7359375937729717  0.2640623155039807  1.0000
  O   O6        1.0  0.7359375701955643  0.2640624032498128  0.7359375624444691  1.0000
