data_image0
_chemical_formula_structural       Tl2AsO6
_chemical_formula_sum              "Tl2 As1 O6"
_cell_length_a       5.217500313985677
_cell_length_b       5.217500497123488
_cell_length_c       5.217501933608648
_cell_angle_alpha    59.999973872838964
_cell_angle_beta     59.999978101934474
_cell_angle_gamma    59.99998238856311

_space_group_name_H-M_alt    "P 1"
_space_group_IT_number       1

loop_
  _space_group_symop_operation_xyz
  'x, y, z'

loop_
  _atom_site_type_symbol
  _atom_site_label
  _atom_site_symmetry_multiplicity
  _atom_site_fract_x
  _atom_site_fract_y
  _atom_site_fract_z
  _atom_site_occupancy
  Tl  Tl1       1.0  0.24999960186693554  0.24999969082794468  0.2500002043050678  1.0000
  Tl  Tl2       1.0  0.7500001320745734  0.7500001522781785  0.7499997739398374  1.0000
  As  As1       1.0  9.176240636769523e-08  2.55864543403546e-07  0.9999983848837121  1.0000
  O   O1        1.0  0.24828254639384564  0.24828258360840685  0.7517178022080558  1.0000
  O   O2        1.0  0.7517160480730574  0.7517174378983741  0.24828385638179337  1.0000
  O   O3        1.0  0.7517173565812563  0.24828310092837516  0.24828311418328283  1.0000
  O   O4        1.0  0.24828197794904538  0.7517178806565474  0.7517172170957271  1.0000
  O   O5        1.0  0.24828349374567413  0.7517171951143399  0.24828298566640095  1.0000
  O   O6        1.0  0.7517182458788665  0.2482823076216935  0.7517166678277979  1.0000
