data_image0
_chemical_formula_structural       Tl2AsO6
_chemical_formula_sum              "Tl2 As1 O6"
_cell_length_a       5.217298035517213
_cell_length_b       5.217298074963595
_cell_length_c       5.217297664192725
_cell_angle_alpha    60.0000005140014
_cell_angle_beta     60.000002001431824
_cell_angle_gamma    60.000000803174984

_space_group_name_H-M_alt    "P 1"
_space_group_IT_number       1

loop_
  _space_group_symop_operation_xyz
  'x, y, z'

loop_
  _atom_site_type_symbol
  _atom_site_label
  _atom_site_symmetry_multiplicity
  _atom_site_fract_x
  _atom_site_fract_y
  _atom_site_fract_z
  _atom_site_occupancy
  Tl  Tl1       1.0  0.2500000275561028  0.25000003018153094  0.24999995844614634  1.0000
  Tl  Tl2       1.0  0.749999910329038  0.750000036552791  0.7500000172544922  1.0000
  As  As1       1.0  0.9999999687234397  5.399180155603212e-08  0.9999999598918626  1.0000
  O   O1        1.0  0.24827519119960825  0.24827524387411748  0.7517247195739121  1.0000
  O   O2        1.0  0.751724826138853  0.7517247571310564  0.2482752224308262  1.0000
  O   O3        1.0  0.7517247487320725  0.24827525704583112  0.24827527683468886  1.0000
  O   O4        1.0  0.2482752092523317  0.7517247228321117  0.7517249085810072  1.0000
  O   O5        1.0  0.24827528392358159  0.7517248162528326  0.24827513485617303  1.0000
  O   O6        1.0  0.7517248291201644  0.2482751565827068  0.7517247312133168  1.0000
