data_image0
_chemical_formula_structural       Tl2AuS6
_chemical_formula_sum              "Tl2 Au1 S6"
_cell_length_a       6.460167463746841
_cell_length_b       6.460166936499005
_cell_length_c       6.46016741931616
_cell_angle_alpha    59.99999722430182
_cell_angle_beta     59.99999640921181
_cell_angle_gamma    59.99999314566485

_space_group_name_H-M_alt    "P 1"
_space_group_IT_number       1

loop_
  _space_group_symop_operation_xyz
  'x, y, z'

loop_
  _atom_site_type_symbol
  _atom_site_label
  _atom_site_symmetry_multiplicity
  _atom_site_fract_x
  _atom_site_fract_y
  _atom_site_fract_z
  _atom_site_occupancy
  Tl  Tl1       1.0  0.2499999690460795  0.2499999846312592  0.2500000061391442  1.0000
  Tl  Tl2       1.0  0.7499999834735978  0.7499999501020931  0.7500000301319656  1.0000
  Au  Au1       1.0  7.589928911547896e-10  0.999999960187335  0.9999996511153314  1.0000
  S   S1        1.0  0.26611932312472736  0.2661194154845687  0.7338806596624047  1.0000
  S   S2        1.0  0.7338807520542776  0.7338807732914745  0.26611936007986414  1.0000
  S   S3        1.0  0.7338809122010943  0.266119104195404  0.2661192574495334  1.0000
  S   S4        1.0  0.26611912391202663  0.7338808210587419  0.7338809012030477  1.0000
  S   S5        1.0  0.2661190748336883  0.7338808614187028  0.26611931459098154  1.0000
  S   S6        1.0  0.7338808217153598  0.266119133981565  0.7338808369759964  1.0000
