data_image0
_chemical_formula_structural       Tl2AsS6
_chemical_formula_sum              "Tl2 As1 S6"
_cell_length_a       6.7612937581896455
_cell_length_b       6.761292998747842
_cell_length_c       6.761293269652841
_cell_angle_alpha    59.99999881654811
_cell_angle_beta     59.99999910174415
_cell_angle_gamma    60.00000390455178

_space_group_name_H-M_alt    "P 1"
_space_group_IT_number       1

loop_
  _space_group_symop_operation_xyz
  'x, y, z'

loop_
  _atom_site_type_symbol
  _atom_site_label
  _atom_site_symmetry_multiplicity
  _atom_site_fract_x
  _atom_site_fract_y
  _atom_site_fract_z
  _atom_site_occupancy
  Tl  Tl1       1.0  0.24999998154049444  0.2499999943626666  0.25000000391071797  1.0000
  Tl  Tl2       1.0  0.7500000242847521  0.7499999848994121  0.7499999754318323  1.0000
  As  As1       1.0  0.999999745826269  1.9382045861832613e-07  2.609017329728895e-07  1.0000
  S   S1        1.0  0.251100771563784  0.251100722425293  0.7488992426487461  1.0000
  S   S2        1.0  0.7488992257193687  0.7488994361660083  0.25110063503116326  1.0000
  S   S3        1.0  0.7488991726957361  0.25110073933113747  0.25110093008108564  1.0000
  S   S4        1.0  0.2511010171972026  0.7488990207507912  0.7488989795562764  1.0000
  S   S5        1.0  0.25110095264946963  0.7488989974613436  0.2511008869694216  1.0000
  S   S6        1.0  0.7488991420174417  0.25110092021292824  0.7488991467805187  1.0000
