data_image0
_chemical_formula_structural       Tl2AgS6
_chemical_formula_sum              "Tl2 Ag1 S6"
_cell_length_a       6.512361029923053
_cell_length_b       6.512361397012034
_cell_length_c       6.512361552087366
_cell_angle_alpha    59.99999731479919
_cell_angle_beta     59.999994909818554
_cell_angle_gamma    60.00000153546774

_space_group_name_H-M_alt    "P 1"
_space_group_IT_number       1

loop_
  _space_group_symop_operation_xyz
  'x, y, z'

loop_
  _atom_site_type_symbol
  _atom_site_label
  _atom_site_symmetry_multiplicity
  _atom_site_fract_x
  _atom_site_fract_y
  _atom_site_fract_z
  _atom_site_occupancy
  Tl  Tl1       1.0  0.24999991659088483  0.25000002150374717  0.2500000249046859  1.0000
  Tl  Tl2       1.0  0.7500000338267135  0.7499999836434563  0.7500000084383662  1.0000
  Ag  Ag1       1.0  0.9999995789049497  0.999999704738507  3.8274694415299606e-07  1.0000
  S   S1        1.0  0.27007197387304227  0.27007170517558576  0.7299282449744929  1.0000
  S   S2        1.0  0.7299283600298346  0.7299285218878998  0.27007159008457593  1.0000
  S   S3        1.0  0.7299284436737578  0.27007168119497477  0.27007138969373273  1.0000
  S   S4        1.0  0.27007162709257965  0.7299287076040921  0.7299283102653227  1.0000
  S   S5        1.0  0.27007154701367814  0.7299283540561704  0.27007137602113246  1.0000
  S   S6        1.0  0.7299284777171233  0.2700713802779595  0.7299287002923713  1.0000
