data_image0
_chemical_formula_structural       Tl2AsSe6
_chemical_formula_sum              "Tl2 As1 Se6"
_cell_length_a       6.694669675392562
_cell_length_b       6.694670882144958
_cell_length_c       6.694670548230602
_cell_angle_alpha    59.999997320227145
_cell_angle_beta     60.00000049880973
_cell_angle_gamma    59.99999886504571

_space_group_name_H-M_alt    "P 1"
_space_group_IT_number       1

loop_
  _space_group_symop_operation_xyz
  'x, y, z'

loop_
  _atom_site_type_symbol
  _atom_site_label
  _atom_site_symmetry_multiplicity
  _atom_site_fract_x
  _atom_site_fract_y
  _atom_site_fract_z
  _atom_site_occupancy
  Tl  Tl1       1.0  0.24999999912913026  0.2499999298926173  0.2500000477348421  1.0000
  Tl  Tl2       1.0  0.750000024248815  0.7500000092097645  0.7499999408404011  1.0000
  As  As1       1.0  8.748095429090897e-08  0.9999997841269411  2.5539292437339264e-07  1.0000
  Se  Se1       1.0  0.2898732649617616  0.2898733785070559  0.7101266302928079  1.0000
  Se  Se2       1.0  0.7101266717722577  0.7101267325619909  0.2898733096461553  1.0000
  Se  Se3       1.0  0.7101267967079385  0.2898733424290918  0.2898731006318645  1.0000
  Se  Se4       1.0  0.28987329318709193  0.7101266661917298  0.7101267586828717  1.0000
  Se  Se5       1.0  0.2898732662427307  0.7101268463029035  0.28987316555507797  1.0000
  Se  Se6       1.0  0.710126545363623  0.2898733141608285  0.7101267853633104  1.0000
