data_image0
_chemical_formula_structural       Tl2AsS6
_chemical_formula_sum              "Tl2 As1 S6"
_cell_length_a       6.763315253067931
_cell_length_b       6.763316566043673
_cell_length_c       6.763315316603972
_cell_angle_alpha    60.000009419093566
_cell_angle_beta     60.00000604943264
_cell_angle_gamma    60.00000437273266

_space_group_name_H-M_alt    "P 1"
_space_group_IT_number       1

loop_
  _space_group_symop_operation_xyz
  'x, y, z'

loop_
  _atom_site_type_symbol
  _atom_site_label
  _atom_site_symmetry_multiplicity
  _atom_site_fract_x
  _atom_site_fract_y
  _atom_site_fract_z
  _atom_site_occupancy
  Tl  Tl1       1.0  0.2500000859622505  0.2500000138130206  0.25000001890150314  1.0000
  Tl  Tl2       1.0  0.7499999942909675  0.7499999871131495  0.7500000914658997  1.0000
  As  As1       1.0  8.921157376993776e-08  0.9999999474849289  0.9999994996396249  1.0000
  S   S1        1.0  0.25102955111213043  0.2510295619460316  0.7489705879931485  1.0000
  S   S2        1.0  0.7489703343728905  0.7489703267065736  0.25102978087322464  1.0000
  S   S3        1.0  0.7489704337904601  0.2510295491734948  0.2510296497740569  1.0000
  S   S4        1.0  0.2510295922611976  0.7489703992376177  0.748970462201883  1.0000
  S   S5        1.0  0.2510296367194562  0.7489705337792688  0.25102948537819625  1.0000
  S   S6        1.0  0.7489702154419902  0.25102966996369375  0.748970436541877  1.0000
