data_image0
_chemical_formula_structural       Tl2AuSe6
_chemical_formula_sum              "Tl2 Au1 Se6"
_cell_length_a       6.841871227816702
_cell_length_b       6.841871559056129
_cell_length_c       6.841871454879008
_cell_angle_alpha    60.00000083824231
_cell_angle_beta     59.99999989569274
_cell_angle_gamma    59.99999894005557

_space_group_name_H-M_alt    "P 1"
_space_group_IT_number       1

loop_
  _space_group_symop_operation_xyz
  'x, y, z'

loop_
  _atom_site_type_symbol
  _atom_site_label
  _atom_site_symmetry_multiplicity
  _atom_site_fract_x
  _atom_site_fract_y
  _atom_site_fract_z
  _atom_site_occupancy
  Tl  Tl1       1.0  0.2500000137230107  0.25000001978789904  0.2499999934359527  1.0000
  Tl  Tl2       1.0  0.7500000062568399  0.7500000020813663  0.7499999957117627  1.0000
  Au  Au1       1.0  0.9999999377950916  0.999999928397087  0.9999998827437708  1.0000
  Se  Se1       1.0  0.2926167716845054  0.2926166933476652  0.7073833062474811  1.0000
  Se  Se2       1.0  0.7073833132117092  0.7073833464223271  0.2926166970320484  1.0000
  Se  Se3       1.0  0.7073832407287916  0.2926167310339437  0.2926167619142381  1.0000
  Se  Se4       1.0  0.2926167241537501  0.7073832890452502  0.707383331679764  1.0000
  Se  Se5       1.0  0.29261670391360395  0.7073833069300627  0.2926166833062542  1.0000
  Se  Se6       1.0  0.7073832860972051  0.29261669345832897  0.7073833637213632  1.0000
