data_image0
_chemical_formula_structural       Tl2AgTe6
_chemical_formula_sum              "Tl2 Ag1 Te6"
_cell_length_a       7.391539667999477
_cell_length_b       7.39154369782638
_cell_length_c       7.391540517108362
_cell_angle_alpha    60.00001893048564
_cell_angle_beta     59.999984819039874
_cell_angle_gamma    59.99999183664224

_space_group_name_H-M_alt    "P 1"
_space_group_IT_number       1

loop_
  _space_group_symop_operation_xyz
  'x, y, z'

loop_
  _atom_site_type_symbol
  _atom_site_label
  _atom_site_symmetry_multiplicity
  _atom_site_fract_x
  _atom_site_fract_y
  _atom_site_fract_z
  _atom_site_occupancy
  Tl  Tl1       1.0  0.24999977076098198  0.2500002387160284  0.2500000261189615  1.0000
  Tl  Tl2       1.0  0.7500001954744866  0.7499997584285629  0.750000047975868  1.0000
  Ag  Ag1       1.0  1.4659188385442775e-06  0.9999991499824818  1.3777600270672397e-06  1.0000
  Te  Te1       1.0  0.2771771694175624  0.27717602775423184  0.722823103692717  1.0000
  Te  Te2       1.0  0.7228223289968327  0.7228239528208937  0.2771766281455079  1.0000
  Te  Te3       1.0  0.7228230162592655  0.2771760253192871  0.27717649141968653  1.0000
  Te  Te4       1.0  0.2771766108044506  0.7228241176372765  0.7228231436074797  1.0000
  Te  Te5       1.0  0.2771769530842698  0.7228237549574932  0.2771760370290249  1.0000
  Te  Te6       1.0  0.7228224983259872  0.27717694307860175  0.7228231295881627  1.0000
