data_image0
_chemical_formula_structural       Tl2AgO6
_chemical_formula_sum              "Tl2 Ag1 O6"
_cell_length_a       5.487614729526668
_cell_length_b       5.487614540800127
_cell_length_c       5.4876148232568225
_cell_angle_alpha    60.00000115028397
_cell_angle_beta     60.00000097598056
_cell_angle_gamma    60.00000121039327

_space_group_name_H-M_alt    "P 1"
_space_group_IT_number       1

loop_
  _space_group_symop_operation_xyz
  'x, y, z'

loop_
  _atom_site_type_symbol
  _atom_site_label
  _atom_site_symmetry_multiplicity
  _atom_site_fract_x
  _atom_site_fract_y
  _atom_site_fract_z
  _atom_site_occupancy
  Tl  Tl1       1.0  0.2500000424843431  0.2500001522800972  0.24999987417714323  1.0000
  Tl  Tl2       1.0  0.7500000668656422  0.7499999189681202  0.7499996611743942  1.0000
  Ag  Ag1       1.0  0.999999993326395  0.9999999821453188  0.999999882881884  1.0000
  O   O1        1.0  0.2503400344572415  0.2503402011834711  0.749659959146105  1.0000
  O   O2        1.0  0.7496599339555594  0.7496597941823839  0.2503404062401939  1.0000
  O   O3        1.0  0.749659867798549  0.25033999959252595  0.250340286991893  1.0000
  O   O4        1.0  0.2503403272108409  0.7496598462403987  0.7496597410077815  1.0000
  O   O5        1.0  0.25033998843274313  0.7496598419263987  0.25034026490155087  1.0000
  O   O6        1.0  0.7496597496856402  0.25034027619035476  0.7496598699799958  1.0000
