data_image0
_chemical_formula_structural       Tl2BeO6
_chemical_formula_sum              "Tl2 Be1 O6"
_cell_length_a       5.2993689846577015
_cell_length_b       5.29936913418681
_cell_length_c       5.299369120716798
_cell_angle_alpha    59.99999908675354
_cell_angle_beta     59.99999812853766
_cell_angle_gamma    60.00000107117878

_space_group_name_H-M_alt    "P 1"
_space_group_IT_number       1

loop_
  _space_group_symop_operation_xyz
  'x, y, z'

loop_
  _atom_site_type_symbol
  _atom_site_label
  _atom_site_symmetry_multiplicity
  _atom_site_fract_x
  _atom_site_fract_y
  _atom_site_fract_z
  _atom_site_occupancy
  Tl  Tl1       1.0  0.2499999689011473  0.25000000581713233  0.25000003140187493  1.0000
  Tl  Tl2       1.0  0.7499999686163  0.7500000082069401  0.7500000433402018  1.0000
  Be  Be1       1.0  2.1260697742783355e-08  2.7733373251404508e-08  7.740188600110333e-08  1.0000
  O   O1        1.0  0.2165942827004258  0.21659420079994476  0.7834057340516528  1.0000
  O   O2        1.0  0.783405751219068  0.7834057854907559  0.21659426484171052  1.0000
  O   O3        1.0  0.7834056992232772  0.2165943157319662  0.21659429323499885  1.0000
  O   O4        1.0  0.21659436817336106  0.783405628958675  0.7834056285780877  1.0000
  O   O5        1.0  0.2165943575942015  0.7834056585999953  0.21659433234922199  1.0000
  O   O6        1.0  0.7834055738697735  0.21659440626859644  0.7834056011152554  1.0000
