data_image0
_chemical_formula_structural       Tl2BTe6
_chemical_formula_sum              "Tl2 B1 Te6"
_cell_length_a       7.617934990664135
_cell_length_b       7.617934307800153
_cell_length_c       7.6179362294321535
_cell_angle_alpha    60.000002304554855
_cell_angle_beta     59.9999928426694
_cell_angle_gamma    60.000003345328615

_space_group_name_H-M_alt    "P 1"
_space_group_IT_number       1

loop_
  _space_group_symop_operation_xyz
  'x, y, z'

loop_
  _atom_site_type_symbol
  _atom_site_label
  _atom_site_symmetry_multiplicity
  _atom_site_fract_x
  _atom_site_fract_y
  _atom_site_fract_z
  _atom_site_occupancy
  Tl  Tl1       1.0  0.2500000608088247  0.25000006387715995  0.2499999183555179  1.0000
  Tl  Tl2       1.0  0.7499999297113715  0.7499999311820492  0.7500000746579938  1.0000
  B   B1        1.0  2.304752722716949e-07  0.9999998633444773  1.6443343973391665e-07  1.0000
  Te  Te1       1.0  0.21405578065829695  0.2140558252713368  0.7859441865191071  1.0000
  Te  Te2       1.0  0.7859441813697267  0.7859441006562496  0.21405598263737066  1.0000
  Te  Te3       1.0  0.7859440178136327  0.21405584450996748  0.21405606602008995  1.0000
  Te  Te4       1.0  0.21405598469612339  0.7859440782021727  0.7859439007264365  1.0000
  Te  Te5       1.0  0.21405607143213104  0.7859439442286726  0.21405619533424292  1.0000
  Te  Te6       1.0  0.7859437077633753  0.21405637558841958  0.7859435059909258  1.0000
