data_image0
_chemical_formula_structural       Tl2BO6
_chemical_formula_sum              "Tl2 B1 O6"
_cell_length_a       5.171677776868465
_cell_length_b       5.171677776263734
_cell_length_c       5.17167803286217
_cell_angle_alpha    60.000000602307196
_cell_angle_beta     60.00000277528186
_cell_angle_gamma    59.999997449898885

_space_group_name_H-M_alt    "P 1"
_space_group_IT_number       1

loop_
  _space_group_symop_operation_xyz
  'x, y, z'

loop_
  _atom_site_type_symbol
  _atom_site_label
  _atom_site_symmetry_multiplicity
  _atom_site_fract_x
  _atom_site_fract_y
  _atom_site_fract_z
  _atom_site_occupancy
  Tl  Tl1       1.0  0.25000004191404346  0.24999992257821002  0.25000010256370486  1.0000
  Tl  Tl2       1.0  0.749999916243758  0.7500000211295842  0.7500000015023888  1.0000
  B   B1        1.0  1.919033323538806e-07  0.999999966845514  0.9999999670321839  1.0000
  O   O1        1.0  0.20652234045635706  0.206522679067644  0.7934774207957226  1.0000
  O   O2        1.0  0.7934774086518829  0.7934776506530242  0.20652264312892388  1.0000
  O   O3        1.0  0.7934776504720247  0.20652227792005032  0.20652273921733047  1.0000
  O   O4        1.0  0.20652242383465935  0.7934775852697165  0.793477120801157  1.0000
  O   O5        1.0  0.20652229290860438  0.7934776251236875  0.2065226129579243  1.0000
  O   O6        1.0  0.7934778625195914  0.20652231621592115  0.7934772699061349  1.0000
