data_image0
_chemical_formula_structural       Tl2BiSe6
_chemical_formula_sum              "Tl2 Bi1 Se6"
_cell_length_a       7.0168335630556875
_cell_length_b       7.016823062036693
_cell_length_c       7.016834623068749
_cell_angle_alpha    60.00001642652914
_cell_angle_beta     59.99992282480613
_cell_angle_gamma    60.000061768917256

_space_group_name_H-M_alt    "P 1"
_space_group_IT_number       1

loop_
  _space_group_symop_operation_xyz
  'x, y, z'

loop_
  _atom_site_type_symbol
  _atom_site_label
  _atom_site_symmetry_multiplicity
  _atom_site_fract_x
  _atom_site_fract_y
  _atom_site_fract_z
  _atom_site_occupancy
  Tl  Tl1       1.0  0.25000031780840537  0.25000099555505284  0.24999920392708802  1.0000
  Tl  Tl2       1.0  0.7499989942926014  0.7499999234180683  0.7500020283881166  1.0000
  Bi  Bi1       1.0  0.999998801839958  3.7771384542899256e-06  5.800605040845503e-06  1.0000
  Se  Se1       1.0  0.2968332345754564  0.29683213600636654  0.7031679926892723  1.0000
  Se  Se2       1.0  0.7031648114014234  0.7031635222089371  0.29683604701868427  1.0000
  Se  Se3       1.0  0.7031639509426103  0.2968359624723446  0.29683614325064167  1.0000
  Se  Se4       1.0  0.29684521517095164  0.7031562921375175  0.7031556554865968  1.0000
  Se  Se5       1.0  0.2968378989175768  0.7031632308290131  0.2968364761903287  1.0000
  Se  Se6       1.0  0.7031569107337532  0.2968438198662476  0.7031604484663602  1.0000
