data_image0
_chemical_formula_structural       Tl2BaO6
_chemical_formula_sum              "Tl2 Ba1 O6"
_cell_length_a       5.958069667645523
_cell_length_b       5.958069927048887
_cell_length_c       5.958069838445775
_cell_angle_alpha    60.000001733825854
_cell_angle_beta     59.99999993017204
_cell_angle_gamma    60.0000014917396

_space_group_name_H-M_alt    "P 1"
_space_group_IT_number       1

loop_
  _space_group_symop_operation_xyz
  'x, y, z'

loop_
  _atom_site_type_symbol
  _atom_site_label
  _atom_site_symmetry_multiplicity
  _atom_site_fract_x
  _atom_site_fract_y
  _atom_site_fract_z
  _atom_site_occupancy
  Tl  Tl1       1.0  0.24999996226423865  0.25000006653584217  0.24999997295259188  1.0000
  Tl  Tl2       1.0  0.7500000408825396  0.7499998768772763  0.7500000417810928  1.0000
  Ba  Ba1       1.0  2.3394268016235494e-08  0.9999999588878657  0.9999999752910148  1.0000
  O   O1        1.0  0.30655947844026826  0.3065596007386426  0.6934404991518305  1.0000
  O   O2        1.0  0.6934404096161615  0.6934404495660249  0.30655961199302884  1.0000
  O   O3        1.0  0.6934404606870239  0.30655959212374323  0.30655946095806763  1.0000
  O   O4        1.0  0.306559586426803  0.6934404170687891  0.6934404821184278  1.0000
  O   O5        1.0  0.30655960386742326  0.6934404416848724  0.30655951096658807  1.0000
  O   O6        1.0  0.6934404428937176  0.30655958600812044  0.6934404431767709  1.0000
