data_image0
_chemical_formula_structural       Tl2BS6
_chemical_formula_sum              "Tl2 B1 S6"
_cell_length_a       6.635157618766769
_cell_length_b       6.635157460404096
_cell_length_c       6.635157844916384
_cell_angle_alpha    59.99999919104164
_cell_angle_beta     59.99999899153642
_cell_angle_gamma    59.999999852943475

_space_group_name_H-M_alt    "P 1"
_space_group_IT_number       1

loop_
  _space_group_symop_operation_xyz
  'x, y, z'

loop_
  _atom_site_type_symbol
  _atom_site_label
  _atom_site_symmetry_multiplicity
  _atom_site_fract_x
  _atom_site_fract_y
  _atom_site_fract_z
  _atom_site_occupancy
  Tl  Tl1       1.0  0.2500000032635953  0.2500000038503411  0.25000000140515016  1.0000
  Tl  Tl2       1.0  0.7500000210588532  0.7499999986301329  0.749999995999123  1.0000
  B   B1        1.0  0.9999999891541944  0.9999999907707928  3.113723042045509e-08  1.0000
  S   S1        1.0  0.21156954004450132  0.211569580886219  0.7884304422627741  1.0000
  S   S2        1.0  0.7884304713751695  0.7884304289776206  0.21156955187271229  1.0000
  S   S3        1.0  0.7884304391205721  0.21156956429858753  0.2115695308943701  1.0000
  S   S4        1.0  0.2115695621741392  0.7884304289526786  0.7884304600315281  1.0000
  S   S5        1.0  0.2115695419959004  0.788430440424577  0.2115695306342618  1.0000
  S   S6        1.0  0.7884304334932551  0.21156956759342033  0.7884304401899553  1.0000
