data_image0
_chemical_formula_structural       Tl2BeS6
_chemical_formula_sum              "Tl2 Be1 S6"
_cell_length_a       5.940621679917514
_cell_length_b       5.940620521456059
_cell_length_c       5.940620702729698
_cell_angle_alpha    60.0000040128
_cell_angle_beta     60.00000350858097
_cell_angle_gamma    60.00000240791907

_space_group_name_H-M_alt    "P 1"
_space_group_IT_number       1

loop_
  _space_group_symop_operation_xyz
  'x, y, z'

loop_
  _atom_site_type_symbol
  _atom_site_label
  _atom_site_symmetry_multiplicity
  _atom_site_fract_x
  _atom_site_fract_y
  _atom_site_fract_z
  _atom_site_occupancy
  Tl  Tl1       1.0  0.25000008107975524  0.24999982421071218  0.25000007989528505  1.0000
  Tl  Tl2       1.0  0.750000057357782  0.7500000127830138  0.7499999363017477  1.0000
  Be  Be1       1.0  8.118554059302318e-08  0.9999999896917868  7.566083644447291e-08  1.0000
  S   S1        1.0  0.2564002406458904  0.25640018487089383  0.7435998382184026  1.0000
  S   S2        1.0  0.7435999154234165  0.7435996108899402  0.2564001880958638  1.0000
  S   S3        1.0  0.7435996459624827  0.2564004272371118  0.25640012899605263  1.0000
  S   S4        1.0  0.25640013150237023  0.743599822085517  0.7435997100235713  1.0000
  S   S5        1.0  0.2564001891591962  0.7435997825429744  0.25640024238626635  1.0000
  S   S6        1.0  0.7435996704749185  0.25640033689605624  0.743599780406469  1.0000
