data_image0
_chemical_formula_structural       Tl2BaSe6
_chemical_formula_sum              "Tl2 Ba1 Se6"
_cell_length_a       7.586704491718181
_cell_length_b       7.586704695511933
_cell_length_c       7.58670445833346
_cell_angle_alpha    60.000000088496144
_cell_angle_beta     60.000000739709805
_cell_angle_gamma    59.99999785774272

_space_group_name_H-M_alt    "P 1"
_space_group_IT_number       1

loop_
  _space_group_symop_operation_xyz
  'x, y, z'

loop_
  _atom_site_type_symbol
  _atom_site_label
  _atom_site_symmetry_multiplicity
  _atom_site_fract_x
  _atom_site_fract_y
  _atom_site_fract_z
  _atom_site_occupancy
  Tl  Tl1       1.0  0.2500000086234147  0.24999995014961515  0.2500000240134686  1.0000
  Tl  Tl2       1.0  0.7499999910618889  0.7499999731379653  0.7499999911933523  1.0000
  Ba  Ba1       1.0  0.9999999752152473  1.2914644146087983e-07  0.9999999069581982  1.0000
  Se  Se1       1.0  0.30515533734777506  0.30515523859166443  0.694844760208817  1.0000
  Se  Se2       1.0  0.6948444273974645  0.6948445539351504  0.3051556144731978  1.0000
  Se  Se3       1.0  0.6948446696406443  0.3051553968417765  0.30515536996093495  1.0000
  Se  Se4       1.0  0.30515569804819426  0.6948444634869042  0.694844391230227  1.0000
  Se  Se5       1.0  0.30515541128870816  0.6948446364297212  0.30515547102906565  1.0000
  Se  Se6       1.0  0.6948444881840878  0.30515564685356383  0.6948444591013961  1.0000
