data_image0
_chemical_formula_structural       Tl2BeSe6
_chemical_formula_sum              "Tl2 Be1 Se6"
_cell_length_a       6.586798893023237
_cell_length_b       6.586798869459928
_cell_length_c       6.586798697523462
_cell_angle_alpha    60.000000912240786
_cell_angle_beta     60.00000107558952
_cell_angle_gamma    59.99999273335585

_space_group_name_H-M_alt    "P 1"
_space_group_IT_number       1

loop_
  _space_group_symop_operation_xyz
  'x, y, z'

loop_
  _atom_site_type_symbol
  _atom_site_label
  _atom_site_symmetry_multiplicity
  _atom_site_fract_x
  _atom_site_fract_y
  _atom_site_fract_z
  _atom_site_occupancy
  Tl  Tl1       1.0  0.24999998864162126  0.2500000037774741  0.25000000121134025  1.0000
  Tl  Tl2       1.0  0.7500000030762416  0.7499999629881958  0.7500000137850095  1.0000
  Be  Be1       1.0  2.4689475707759797e-07  1.3759507423560172e-07  0.9999998502643539  1.0000
  Se  Se1       1.0  0.2501100284955732  0.2501100613498881  0.7498899602772093  1.0000
  Se  Se2       1.0  0.7498899044509777  0.7498898924000348  0.25011010427636365  1.0000
  Se  Se3       1.0  0.7498900289540691  0.2501099369116725  0.25011000994801996  1.0000
  Se  Se4       1.0  0.25010990625899127  0.7498900205570367  0.7498900303582705  1.0000
  Se  Se5       1.0  0.25010992069497584  0.7498899758324555  0.2501099943469559  1.0000
  Se  Se6       1.0  0.7498899708862011  0.2501100020895826  0.7498900529940473  1.0000
