data_image0
_chemical_formula_structural       Tl2BiS6
_chemical_formula_sum              "Tl2 Bi1 S6"
_cell_length_a       6.920060224053279
_cell_length_b       6.9200600885986265
_cell_length_c       6.920060373984418
_cell_angle_alpha    60.00000010063875
_cell_angle_beta     60.00000044200026
_cell_angle_gamma    60.00000293711446

_space_group_name_H-M_alt    "P 1"
_space_group_IT_number       1

loop_
  _space_group_symop_operation_xyz
  'x, y, z'

loop_
  _atom_site_type_symbol
  _atom_site_label
  _atom_site_symmetry_multiplicity
  _atom_site_fract_x
  _atom_site_fract_y
  _atom_site_fract_z
  _atom_site_occupancy
  Tl  Tl1       1.0  0.24999996179966644  0.24999996285507745  0.25000005606984693  1.0000
  Tl  Tl2       1.0  0.7499999449952628  0.7500000301530059  0.7500000560569318  1.0000
  Bi  Bi1       1.0  0.9999999500220438  1.9999272676475846e-07  1.8922432817879064e-08  1.0000
  S   S1        1.0  0.25164850828065505  0.25164852146828853  0.7483515719085647  1.0000
  S   S2        1.0  0.7483514709911712  0.7483514042856065  0.251648575178786  1.0000
  S   S3        1.0  0.7483515246170497  0.25164844937205244  0.25164864083857247  1.0000
  S   S4        1.0  0.2516489220963255  0.7483510852456368  0.7483512007573985  1.0000
  S   S5        1.0  0.2516486117592152  0.7483514632290236  0.25164865218135507  1.0000
  S   S6        1.0  0.7483510777032661  0.25164890144695046  0.7483512006983681  1.0000
