data_image0
_chemical_formula_structural       Tl2BiO6
_chemical_formula_sum              "Tl2 Bi1 O6"
_cell_length_a       5.706127583109132
_cell_length_b       5.7061281525628855
_cell_length_c       5.706128397565314
_cell_angle_alpha    60.000003253459404
_cell_angle_beta     59.99999877108142
_cell_angle_gamma    60.00000378104199

_space_group_name_H-M_alt    "P 1"
_space_group_IT_number       1

loop_
  _space_group_symop_operation_xyz
  'x, y, z'

loop_
  _atom_site_type_symbol
  _atom_site_label
  _atom_site_symmetry_multiplicity
  _atom_site_fract_x
  _atom_site_fract_y
  _atom_site_fract_z
  _atom_site_occupancy
  Tl  Tl1       1.0  0.24999996585700524  0.24999997379288136  0.25000003880789984  1.0000
  Tl  Tl2       1.0  0.7499999935576449  0.750000052307058  0.7499998820435645  1.0000
  Bi  Bi1       1.0  1.7149880170527038e-08  0.9999999849754263  0.9999999673923152  1.0000
  O   O1        1.0  0.25345531402579646  0.2534552869562767  0.7465447366084308  1.0000
  O   O2        1.0  0.7465446430391032  0.7465446854844827  0.25345541028019447  1.0000
  O   O3        1.0  0.7465447194400234  0.25345522315587393  0.2534553882698903  1.0000
  O   O4        1.0  0.2534554244743945  0.7465446076246272  0.7465446273689964  1.0000
  O   O5        1.0  0.2534552544252553  0.7465447318135133  0.25345531126488  1.0000
  O   O6        1.0  0.7465446334052949  0.25345536940928654  0.7465445692621662  1.0000
