data_image0
_chemical_formula_structural       Tl2BiTe6
_chemical_formula_sum              "Tl2 Bi1 Te6"
_cell_length_a       7.752214024183784
_cell_length_b       7.752213762543547
_cell_length_c       7.752213905658354
_cell_angle_alpha    60.00000075815284
_cell_angle_beta     60.00000115419748
_cell_angle_gamma    60.000000727344876

_space_group_name_H-M_alt    "P 1"
_space_group_IT_number       1

loop_
  _space_group_symop_operation_xyz
  'x, y, z'

loop_
  _atom_site_type_symbol
  _atom_site_label
  _atom_site_symmetry_multiplicity
  _atom_site_fract_x
  _atom_site_fract_y
  _atom_site_fract_z
  _atom_site_occupancy
  Tl  Tl1       1.0  0.2499999667438148  0.2500000153780478  0.25000003947454374  1.0000
  Tl  Tl2       1.0  0.7500000322274223  0.7499999718805034  0.7499999734565944  1.0000
  Bi  Bi1       1.0  7.393340716376823e-08  2.8437561742619532e-08  0.9999997243625053  1.0000
  Te  Te1       1.0  0.28171853546920766  0.28171862233644734  0.718281369194203  1.0000
  Te  Te2       1.0  0.718281311257036  0.7182813033073788  0.28171862812115483  1.0000
  Te  Te3       1.0  0.7182812798011782  0.28171880628262164  0.2817186135417648  1.0000
  Te  Te4       1.0  0.28171841411446435  0.718281582261555  0.7182814699501366  1.0000
  Te  Te5       1.0  0.2817187700654039  0.7182812163477308  0.28171870703249013  1.0000
  Te  Te6       1.0  0.7182816243388025  0.28171844703856874  0.7182814739310333  1.0000
