data_image0
_chemical_formula_structural       Tl2BiO6
_chemical_formula_sum              "Tl2 Bi1 O6"
_cell_length_a       5.705908600172865
_cell_length_b       5.705908680591143
_cell_length_c       5.7059087509678355
_cell_angle_alpha    60.00000004017712
_cell_angle_beta     60.00000038614889
_cell_angle_gamma    59.99999898015716

_space_group_name_H-M_alt    "P 1"
_space_group_IT_number       1

loop_
  _space_group_symop_operation_xyz
  'x, y, z'

loop_
  _atom_site_type_symbol
  _atom_site_label
  _atom_site_symmetry_multiplicity
  _atom_site_fract_x
  _atom_site_fract_y
  _atom_site_fract_z
  _atom_site_occupancy
  Tl  Tl1       1.0  0.2499999931640306  0.250000078292988  0.24999989994087432  1.0000
  Tl  Tl2       1.0  0.750000025917885  0.7500000288197454  0.7500000600504093  1.0000
  Bi  Bi1       1.0  0.999999989390506  2.575740240238637e-08  0.9999999836631996  1.0000
  O   O1        1.0  0.2534624727901407  0.25346245065626327  0.7465375256068723  1.0000
  O   O2        1.0  0.7465375406521558  0.7465375276694589  0.2534624420103729  1.0000
  O   O3        1.0  0.7465376154365518  0.2534624345164875  0.25346238269763355  1.0000
  O   O4        1.0  0.2534623907702778  0.746537498733781  0.7465376391161791  1.0000
  O   O5        1.0  0.2534624152418549  0.7465375522382048  0.2534624401858149  1.0000
  O   O6        1.0  0.7465375432135295  0.2534624089159168  0.7465375933043626  1.0000
