data_image0
_chemical_formula_structural       Tl2BaS6
_chemical_formula_sum              "Tl2 Ba1 S6"
_cell_length_a       7.394813377751625
_cell_length_b       7.3948137997872685
_cell_length_c       7.39481332477237
_cell_angle_alpha    60.00000083009654
_cell_angle_beta     59.99999956355688
_cell_angle_gamma    60.000001594787705

_space_group_name_H-M_alt    "P 1"
_space_group_IT_number       1

loop_
  _space_group_symop_operation_xyz
  'x, y, z'

loop_
  _atom_site_type_symbol
  _atom_site_label
  _atom_site_symmetry_multiplicity
  _atom_site_fract_x
  _atom_site_fract_y
  _atom_site_fract_z
  _atom_site_occupancy
  Tl  Tl1       1.0  0.24999998003017115  0.2499999594317822  0.25000004651204916  1.0000
  Tl  Tl2       1.0  0.7500000033839896  0.7500000256990479  0.7499999625157004  1.0000
  Ba  Ba1       1.0  2.8675334754793575e-08  0.9999999701880147  9.793386645917459e-08  1.0000
  S   S1        1.0  0.3021885681889947  0.3021884240331476  0.6978114040875306  1.0000
  S   S2        1.0  0.6978114636641861  0.6978115047861576  0.3021885304431192  1.0000
  S   S3        1.0  0.6978115104798458  0.30218837813035265  0.3021885953295515  1.0000
  S   S4        1.0  0.30218840376815276  0.6978117676539479  0.6978113652499444  1.0000
  S   S5        1.0  0.30218840952377546  0.6978116366441456  0.3021885512048843  1.0000
  S   S6        1.0  0.6978116260666992  0.302188341861799  0.6978114458655443  1.0000
