data_image0
_chemical_formula_structural       Tl2BaTe6
_chemical_formula_sum              "Tl2 Ba1 Te6"
_cell_length_a       8.15826713897576
_cell_length_b       8.158266928298486
_cell_length_c       8.158266987244346
_cell_angle_alpha    60.00000002340113
_cell_angle_beta     59.99999996482097
_cell_angle_gamma    60.00000026163751

_space_group_name_H-M_alt    "P 1"
_space_group_IT_number       1

loop_
  _space_group_symop_operation_xyz
  'x, y, z'

loop_
  _atom_site_type_symbol
  _atom_site_label
  _atom_site_symmetry_multiplicity
  _atom_site_fract_x
  _atom_site_fract_y
  _atom_site_fract_z
  _atom_site_occupancy
  Tl  Tl1       1.0  0.2499999874467443  0.2500000102437364  0.25000000365494457  1.0000
  Tl  Tl2       1.0  0.7500000137377392  0.7499999826917961  0.7500000019312836  1.0000
  Ba  Ba1       1.0  0.9999999863466628  0.9999999984987684  3.822104749796181e-08  1.0000
  Te  Te1       1.0  0.29563177528284185  0.2956318055681266  0.7043682127226565  1.0000
  Te  Te2       1.0  0.7043682223840373  0.704368223396966  0.2956317851878476  1.0000
  Te  Te3       1.0  0.7043682066452375  0.2956317956123854  0.29563178398994316  1.0000
  Te  Te4       1.0  0.295631798370817  0.7043681943206838  0.7043681905379683  1.0000
  Te  Te5       1.0  0.29563180096071506  0.7043681860952913  0.29563179318473537  1.0000
  Te  Te6       1.0  0.7043682149637837  0.29563180083531454  0.7043681970021938  1.0000
