data_image0
_chemical_formula_structural       Tl2CuS6
_chemical_formula_sum              "Tl2 Cu1 S6"
_cell_length_a       6.284840505890948
_cell_length_b       6.284841790292466
_cell_length_c       6.284840380641084
_cell_angle_alpha    60.00000467018633
_cell_angle_beta     60.00000371433847
_cell_angle_gamma    60.00000872313454

_space_group_name_H-M_alt    "P 1"
_space_group_IT_number       1

loop_
  _space_group_symop_operation_xyz
  'x, y, z'

loop_
  _atom_site_type_symbol
  _atom_site_label
  _atom_site_symmetry_multiplicity
  _atom_site_fract_x
  _atom_site_fract_y
  _atom_site_fract_z
  _atom_site_occupancy
  Tl  Tl1       1.0  0.25000004736205367  0.24999998451149016  0.2499998891219926  1.0000
  Tl  Tl2       1.0  0.7499998811925671  0.7499999535344543  0.7500000126153683  1.0000
  Cu  Cu1       1.0  0.9999999834295087  0.9999998733326788  0.9999999618309174  1.0000
  S   S1        1.0  0.2588626625227846  0.2588628040542449  0.7411373228970983  1.0000
  S   S2        1.0  0.7411372753073089  0.741137354197966  0.25886263116807084  1.0000
  S   S3        1.0  0.7411373854742178  0.2588627709007373  0.25886268600177803  1.0000
  S   S4        1.0  0.258862526207298  0.7411373776078279  0.7411373942063634  1.0000
  S   S5        1.0  0.2588627998151831  0.7411372949242686  0.258862803860247  1.0000
  S   S6        1.0  0.7411373912283188  0.25886268794241485  0.7411372704040219  1.0000
