data_image0
_chemical_formula_structural       Tl2CdSe6
_chemical_formula_sum              "Tl2 Cd1 Se6"
_cell_length_a       6.901622237607363
_cell_length_b       6.901622106727518
_cell_length_c       6.901621033635972
_cell_angle_alpha    59.99999982993004
_cell_angle_beta     59.999997415985376
_cell_angle_gamma    60.000002856329914

_space_group_name_H-M_alt    "P 1"
_space_group_IT_number       1

loop_
  _space_group_symop_operation_xyz
  'x, y, z'

loop_
  _atom_site_type_symbol
  _atom_site_label
  _atom_site_symmetry_multiplicity
  _atom_site_fract_x
  _atom_site_fract_y
  _atom_site_fract_z
  _atom_site_occupancy
  Tl  Tl1       1.0  0.24999998738704626  0.2500002975427859  0.24999975682728845  1.0000
  Tl  Tl2       1.0  0.7500000823715459  0.749999794166214  0.7499997306290708  1.0000
  Cd  Cd1       1.0  0.9999992025240537  0.9999993256612915  2.034153129477706e-06  1.0000
  Se  Se1       1.0  0.29525184138256405  0.29525277139093437  0.7047473380263612  1.0000
  Se  Se2       1.0  0.704748938297683  0.7047477604127791  0.2952517859662556  1.0000
  Se  Se3       1.0  0.7047478656295828  0.2952517544682012  0.2952522248446721  1.0000
  Se  Se4       1.0  0.2952523959049751  0.704747551103909  0.7047479698407626  1.0000
  Se  Se5       1.0  0.29525142304722635  0.7047480082601498  0.29525180558634717  1.0000
  Se  Se6       1.0  0.704748338147231  0.2952524720808495  0.7047473607427015  1.0000
