data_image0
_chemical_formula_structural       Tl2CuSe6
_chemical_formula_sum              "Tl2 Cu1 Se6"
_cell_length_a       6.599395807919992
_cell_length_b       6.599396726782076
_cell_length_c       6.5993967469468044
_cell_angle_alpha    59.99999907487251
_cell_angle_beta     59.999997106732756
_cell_angle_gamma    59.999996256237324

_space_group_name_H-M_alt    "P 1"
_space_group_IT_number       1

loop_
  _space_group_symop_operation_xyz
  'x, y, z'

loop_
  _atom_site_type_symbol
  _atom_site_label
  _atom_site_symmetry_multiplicity
  _atom_site_fract_x
  _atom_site_fract_y
  _atom_site_fract_z
  _atom_site_occupancy
  Tl  Tl1       1.0  0.2499999125492097  0.2500000267796887  0.2500000483471259  1.0000
  Tl  Tl2       1.0  0.7500001116087686  0.7500000135286722  0.7499999399461499  1.0000
  Cu  Cu1       1.0  0.999999956975842  3.600336789343003e-07  0.9999998914998073  1.0000
  Se  Se1       1.0  0.2844845061557948  0.28448425200564714  0.7155156310859897  1.0000
  Se  Se2       1.0  0.7155151412029125  0.7155154227015278  0.28448470567816153  1.0000
  Se  Se3       1.0  0.7155154392247026  0.2844846165821058  0.28448435931352484  1.0000
  Se  Se4       1.0  0.2844848680158098  0.715515351348338  0.7155153175480049  1.0000
  Se  Se5       1.0  0.28448474250690275  0.7155154102924891  0.2844844037493429  1.0000
  Se  Se6       1.0  0.7155153150380598  0.2844845613496517  0.7155156931009526  1.0000
