data_image0
_chemical_formula_structural       Tl2CaTe6
_chemical_formula_sum              "Tl2 Ca1 Te6"
_cell_length_a       7.85509211823865
_cell_length_b       7.855092116738552
_cell_length_c       7.855091938973419
_cell_angle_alpha    60.000000534618756
_cell_angle_beta     60.00000069078708
_cell_angle_gamma    60.00000123792339

_space_group_name_H-M_alt    "P 1"
_space_group_IT_number       1

loop_
  _space_group_symop_operation_xyz
  'x, y, z'

loop_
  _atom_site_type_symbol
  _atom_site_label
  _atom_site_symmetry_multiplicity
  _atom_site_fract_x
  _atom_site_fract_y
  _atom_site_fract_z
  _atom_site_occupancy
  Tl  Tl1       1.0  0.2499999899843053  0.2500000001670144  0.24999998664134507  1.0000
  Tl  Tl2       1.0  0.7500000029910372  0.7499999895868315  0.750000001057523  1.0000
  Ca  Ca1       1.0  1.9288373991784876e-08  0.9999999906449611  1.1979317074329693e-07  1.0000
  Te  Te1       1.0  0.286260007667449  0.28626002541938594  0.7137399549782363  1.0000
  Te  Te2       1.0  0.7137400387018117  0.7137400422931173  0.2862598982991268  1.0000
  Te  Te3       1.0  0.7137400093790586  0.2862600066594825  0.28625999398049884  1.0000
  Te  Te4       1.0  0.28625998413130727  0.7137399550292469  0.7137399972989392  1.0000
  Te  Te5       1.0  0.2862599833831084  0.7137399933828076  0.28626002586328597  1.0000
  Te  Te6       1.0  0.7137399683429928  0.28626000104855714  0.7137400094018135  1.0000
