data_image0
_chemical_formula_structural       Tl2CaS6
_chemical_formula_sum              "Tl2 Ca1 S6"
_cell_length_a       7.060574684286581
_cell_length_b       7.060574394775715
_cell_length_c       7.060574699356336
_cell_angle_alpha    59.9999987570892
_cell_angle_beta     59.9999982484168
_cell_angle_gamma    60.0000022123097

_space_group_name_H-M_alt    "P 1"
_space_group_IT_number       1

loop_
  _space_group_symop_operation_xyz
  'x, y, z'

loop_
  _atom_site_type_symbol
  _atom_site_label
  _atom_site_symmetry_multiplicity
  _atom_site_fract_x
  _atom_site_fract_y
  _atom_site_fract_z
  _atom_site_occupancy
  Tl  Tl1       1.0  0.24999999980860363  0.2500000081685956  0.24999999747774276  1.0000
  Tl  Tl2       1.0  0.7499999810393715  0.7500000453212857  0.7499999813044916  1.0000
  Ca  Ca1       1.0  0.9999999689099983  2.9488623673280992e-08  3.4792256719155894e-08  1.0000
  S   S1        1.0  0.28976458263139526  0.28976461968125117  0.7102353772447094  1.0000
  S   S2        1.0  0.7102352378150858  0.710235326261874  0.2897647043527153  1.0000
  S   S3        1.0  0.71023546536852  0.2897645718574694  0.28976457231306035  1.0000
  S   S4        1.0  0.28976468766346103  0.7102353428624201  0.7102353047832465  1.0000
  S   S5        1.0  0.2897645908366577  0.7102354780841087  0.28976457513915527  1.0000
  S   S6        1.0  0.7102354783239984  0.2897645754057773  0.7102354600451217  1.0000
