data_image0
_chemical_formula_structural       Tl2CrO6
_chemical_formula_sum              "Tl2 Cr1 O6"
_cell_length_a       5.337652971470058
_cell_length_b       5.337652228239801
_cell_length_c       5.337652776705762
_cell_angle_alpha    59.99999979464701
_cell_angle_beta     60.00000118994335
_cell_angle_gamma    59.999998817080844

_space_group_name_H-M_alt    "P 1"
_space_group_IT_number       1

loop_
  _space_group_symop_operation_xyz
  'x, y, z'

loop_
  _atom_site_type_symbol
  _atom_site_label
  _atom_site_symmetry_multiplicity
  _atom_site_fract_x
  _atom_site_fract_y
  _atom_site_fract_z
  _atom_site_occupancy
  Tl  Tl1       1.0  0.2500001767336946  0.24999983524498318  0.2500001258444284  1.0000
  Tl  Tl2       1.0  0.7499999859761143  0.7500001000204299  0.7500002475880144  1.0000
  Cr  Cr1       1.0  3.6536354190076454e-08  0.9999999747600792  7.865850305647247e-08  1.0000
  O   O1        1.0  0.23775288484334828  0.23775292340034673  0.7622468623973669  1.0000
  O   O2        1.0  0.7622469461561516  0.7622471633045722  0.23775260822466365  1.0000
  O   O3        1.0  0.7622471150744454  0.23775277542429407  0.23775308681185273  1.0000
  O   O4        1.0  0.23775299012203524  0.76224715066295  0.7622469321554249  1.0000
  O   O5        1.0  0.23775287619147367  0.7622473174974568  0.23775298916064833  1.0000
  O   O6        1.0  0.762246988524926  0.237752778385642  0.7622471494554672  1.0000
