data_image0
_chemical_formula_structural       Tl2CdO6
_chemical_formula_sum              "Tl2 Cd1 O6"
_cell_length_a       5.457665843116907
_cell_length_b       5.457666407670485
_cell_length_c       5.457665768330171
_cell_angle_alpha    60.00000142129893
_cell_angle_beta     60.00000492847122
_cell_angle_gamma    60.00000144055969

_space_group_name_H-M_alt    "P 1"
_space_group_IT_number       1

loop_
  _space_group_symop_operation_xyz
  'x, y, z'

loop_
  _atom_site_type_symbol
  _atom_site_label
  _atom_site_symmetry_multiplicity
  _atom_site_fract_x
  _atom_site_fract_y
  _atom_site_fract_z
  _atom_site_occupancy
  Tl  Tl1       1.0  0.25000023893765566  0.2499998068522808  0.2500001780477454  1.0000
  Tl  Tl2       1.0  0.7499997467034137  0.7500000331911588  0.7499999946250274  1.0000
  Cd  Cd1       1.0  0.9999997598650165  5.36335496174277e-07  0.9999998592288663  1.0000
  O   O1        1.0  0.27611139520837363  0.27611123023743905  0.7238886350001694  1.0000
  O   O2        1.0  0.7238885205471868  0.7238887242541702  0.27611131383990084  1.0000
  O   O3        1.0  0.7238883134480846  0.27611143531362065  0.2761115925858782  1.0000
  O   O4        1.0  0.27611194775261333  0.7238883778008395  0.7238883494990407  1.0000
  O   O5        1.0  0.2761116169472939  0.7238882115701862  0.276111844412755  1.0000
  O   O6        1.0  0.7238883704024712  0.276111686819375  0.7238882725806158  1.0000
