data_image0
_chemical_formula_structural       Tl2CaO6
_chemical_formula_sum              "Tl2 Ca1 O6"
_cell_length_a       5.587195215419183
_cell_length_b       5.587195280251522
_cell_length_c       5.587195297980176
_cell_angle_alpha    60.000001584261014
_cell_angle_beta     60.000000672912606
_cell_angle_gamma    60.00000069867631

_space_group_name_H-M_alt    "P 1"
_space_group_IT_number       1

loop_
  _space_group_symop_operation_xyz
  'x, y, z'

loop_
  _atom_site_type_symbol
  _atom_site_label
  _atom_site_symmetry_multiplicity
  _atom_site_fract_x
  _atom_site_fract_y
  _atom_site_fract_z
  _atom_site_occupancy
  Tl  Tl1       1.0  0.2499999638887662  0.2500000039992716  0.249999985827115  1.0000
  Tl  Tl2       1.0  0.7500000129133931  0.7499999396599463  0.7500000099884234  1.0000
  Ca  Ca1       1.0  0.999999982714278  3.945701917561109e-08  0.9999999620672501  1.0000
  O   O1        1.0  0.2851614272341306  0.2851614567971683  0.7148385537511249  1.0000
  O   O2        1.0  0.7148385657862968  0.714838611809279  0.2851614538127781  1.0000
  O   O3        1.0  0.7148386219063297  0.285161431961384  0.285161466703504  1.0000
  O   O4        1.0  0.28516140268045204  0.714838498545496  0.7148386496110141  1.0000
  O   O5        1.0  0.2851614106817336  0.714838533852704  0.2851614497010047  1.0000
  O   O6        1.0  0.7148385914830171  0.28516148872055236  0.7148384760781521  1.0000
