data_image0
_chemical_formula_structural       Tl2CrS6
_chemical_formula_sum              "Tl2 Cr1 S6"
_cell_length_a       6.3002125915449
_cell_length_b       6.300213982095047
_cell_length_c       6.300212148594249
_cell_angle_alpha    60.000006215437814
_cell_angle_beta     59.99999697453042
_cell_angle_gamma    60.00000383709064

_space_group_name_H-M_alt    "P 1"
_space_group_IT_number       1

loop_
  _space_group_symop_operation_xyz
  'x, y, z'

loop_
  _atom_site_type_symbol
  _atom_site_label
  _atom_site_symmetry_multiplicity
  _atom_site_fract_x
  _atom_site_fract_y
  _atom_site_fract_z
  _atom_site_occupancy
  Tl  Tl1       1.0  0.24999997616361297  0.24999999303670878  0.2500000108597333  1.0000
  Tl  Tl2       1.0  0.7500000313497799  0.7499999674462833  0.7500000266628504  1.0000
  Cr  Cr1       1.0  1.7381374380636705e-07  3.363073713185734e-07  0.9999997274796972  1.0000
  S   S1        1.0  0.2522995618735154  0.25229896930423307  0.74770077824138  1.0000
  S   S2        1.0  0.7477006179608637  0.747700925083662  0.2522992680709309  1.0000
  S   S3        1.0  0.7477007715590214  0.25229900306866954  0.2522993173355531  1.0000
  S   S4        1.0  0.252298995727815  0.7477009962937937  0.7477008621290333  1.0000
  S   S5        1.0  0.2522990632921626  0.7477007857662769  0.25229922389257325  1.0000
  S   S6        1.0  0.7477008145025255  0.25229902503077956  0.747700808892759  1.0000
