data_image0
_chemical_formula_structural       Tl2CuO6
_chemical_formula_sum              "Tl2 Cu1 O6"
_cell_length_a       5.263312312647321
_cell_length_b       5.263312645458395
_cell_length_c       5.263312287578038
_cell_angle_alpha    60.000002390985706
_cell_angle_beta     60.000001292898084
_cell_angle_gamma    60.000002262032595

_space_group_name_H-M_alt    "P 1"
_space_group_IT_number       1

loop_
  _space_group_symop_operation_xyz
  'x, y, z'

loop_
  _atom_site_type_symbol
  _atom_site_label
  _atom_site_symmetry_multiplicity
  _atom_site_fract_x
  _atom_site_fract_y
  _atom_site_fract_z
  _atom_site_occupancy
  Tl  Tl1       1.0  0.25000011101290015  0.250000005106873  0.2499999360332838  1.0000
  Tl  Tl2       1.0  0.7499999975330193  0.7499999687816843  0.750000073219983  1.0000
  Cu  Cu1       1.0  1.6376042821936745e-08  2.3269467760480462e-08  0.9999999117792513  1.0000
  O   O1        1.0  0.25108445976336974  0.25108442145408105  0.7489155318756311  1.0000
  O   O2        1.0  0.7489155260362652  0.7489155850117314  0.2510844217651032  1.0000
  O   O3        1.0  0.7489154248121518  0.2510846025245734  0.2510844269351414  1.0000
  O   O4        1.0  0.2510843476272688  0.7489154714226954  0.748915683242518  1.0000
  O   O5        1.0  0.2510845493943894  0.7489154611239239  0.25108453420298865  1.0000
  O   O6        1.0  0.7489155638282559  0.25108445924485767  0.7489155184712456  1.0000
