data_image0
_chemical_formula_structural       Tl2CrTe6
_chemical_formula_sum              "Tl2 Cr1 Te6"
_cell_length_a       7.259672867744831
_cell_length_b       7.25967394639839
_cell_length_c       7.2596745545522205
_cell_angle_alpha    59.999994795033125
_cell_angle_beta     59.99999669982613
_cell_angle_gamma    59.99999719766694

_space_group_name_H-M_alt    "P 1"
_space_group_IT_number       1

loop_
  _space_group_symop_operation_xyz
  'x, y, z'

loop_
  _atom_site_type_symbol
  _atom_site_label
  _atom_site_symmetry_multiplicity
  _atom_site_fract_x
  _atom_site_fract_y
  _atom_site_fract_z
  _atom_site_occupancy
  Tl  Tl1       1.0  0.25000003348261446  0.250000020293948  0.24999992345390715  1.0000
  Tl  Tl2       1.0  0.7499999807390231  0.7499999714680687  0.7500000815438495  1.0000
  Cr  Cr1       1.0  0.9999998996674414  0.9999998954027617  1.3276928583248584e-07  1.0000
  Te  Te1       1.0  0.2632778290455043  0.2632777654772041  0.7367221371222724  1.0000
  Te  Te2       1.0  0.7367220895987198  0.7367221503674674  0.26327787097452887  1.0000
  Te  Te3       1.0  0.7367225686622425  0.2632775722975819  0.263278007688608  1.0000
  Te  Te4       1.0  0.26327750694644414  0.7367225645509258  0.7367219174894055  1.0000
  Te  Te5       1.0  0.26327747375128996  0.7367225297874216  0.2632780533748752  1.0000
  Te  Te6       1.0  0.7367225984364664  0.26327753620489286  0.7367218813922571  1.0000
