data_image0
_chemical_formula_structural       Tl2CS6
_chemical_formula_sum              "Tl2 C1 S6"
_cell_length_a       6.206021450827951
_cell_length_b       6.206022005381359
_cell_length_c       6.206019437086468
_cell_angle_alpha    60.00000016161259
_cell_angle_beta     60.00000919639815
_cell_angle_gamma    60.000010984931116

_space_group_name_H-M_alt    "P 1"
_space_group_IT_number       1

loop_
  _space_group_symop_operation_xyz
  'x, y, z'

loop_
  _atom_site_type_symbol
  _atom_site_label
  _atom_site_symmetry_multiplicity
  _atom_site_fract_x
  _atom_site_fract_y
  _atom_site_fract_z
  _atom_site_occupancy
  Tl  Tl1       1.0  0.2499997637584964  0.25000010120133875  0.24999999900705488  1.0000
  Tl  Tl2       1.0  0.750000165070343  0.7500001773014779  0.7499997586274699  1.0000
  C   C1        1.0  0.9999984796955576  0.9999997493679285  2.380790719798434e-06  1.0000
  S   S1        1.0  0.22468879489510685  0.22468816385735685  0.7753118999569251  1.0000
  S   S2        1.0  0.7753119608128266  0.7753134408227025  0.22468742246213422  1.0000
  S   S3        1.0  0.7753125698867581  0.2246867164108452  0.22468701745960262  1.0000
  S   S4        1.0  0.22468924899377368  0.7753109117112388  0.7753121277549818  1.0000
  S   S5        1.0  0.22468784651348123  0.7753126329151765  0.22468655146644714  1.0000
  S   S6        1.0  0.7753111622049215  0.22468818434716034  0.7753127925914365  1.0000
