data_image0
_chemical_formula_structural       Tl2CO6
_chemical_formula_sum              "Tl2 C1 O6"
_cell_length_a       5.076619001390745
_cell_length_b       5.076619106080712
_cell_length_c       5.07661931386861
_cell_angle_alpha    60.000000895333756
_cell_angle_beta     59.99999785531598
_cell_angle_gamma    60.000001153692864

_space_group_name_H-M_alt    "P 1"
_space_group_IT_number       1

loop_
  _space_group_symop_operation_xyz
  'x, y, z'

loop_
  _atom_site_type_symbol
  _atom_site_label
  _atom_site_symmetry_multiplicity
  _atom_site_fract_x
  _atom_site_fract_y
  _atom_site_fract_z
  _atom_site_occupancy
  Tl  Tl1       1.0  0.24999999097743467  0.25000005010051707  0.2499999742605161  1.0000
  Tl  Tl2       1.0  0.7499999991940823  0.7500000851634934  0.7499999441895016  1.0000
  C   C1        1.0  0.9999999939257391  0.9999991652678523  4.873768942382253e-07  1.0000
  O   O1        1.0  0.21408274254295284  0.21408290627163817  0.785917219660359  1.0000
  O   O2        1.0  0.7859174173680283  0.7859173134305996  0.21408267216137036  1.0000
  O   O3        1.0  0.7859171975190342  0.21408280222084605  0.21408271562903272  1.0000
  O   O4        1.0  0.21408274550586326  0.7859174198939104  0.7859172735804053  1.0000
  O   O5        1.0  0.21408274998973212  0.7859174219660097  0.21408254515975655  1.0000
  O   O6        1.0  0.785917169828438  0.21408290388712792  0.7859171260399656  1.0000
