data_image0
_chemical_formula_structural       Tl2CdTe6
_chemical_formula_sum              "Tl2 Cd1 Te6"
_cell_length_a       7.594110547276938
_cell_length_b       7.594109792729936
_cell_length_c       7.594109167199831
_cell_angle_alpha    60.00000528972099
_cell_angle_beta     60.0000053209031
_cell_angle_gamma    60.00000129229091

_space_group_name_H-M_alt    "P 1"
_space_group_IT_number       1

loop_
  _space_group_symop_operation_xyz
  'x, y, z'

loop_
  _atom_site_type_symbol
  _atom_site_label
  _atom_site_symmetry_multiplicity
  _atom_site_fract_x
  _atom_site_fract_y
  _atom_site_fract_z
  _atom_site_occupancy
  Tl  Tl1       1.0  0.2500000735377882  0.24999988673668092  0.2500000953544474  1.0000
  Tl  Tl2       1.0  0.7499998785485534  0.750000189194096  0.749999937142565  1.0000
  Cd  Cd1       1.0  0.999999599486251  1.3869704537814245e-07  2.1913463640158328e-07  1.0000
  Te  Te1       1.0  0.28071866576916155  0.28071763736106836  0.7192817448014491  1.0000
  Te  Te2       1.0  0.7192816322897468  0.7192824224421401  0.2807180200618706  1.0000
  Te  Te3       1.0  0.7192819284680219  0.28071778227432415  0.2807187032215162  1.0000
  Te  Te4       1.0  0.2807182038753636  0.7192819307862881  0.719281390295415  1.0000
  Te  Te5       1.0  0.28071801264553486  0.7192820620378038  0.2807183674402808  1.0000
  Te  Te6       1.0  0.7192820126419419  0.28071794938271666  0.719281509278124  1.0000
