data_image0
_chemical_formula_structural       Tl2CoSe6
_chemical_formula_sum              "Tl2 Co1 Se6"
_cell_length_a       6.674121418741027
_cell_length_b       6.674120621484472
_cell_length_c       6.67412147385375
_cell_angle_alpha    59.999997763345334
_cell_angle_beta     60.00000391712285
_cell_angle_gamma    59.99999767429901

_space_group_name_H-M_alt    "P 1"
_space_group_IT_number       1

loop_
  _space_group_symop_operation_xyz
  'x, y, z'

loop_
  _atom_site_type_symbol
  _atom_site_label
  _atom_site_symmetry_multiplicity
  _atom_site_fract_x
  _atom_site_fract_y
  _atom_site_fract_z
  _atom_site_occupancy
  Tl  Tl1       1.0  0.25000001716290593  0.24999998422295314  0.24999997548090802  1.0000
  Tl  Tl2       1.0  0.7499999877352467  0.7500000297416156  0.7499999632344924  1.0000
  Co  Co1       1.0  6.727084096870402e-08  0.9999996476674036  3.672795558760552e-07  1.0000
  Se  Se1       1.0  0.2474745955577036  0.24747500701745007  0.7525252186802145  1.0000
  Se  Se2       1.0  0.7525254177420162  0.7525252620212396  0.24747469168173916  1.0000
  Se  Se3       1.0  0.7525251564609986  0.24747497662525927  0.24747461359425849  1.0000
  Se  Se4       1.0  0.24747451048573701  0.7525251584536387  0.7525253211653362  1.0000
  Se  Se5       1.0  0.2474748154277424  0.7525251917696374  0.24747464565806218  1.0000
  Se  Se6       1.0  0.7525254167633237  0.24747475796763488  0.7525251815580447  1.0000
