data_image0
_chemical_formula_structural       Tl2CoTe6
_chemical_formula_sum              "Tl2 Co1 Te6"
_cell_length_a       7.196965975369138
_cell_length_b       7.196965418673707
_cell_length_c       7.196965738252536
_cell_angle_alpha    59.99999922759598
_cell_angle_beta     59.99999702248488
_cell_angle_gamma    60.00000036567299

_space_group_name_H-M_alt    "P 1"
_space_group_IT_number       1

loop_
  _space_group_symop_operation_xyz
  'x, y, z'

loop_
  _atom_site_type_symbol
  _atom_site_label
  _atom_site_symmetry_multiplicity
  _atom_site_fract_x
  _atom_site_fract_y
  _atom_site_fract_z
  _atom_site_occupancy
  Tl  Tl1       1.0  0.2500000338837616  0.25000005847663137  0.24999988782490562  1.0000
  Tl  Tl2       1.0  0.749999997675062  0.7499999627109231  0.7500000622013954  1.0000
  Co  Co1       1.0  9.059311480197082e-08  1.701751673594692e-08  0.9999997850156455  1.0000
  Te  Te1       1.0  0.24177376177504858  0.2417735702872295  0.758226301652321  1.0000
  Te  Te2       1.0  0.7582263970840595  0.7582264781283529  0.24177338353076938  1.0000
  Te  Te3       1.0  0.7582264605586176  0.24177356716491363  0.24177344117111685  1.0000
  Te  Te4       1.0  0.241773247956985  0.7582265952680316  0.7582266650594087  1.0000
  Te  Te5       1.0  0.24177349998748962  0.7582264658317656  0.2417736199382278  1.0000
  Te  Te6       1.0  0.7582265154187502  0.24177325244397915  0.7582268897889097  1.0000
