data_image0
_chemical_formula_structural       Tl2CaSe6
_chemical_formula_sum              "Tl2 Ca1 Se6"
_cell_length_a       7.209794075107895
_cell_length_b       7.209793661780231
_cell_length_c       7.209794704995233
_cell_angle_alpha    59.999998547075165
_cell_angle_beta     59.99999615377073
_cell_angle_gamma    60.00000559220314

_space_group_name_H-M_alt    "P 1"
_space_group_IT_number       1

loop_
  _space_group_symop_operation_xyz
  'x, y, z'

loop_
  _atom_site_type_symbol
  _atom_site_label
  _atom_site_symmetry_multiplicity
  _atom_site_fract_x
  _atom_site_fract_y
  _atom_site_fract_z
  _atom_site_occupancy
  Tl  Tl1       1.0  0.24999999458045377  0.2500000066191824  0.24999997857936956  1.0000
  Tl  Tl2       1.0  0.750000002960226  0.750000019857551  0.749999973286744  1.0000
  Ca  Ca1       1.0  3.714428029169326e-08  0.9999999558331819  0.9999999840932389  1.0000
  Se  Se1       1.0  0.2943346861320761  0.29433441059324433  0.7056652509563772  1.0000
  Se  Se2       1.0  0.7056654837068883  0.7056651470357008  0.2943344608239023  1.0000
  Se  Se3       1.0  0.7056651753048474  0.29433494347326994  0.2943347588725443  1.0000
  Se  Se4       1.0  0.2943340163226613  0.7056659680385599  0.7056659592808229  1.0000
  Se  Se5       1.0  0.2943346215618235  0.7056654566796644  0.29433410036198954  1.0000
  Se  Se6       1.0  0.7056659836299786  0.29433408735953437  0.7056655323019353  1.0000
