data_image0
_chemical_formula_structural       Tl2CoO6
_chemical_formula_sum              "Tl2 Co1 O6"
_cell_length_a       5.258518977446971
_cell_length_b       5.2585189234138525
_cell_length_c       5.258518624148864
_cell_angle_alpha    60.00000226760597
_cell_angle_beta     60.000003396549694
_cell_angle_gamma    60.00000263142161

_space_group_name_H-M_alt    "P 1"
_space_group_IT_number       1

loop_
  _space_group_symop_operation_xyz
  'x, y, z'

loop_
  _atom_site_type_symbol
  _atom_site_label
  _atom_site_symmetry_multiplicity
  _atom_site_fract_x
  _atom_site_fract_y
  _atom_site_fract_z
  _atom_site_occupancy
  Tl  Tl1       1.0  0.25000003241492114  0.24999997128995996  0.2499999911903773  1.0000
  Tl  Tl2       1.0  0.750000112703322  0.7499999860709897  0.7499999202329167  1.0000
  Co  Co1       1.0  0.9999999699010264  4.658135718413241e-09  1.0019752640925213e-07  1.0000
  O   O1        1.0  0.2429069303385283  0.24290696676945236  0.7570930497157905  1.0000
  O   O2        1.0  0.7570930304144344  0.7570930627926046  0.24290689687114983  1.0000
  O   O3        1.0  0.7570929600957109  0.24290697320836954  0.24290709106974778  1.0000
  O   O4        1.0  0.24290692883681722  0.7570930610118225  0.7570929651653919  1.0000
  O   O5        1.0  0.2429069031117864  0.757093054061531  0.24290700760861939  1.0000
  O   O6        1.0  0.7570930289845658  0.24290694289357284  0.7570929715117787  1.0000
