data_image0
_chemical_formula_structural       Tl2FeS6
_chemical_formula_sum              "Tl2 Fe1 S6"
_cell_length_a       6.469916652534935
_cell_length_b       6.469914993034448
_cell_length_c       6.469915324256271
_cell_angle_alpha    60.000000656462255
_cell_angle_beta     60.00000292572856
_cell_angle_gamma    60.000000015456095

_space_group_name_H-M_alt    "P 1"
_space_group_IT_number       1

loop_
  _space_group_symop_operation_xyz
  'x, y, z'

loop_
  _atom_site_type_symbol
  _atom_site_label
  _atom_site_symmetry_multiplicity
  _atom_site_fract_x
  _atom_site_fract_y
  _atom_site_fract_z
  _atom_site_occupancy
  Tl  Tl1       1.0  0.2500000757908504  0.24999998353212682  0.2500000026951687  1.0000
  Tl  Tl2       1.0  0.7500000768774149  0.7500000433526117  0.7499999395812018  1.0000
  Fe  Fe1       1.0  5.094658488510894e-08  0.9999999488894189  0.9999999722609206  1.0000
  S   S1        1.0  0.23842608708215426  0.23842617900831556  0.7615738419273042  1.0000
  S   S2        1.0  0.7615737700428833  0.7615738724852074  0.2384261693548398  1.0000
  S   S3        1.0  0.7615738510799118  0.23842619052512481  0.23842606578597142  1.0000
  S   S4        1.0  0.23842613782694613  0.7615738136437918  0.761573937271097  1.0000
  S   S5        1.0  0.23842620925751756  0.7615738318183782  0.23842606125805407  1.0000
  S   S6        1.0  0.7615738194545421  0.2384261439557722  0.7615739314569493  1.0000
