data_image0
_chemical_formula_structural       Tl2FeTe6
_chemical_formula_sum              "Tl2 Fe1 Te6"
_cell_length_a       7.669859049671074
_cell_length_b       7.669858955232962
_cell_length_c       7.66985884733203
_cell_angle_alpha    60.000001008469674
_cell_angle_beta     60.00000009106723
_cell_angle_gamma    60.00000006322371

_space_group_name_H-M_alt    "P 1"
_space_group_IT_number       1

loop_
  _space_group_symop_operation_xyz
  'x, y, z'

loop_
  _atom_site_type_symbol
  _atom_site_label
  _atom_site_symmetry_multiplicity
  _atom_site_fract_x
  _atom_site_fract_y
  _atom_site_fract_z
  _atom_site_occupancy
  Tl  Tl1       1.0  0.25000000175294085  0.2500000011085747  0.24999998851399033  1.0000
  Tl  Tl2       1.0  0.7500000023391378  0.7499999985352392  0.7500000111188145  1.0000
  Fe  Fe1       1.0  7.543189983690704e-09  0.9999999728539173  2.02318858898443e-08  1.0000
  Te  Te1       1.0  0.21878581251188634  0.21878579820456892  0.7812141776457843  1.0000
  Te  Te2       1.0  0.7812142058289866  0.7812142174075286  0.21878577689096756  1.0000
  Te  Te3       1.0  0.7812141778206197  0.21878582117860845  0.21878579581022967  1.0000
  Te  Te4       1.0  0.21878578755363154  0.7812142088049452  0.7812142171382541  1.0000
  Te  Te5       1.0  0.21878580529436567  0.7812142004874498  0.2187857915306565  1.0000
  Te  Te6       1.0  0.7812142018243904  0.21878577201028113  0.781214217554241  1.0000
