data_image0
_chemical_formula_structural       Tl2FeSe6
_chemical_formula_sum              "Tl2 Fe1 Se6"
_cell_length_a       6.821820086608087
_cell_length_b       6.821819306808722
_cell_length_c       6.821820467375894
_cell_angle_alpha    59.99999885249378
_cell_angle_beta     59.999996926083
_cell_angle_gamma    60.00000404272789

_space_group_name_H-M_alt    "P 1"
_space_group_IT_number       1

loop_
  _space_group_symop_operation_xyz
  'x, y, z'

loop_
  _atom_site_type_symbol
  _atom_site_label
  _atom_site_symmetry_multiplicity
  _atom_site_fract_x
  _atom_site_fract_y
  _atom_site_fract_z
  _atom_site_occupancy
  Tl  Tl1       1.0  0.24999998264579062  0.25000001004074457  0.25000001659106535  1.0000
  Tl  Tl2       1.0  0.7499999998113128  0.7500000319175707  0.7499999877573318  1.0000
  Fe  Fe1       1.0  0.9999999398505081  1.795334575788618e-08  9.146052404931529e-08  1.0000
  Se  Se1       1.0  0.23645343316303527  0.23645356876885631  0.7635465316171598  1.0000
  Se  Se2       1.0  0.7635465768899721  0.7635464462594421  0.23645348998890509  1.0000
  Se  Se3       1.0  0.7635463947061524  0.23645353685825307  0.2364536392811714  1.0000
  Se  Se4       1.0  0.2364536981874176  0.7635463058179182  0.7635463200711101  1.0000
  Se  Se5       1.0  0.23645365037989333  0.7635463520066488  0.2364536441975133  1.0000
  Se  Se6       1.0  0.7635463155613419  0.23645366840764778  0.763546357192561  1.0000
