data_image0
_chemical_formula_structural       Tl2GeS6
_chemical_formula_sum              "Tl2 Ge1 S6"
_cell_length_a       6.652814629458947
_cell_length_b       6.652814504598462
_cell_length_c       6.652813425079912
_cell_angle_alpha    60.00000388755155
_cell_angle_beta     60.000003160330394
_cell_angle_gamma    59.999998640230544

_space_group_name_H-M_alt    "P 1"
_space_group_IT_number       1

loop_
  _space_group_symop_operation_xyz
  'x, y, z'

loop_
  _atom_site_type_symbol
  _atom_site_label
  _atom_site_symmetry_multiplicity
  _atom_site_fract_x
  _atom_site_fract_y
  _atom_site_fract_z
  _atom_site_occupancy
  Tl  Tl1       1.0  0.24999995638282568  0.2500000095611178  0.2500000190280729  1.0000
  Tl  Tl2       1.0  0.7500000287959098  0.7499999090220897  0.7500000370911319  1.0000
  Ge  Ge1       1.0  2.7721484420346057e-07  0.9999999650220829  0.999999901428383  1.0000
  S   S1        1.0  0.24906594087049508  0.24906603755399853  0.7509340199520399  1.0000
  S   S2        1.0  0.7509338403068506  0.7509338994386413  0.24906616503811116  1.0000
  S   S3        1.0  0.7509341829940958  0.249065846008665  0.24906577560438478  1.0000
  S   S4        1.0  0.2490657394692409  0.7509342971695206  0.7509341274251026  1.0000
  S   S5        1.0  0.24906584307915278  0.7509341750428549  0.24906575910156928  1.0000
  S   S6        1.0  0.7509341517584617  0.24906581349616422  0.750934249694672  1.0000
