data_image0
_chemical_formula_structural       Tl2GaTe6
_chemical_formula_sum              "Tl2 Ga1 Te6"
_cell_length_a       7.4236697973996035
_cell_length_b       7.4236692239991715
_cell_length_c       7.423669724089258
_cell_angle_alpha    60.00000132238359
_cell_angle_beta     59.999997307279806
_cell_angle_gamma    60.00000214189875

_space_group_name_H-M_alt    "P 1"
_space_group_IT_number       1

loop_
  _space_group_symop_operation_xyz
  'x, y, z'

loop_
  _atom_site_type_symbol
  _atom_site_label
  _atom_site_symmetry_multiplicity
  _atom_site_fract_x
  _atom_site_fract_y
  _atom_site_fract_z
  _atom_site_occupancy
  Tl  Tl1       1.0  0.25000004714311064  0.24999999591527652  0.25000002634586543  1.0000
  Tl  Tl2       1.0  0.7500000042845487  0.7499999745475463  0.7499999844817541  1.0000
  Ga  Ga1       1.0  0.9999999554262401  2.639654108263136e-08  7.778778808650371e-08  1.0000
  Te  Te1       1.0  0.27073853853943136  0.27073856082380837  0.7292614441195987  1.0000
  Te  Te2       1.0  0.7292614728702236  0.7292614690312261  0.27073855702091976  1.0000
  Te  Te3       1.0  0.7292613411468457  0.27073856235003324  0.2707387991729315  1.0000
  Te  Te4       1.0  0.2707387073910341  0.7292613421214397  0.729261207031013  1.0000
  Te  Te5       1.0  0.27073852461100184  0.7292613910237298  0.2707387323548533  1.0000
  Te  Te6       1.0  0.7292614116662117  0.27073866357805143  0.729261178132844  1.0000
