data_image0
_chemical_formula_structural       Tl2GaO6
_chemical_formula_sum              "Tl2 Ga1 O6"
_cell_length_a       5.2497081328578465
_cell_length_b       5.249707956066654
_cell_length_c       5.249708491645876
_cell_angle_alpha    59.999998869212234
_cell_angle_beta     59.99999630193975
_cell_angle_gamma    60.00000197628574

_space_group_name_H-M_alt    "P 1"
_space_group_IT_number       1

loop_
  _space_group_symop_operation_xyz
  'x, y, z'

loop_
  _atom_site_type_symbol
  _atom_site_label
  _atom_site_symmetry_multiplicity
  _atom_site_fract_x
  _atom_site_fract_y
  _atom_site_fract_z
  _atom_site_occupancy
  Tl  Tl1       1.0  0.25000005785842905  0.25000020536097384  0.24999980403993108  1.0000
  Tl  Tl2       1.0  0.7499999638748316  0.7499998858610774  0.7500002706739383  1.0000
  Ga  Ga1       1.0  1.168431126712822e-07  0.9999999860021289  0.9999995218870189  1.0000
  O   O1        1.0  0.2619385271145475  0.26193862294489695  0.7380612624352578  1.0000
  O   O2        1.0  0.7380613455639187  0.7380612489772851  0.2619386459602892  1.0000
  O   O3        1.0  0.7380614771680015  0.26193884094962766  0.2619386224183169  1.0000
  O   O4        1.0  0.26193859426675586  0.7380612199437284  0.7380616254764472  1.0000
  O   O5        1.0  0.2619385967486166  0.7380614245457362  0.26193884503205817  1.0000
  O   O6        1.0  0.7380612755714272  0.26193862001676754  0.7380613848642246  1.0000
