data_image0
_chemical_formula_structural       Tl2GeTe6
_chemical_formula_sum              "Tl2 Ge1 Te6"
_cell_length_a       7.458102158505074
_cell_length_b       7.458102651319669
_cell_length_c       7.458102414864141
_cell_angle_alpha    59.999993872672036
_cell_angle_beta     60.00000026372056
_cell_angle_gamma    60.00000192284022

_space_group_name_H-M_alt    "P 1"
_space_group_IT_number       1

loop_
  _space_group_symop_operation_xyz
  'x, y, z'

loop_
  _atom_site_type_symbol
  _atom_site_label
  _atom_site_symmetry_multiplicity
  _atom_site_fract_x
  _atom_site_fract_y
  _atom_site_fract_z
  _atom_site_occupancy
  Tl  Tl1       1.0  0.24999972645730326  0.25000016017827564  0.2500001600847685  1.0000
  Tl  Tl2       1.0  0.7500002674429768  0.749999822025985  0.7499998471362657  1.0000
  Ge  Ge1       1.0  0.9999997834061239  0.999999720831674  0.9999996016041212  1.0000
  Te  Te1       1.0  0.27462684405547183  0.27462719566886273  0.725373168622523  1.0000
  Te  Te2       1.0  0.725373305807404  0.7253730246495731  0.2746270076049672  1.0000
  Te  Te3       1.0  0.7253732142137317  0.27462701317413174  0.2746270843285197  1.0000
  Te  Te4       1.0  0.27462646146069275  0.7253733106008128  0.7253731056395057  1.0000
  Te  Te5       1.0  0.2746266956581064  0.7253728258036842  0.27462732762488967  1.0000
  Te  Te6       1.0  0.7253737157894419  0.274626883800882  0.7253726956167369  1.0000
