data_image0
_chemical_formula_structural       Tl2GaTe6
_chemical_formula_sum              "Tl2 Ga1 Te6"
_cell_length_a       7.426157664884498
_cell_length_b       7.42615740111069
_cell_length_c       7.4261585614208485
_cell_angle_alpha    59.99999223260168
_cell_angle_beta     59.99999380705158
_cell_angle_gamma    60.000000034180886

_space_group_name_H-M_alt    "P 1"
_space_group_IT_number       1

loop_
  _space_group_symop_operation_xyz
  'x, y, z'

loop_
  _atom_site_type_symbol
  _atom_site_label
  _atom_site_symmetry_multiplicity
  _atom_site_fract_x
  _atom_site_fract_y
  _atom_site_fract_z
  _atom_site_occupancy
  Tl  Tl1       1.0  0.25000001172637504  0.25000003889546096  0.24999998168701168  1.0000
  Tl  Tl2       1.0  0.7500000019790448  0.7499999550617373  0.7499999845699787  1.0000
  Ga  Ga1       1.0  0.9999999949256212  7.586462563409712e-08  1.1272991062352906e-07  1.0000
  Te  Te1       1.0  0.27085457362642107  0.27085525574673724  0.7291450793401236  1.0000
  Te  Te2       1.0  0.7291453398425626  0.729144721718143  0.2708550004914866  1.0000
  Te  Te3       1.0  0.7291450649396186  0.2708550419775875  0.270854681617019  1.0000
  Te  Te4       1.0  0.2708550861342022  0.7291448150934423  0.7291452157227029  1.0000
  Te  Te5       1.0  0.27085495911661256  0.7291448907555296  0.2708548101025752  1.0000
  Te  Te6       1.0  0.7291449681713312  0.27085523184168714  0.7291451148442745  1.0000
