data_image0
_chemical_formula_structural       Tl2GaO6
_chemical_formula_sum              "Tl2 Ga1 O6"
_cell_length_a       5.250075446317964
_cell_length_b       5.250076308173033
_cell_length_c       5.250072004227392
_cell_angle_alpha    60.000022547055586
_cell_angle_beta     60.00001699780706
_cell_angle_gamma    60.00002950618546

_space_group_name_H-M_alt    "P 1"
_space_group_IT_number       1

loop_
  _space_group_symop_operation_xyz
  'x, y, z'

loop_
  _atom_site_type_symbol
  _atom_site_label
  _atom_site_symmetry_multiplicity
  _atom_site_fract_x
  _atom_site_fract_y
  _atom_site_fract_z
  _atom_site_occupancy
  Tl  Tl1       1.0  0.25000042272218215  0.25000012547692135  0.2499995765727241  1.0000
  Tl  Tl2       1.0  0.7499993683827519  0.7499999658554528  0.749999656329513  1.0000
  Ga  Ga1       1.0  1.0336101669504395e-06  0.9999997363923027  0.9999997311876203  1.0000
  O   O1        1.0  0.2619107870533498  0.2619113891115726  0.7380890051597149  1.0000
  O   O2        1.0  0.738089252858029  0.7380882263269841  0.26191180793276786  1.0000
  O   O3        1.0  0.7380881498896992  0.2619113164016834  0.2619116505308149  1.0000
  O   O4        1.0  0.2619116133397538  0.7380884296743763  0.7380884089285555  1.0000
  O   O5        1.0  0.26191132006537626  0.7380888821471359  0.2619113363305935  1.0000
  O   O6        1.0  0.7380882526930085  0.2619115871008556  0.7380883596368019  1.0000
