data_image0
_chemical_formula_structural       Tl2GaSe6
_chemical_formula_sum              "Tl2 Ga1 Se6"
_cell_length_a       6.693885001903023
_cell_length_b       6.693884259038431
_cell_length_c       6.693884103315374
_cell_angle_alpha    60.00001080074775
_cell_angle_beta     60.00000491767742
_cell_angle_gamma    60.00000190362986

_space_group_name_H-M_alt    "P 1"
_space_group_IT_number       1

loop_
  _space_group_symop_operation_xyz
  'x, y, z'

loop_
  _atom_site_type_symbol
  _atom_site_label
  _atom_site_symmetry_multiplicity
  _atom_site_fract_x
  _atom_site_fract_y
  _atom_site_fract_z
  _atom_site_occupancy
  Tl  Tl1       1.0  0.2500000515545747  0.2500001807098897  0.24999992737657442  1.0000
  Tl  Tl2       1.0  0.7499999882710271  0.7499999804279126  0.7499999161161565  1.0000
  Ga  Ga1       1.0  9.276780122750092e-08  0.9999999597476869  0.9999993582550508  1.0000
  Se  Se1       1.0  0.28653974122294673  0.28654016305590946  0.7134600790845894  1.0000
  Se  Se2       1.0  0.7134596422327786  0.7134597419312937  0.28654031777192096  1.0000
  Se  Se3       1.0  0.7134601598930577  0.2865400777600561  0.2865401545583242  1.0000
  Se  Se4       1.0  0.2865396735024691  0.7134603248912149  0.7134597864231026  1.0000
  Se  Se5       1.0  0.28654014194740407  0.7134599587545357  0.28654031959149273  1.0000
  Se  Se6       1.0  0.7134605197274265  0.28653961506652104  0.7134601340733647  1.0000
