data_image0
_chemical_formula_structural       Tl2HgO6
_chemical_formula_sum              "Tl2 Hg1 O6"
_cell_length_a       5.381166152539417
_cell_length_b       5.381166802616258
_cell_length_c       5.381165940404059
_cell_angle_alpha    59.99999764510998
_cell_angle_beta     60.00000143598055
_cell_angle_gamma    59.9999999386078

_space_group_name_H-M_alt    "P 1"
_space_group_IT_number       1

loop_
  _space_group_symop_operation_xyz
  'x, y, z'

loop_
  _atom_site_type_symbol
  _atom_site_label
  _atom_site_symmetry_multiplicity
  _atom_site_fract_x
  _atom_site_fract_y
  _atom_site_fract_z
  _atom_site_occupancy
  Tl  Tl1       1.0  0.250000070162847  0.2500004938291369  0.24999973534384026  1.0000
  Tl  Tl2       1.0  0.7500000999109365  0.7499997403597313  0.7500002266592628  1.0000
  Hg  Hg1       1.0  8.616006403922004e-08  0.999999870268915  4.9660517973958795e-08  1.0000
  O   O1        1.0  0.2696914628554316  0.26969155468869926  0.7303084126356493  1.0000
  O   O2        1.0  0.7303084724837997  0.7303083858982892  0.26969137125235504  1.0000
  O   O3        1.0  0.7303082756439373  0.26969183067252417  0.2696913586709998  1.0000
  O   O4        1.0  0.2696915830481703  0.7303083784805576  0.7303083998741704  1.0000
  O   O5        1.0  0.2696915325599987  0.7303081933605348  0.2696919343112374  1.0000
  O   O6        1.0  0.7303083361957112  0.2696916379791776  0.7303085135755027  1.0000
