data_image0
_chemical_formula_structural       Tl2HgTe6
_chemical_formula_sum              "Tl2 Hg1 Te6"
_cell_length_a       7.571761097007736
_cell_length_b       7.571761520986536
_cell_length_c       7.571761159996384
_cell_angle_alpha    60.000005018349526
_cell_angle_beta     60.00000221815874
_cell_angle_gamma    60.000004409474684

_space_group_name_H-M_alt    "P 1"
_space_group_IT_number       1

loop_
  _space_group_symop_operation_xyz
  'x, y, z'

loop_
  _atom_site_type_symbol
  _atom_site_label
  _atom_site_symmetry_multiplicity
  _atom_site_fract_x
  _atom_site_fract_y
  _atom_site_fract_z
  _atom_site_occupancy
  Tl  Tl1       1.0  0.24999998815463928  0.25000001710152475  0.2499999887743708  1.0000
  Tl  Tl2       1.0  0.7500000022667305  0.7499999882214373  0.7499999736804869  1.0000
  Hg  Hg1       1.0  1.0815140189162118e-07  5.984810392840154e-08  0.9999998763793496  1.0000
  Te  Te1       1.0  0.281506613154177  0.28150661051249526  0.7184934298482257  1.0000
  Te  Te2       1.0  0.718493361279762  0.718493273496744  0.2815066778576139  1.0000
  Te  Te3       1.0  0.7184932925893401  0.2815066685074714  0.28150677500151405  1.0000
  Te  Te4       1.0  0.28150664998583336  0.7184933934285648  0.7184932794807642  1.0000
  Te  Te5       1.0  0.2815066748793877  0.7184934047612782  0.28150661848710196  1.0000
  Te  Te6       1.0  0.7184933150028101  0.2815066021792006  0.7184933566355503  1.0000
