data_image0
_chemical_formula_structural       Tl2HgSe6
_chemical_formula_sum              "Tl2 Hg1 Se6"
_cell_length_a       6.908320560759307
_cell_length_b       6.908320852281099
_cell_length_c       6.908319797361827
_cell_angle_alpha    60.00000462249769
_cell_angle_beta     60.00000067626217
_cell_angle_gamma    60.0000051130396

_space_group_name_H-M_alt    "P 1"
_space_group_IT_number       1

loop_
  _space_group_symop_operation_xyz
  'x, y, z'

loop_
  _atom_site_type_symbol
  _atom_site_label
  _atom_site_symmetry_multiplicity
  _atom_site_fract_x
  _atom_site_fract_y
  _atom_site_fract_z
  _atom_site_occupancy
  Tl  Tl1       1.0  0.24999993013186933  0.2499999432981802  0.25000007585472533  1.0000
  Tl  Tl2       1.0  0.7500000129318677  0.750000110005561  0.7499998937313214  1.0000
  Hg  Hg1       1.0  3.391883013619384e-08  3.5457096428054817e-09  0.9999999523171298  1.0000
  Se  Se1       1.0  0.29565953734943484  0.29565929121230883  0.7043405567729576  1.0000
  Se  Se2       1.0  0.704340416200827  0.7043406504015977  0.2956595546091327  1.0000
  Se  Se3       1.0  0.7043406353009756  0.29565916084740734  0.2956598274533451  1.0000
  Se  Se4       1.0  0.29565930040195837  0.7043408694092249  0.7043401964199669  1.0000
  Se  Se5       1.0  0.2956593089504932  0.7043408153825862  0.29565960465154184  1.0000
  Se  Se6       1.0  0.7043408223484521  0.2956591545969963  0.7043403370869857  1.0000
