data_image0
_chemical_formula_structural       Tl2HgS6
_chemical_formula_sum              "Tl2 Hg1 S6"
_cell_length_a       6.743141561454984
_cell_length_b       6.743141902516182
_cell_length_c       6.743140948188418
_cell_angle_alpha    59.99999884335455
_cell_angle_beta     59.99999779702528
_cell_angle_gamma    59.999996296092256

_space_group_name_H-M_alt    "P 1"
_space_group_IT_number       1

loop_
  _space_group_symop_operation_xyz
  'x, y, z'

loop_
  _atom_site_type_symbol
  _atom_site_label
  _atom_site_symmetry_multiplicity
  _atom_site_fract_x
  _atom_site_fract_y
  _atom_site_fract_z
  _atom_site_occupancy
  Tl  Tl1       1.0  0.250000077951983  0.24999996605657218  0.25000008256546374  1.0000
  Tl  Tl2       1.0  0.7499999899313298  0.7499999980652603  0.7500001017116351  1.0000
  Hg  Hg1       1.0  0.9999998337539107  2.4701440993837337e-07  0.9999995829367745  1.0000
  S   S1        1.0  0.284829855737272  0.28482974713706594  0.7151700534407471  1.0000
  S   S2        1.0  0.7151702502849239  0.7151702823709413  0.28482974688440993  1.0000
  S   S3        1.0  0.7151698073616627  0.28482991214944275  0.2848304805831718  1.0000
  S   S4        1.0  0.2848303417024046  0.7151697159601743  0.7151697525112825  1.0000
  S   S5        1.0  0.28482996526238685  0.7151699575536762  0.28483024490614445  1.0000
  S   S6        1.0  0.7151698807141997  0.2848301791149786  0.7151699655338957  1.0000
