data_image0
_chemical_formula_structural       Tl2InS6
_chemical_formula_sum              "Tl2 In1 S6"
_cell_length_a       6.735953144057223
_cell_length_b       6.73595327862725
_cell_length_c       6.735952868528885
_cell_angle_alpha    59.99999969051527
_cell_angle_beta     60.000000782299566
_cell_angle_gamma    60.000000106572266

_space_group_name_H-M_alt    "P 1"
_space_group_IT_number       1

loop_
  _space_group_symop_operation_xyz
  'x, y, z'

loop_
  _atom_site_type_symbol
  _atom_site_label
  _atom_site_symmetry_multiplicity
  _atom_site_fract_x
  _atom_site_fract_y
  _atom_site_fract_z
  _atom_site_occupancy
  Tl  Tl1       1.0  0.24999999971136236  0.2500000288824929  0.2499999840553881  1.0000
  Tl  Tl2       1.0  0.7500000571774773  0.7499999793724663  0.7499999411522741  1.0000
  In  In1       1.0  0.9999999193626606  0.9999999436351646  0.9999999913033989  1.0000
  S   S1        1.0  0.2779278843593478  0.2779279190878605  0.7220720998384644  1.0000
  S   S2        1.0  0.7220722007177705  0.7220721691688021  0.27792782768790164  1.0000
  S   S3        1.0  0.7220721129415826  0.2779278852709636  0.2779278721867992  1.0000
  S   S4        1.0  0.2779277783230175  0.7220722084403602  0.7220721851481989  1.0000
  S   S5        1.0  0.2779278628904586  0.7220720755413428  0.2779279080707729  1.0000
  S   S6        1.0  0.7220722035589504  0.27792779089241054  0.7220721782797513  1.0000
