data_image0
_chemical_formula_structural       Tl2IrS6
_chemical_formula_sum              "Tl2 Ir1 S6"
_cell_length_a       6.430617827668392
_cell_length_b       6.43061790059781
_cell_length_c       6.430617530289338
_cell_angle_alpha    60.00000335888774
_cell_angle_beta     60.00000349078131
_cell_angle_gamma    59.9999994212246

_space_group_name_H-M_alt    "P 1"
_space_group_IT_number       1

loop_
  _space_group_symop_operation_xyz
  'x, y, z'

loop_
  _atom_site_type_symbol
  _atom_site_label
  _atom_site_symmetry_multiplicity
  _atom_site_fract_x
  _atom_site_fract_y
  _atom_site_fract_z
  _atom_site_occupancy
  Tl  Tl1       1.0  0.24999999706394016  0.25000001436784736  0.2499999999363275  1.0000
  Tl  Tl2       1.0  0.7500000399103441  0.7499999992988363  0.7499999678059222  1.0000
  Ir  Ir1       1.0  0.9999998639523968  0.9999998209720835  1.1555111944297303e-07  1.0000
  S   S1        1.0  0.25494094888996227  0.25494088652333957  0.7450590981584876  1.0000
  S   S2        1.0  0.7450590304250307  0.7450591061932704  0.25494092443904953  1.0000
  S   S3        1.0  0.7450592142611419  0.2549408065327515  0.2549407283666414  1.0000
  S   S4        1.0  0.25494078632748773  0.745059294743342  0.7450592744110948  1.0000
  S   S5        1.0  0.2549408502765469  0.7450592731557805  0.2549406689490341  1.0000
  S   S6        1.0  0.7450592321859394  0.2549408033611289  0.7450592244082151  1.0000
