data_image0
_chemical_formula_structural       Tl2InTe6
_chemical_formula_sum              "Tl2 In1 Te6"
_cell_length_a       7.59274608213984
_cell_length_b       7.592745993097143
_cell_length_c       7.592746271820589
_cell_angle_alpha    60.00000035412701
_cell_angle_beta     60.000001218531104
_cell_angle_gamma    60.00000224662305

_space_group_name_H-M_alt    "P 1"
_space_group_IT_number       1

loop_
  _space_group_symop_operation_xyz
  'x, y, z'

loop_
  _atom_site_type_symbol
  _atom_site_label
  _atom_site_symmetry_multiplicity
  _atom_site_fract_x
  _atom_site_fract_y
  _atom_site_fract_z
  _atom_site_occupancy
  Tl  Tl1       1.0  0.2500000176832168  0.2499999641776161  0.2500000006306872  1.0000
  Tl  Tl2       1.0  0.7500000009261549  0.7499999941547458  0.7499999929474191  1.0000
  In  In1       1.0  0.9999999277715378  0.9999999064433287  0.9999999617242854  1.0000
  Te  Te1       1.0  0.2749391327280169  0.2749391240872799  0.7250608656901759  1.0000
  Te  Te2       1.0  0.725060967925111  0.7250609713539944  0.27493900645818065  1.0000
  Te  Te3       1.0  0.725060852539578  0.27493915008199915  0.2749391747370718  1.0000
  Te  Te4       1.0  0.2749390174904972  0.7250609437462252  0.7250609649896814  1.0000
  Te  Te5       1.0  0.27493914760992194  0.7250608859905655  0.2749391181153809  1.0000
  Te  Te6       1.0  0.7250609402496322  0.2749390562113385  0.7250609108040502  1.0000
