data_image0
_chemical_formula_structural       Tl2IrO6
_chemical_formula_sum              "Tl2 Ir1 O6"
_cell_length_a       5.789532810312494
_cell_length_b       5.7895335360638605
_cell_length_c       5.789533291965298
_cell_angle_alpha    60.000001903972546
_cell_angle_beta     59.999998386379914
_cell_angle_gamma    59.99999916153376

_space_group_name_H-M_alt    "P 1"
_space_group_IT_number       1

loop_
  _space_group_symop_operation_xyz
  'x, y, z'

loop_
  _atom_site_type_symbol
  _atom_site_label
  _atom_site_symmetry_multiplicity
  _atom_site_fract_x
  _atom_site_fract_y
  _atom_site_fract_z
  _atom_site_occupancy
  Tl  Tl1       1.0  0.24999990738400246  0.25000008474534574  0.2499997831991502  1.0000
  Tl  Tl2       1.0  0.7500002510925847  0.749999953842615  0.7499998519538915  1.0000
  Ir  Ir1       1.0  0.9999999156276549  3.173170064494688e-08  0.9999999261395349  1.0000
  O   O1        1.0  0.22933386886837462  0.22933388974044722  0.7706664582993193  1.0000
  O   O2        1.0  0.7706661627508026  0.770666002881712  0.22933416134750376  1.0000
  O   O3        1.0  0.7706664299498304  0.2293336261206544  0.22933338461776898  1.0000
  O   O4        1.0  0.22933354314553833  0.7706662326543626  0.7706667734015752  1.0000
  O   O5        1.0  0.2293335936475462  0.7706664095553587  0.22933359329393585  1.0000
  O   O6        1.0  0.7706663767446522  0.2293336607643074  0.7706663031244697  1.0000
