data_image0
_chemical_formula_structural       Tl2InSe6
_chemical_formula_sum              "Tl2 In1 Se6"
_cell_length_a       6.889769172326467
_cell_length_b       6.889768939180373
_cell_length_c       6.889768836036467
_cell_angle_alpha    60.00000021572559
_cell_angle_beta     59.999999252126216
_cell_angle_gamma    60.00000181063288

_space_group_name_H-M_alt    "P 1"
_space_group_IT_number       1

loop_
  _space_group_symop_operation_xyz
  'x, y, z'

loop_
  _atom_site_type_symbol
  _atom_site_label
  _atom_site_symmetry_multiplicity
  _atom_site_fract_x
  _atom_site_fract_y
  _atom_site_fract_z
  _atom_site_occupancy
  Tl  Tl1       1.0  0.2499999849182822  0.2500000083902016  0.25000001315595566  1.0000
  Tl  Tl2       1.0  0.7500000125160536  0.7500000429468897  0.7499999683162875  1.0000
  In  In1       1.0  0.9999999501945125  3.37749379661369e-08  1.1251805606385255e-07  1.0000
  Se  Se1       1.0  0.29121181324781764  0.29121192951236213  0.708788110317753  1.0000
  Se  Se2       1.0  0.7087879124451205  0.708788016944649  0.29121206091666146  1.0000
  Se  Se3       1.0  0.7087882626184915  0.2912118240641525  0.29121173724247285  1.0000
  Se  Se4       1.0  0.2912119928824198  0.7087881117271009  0.7087878391410706  1.0000
  Se  Se5       1.0  0.2912118936705463  0.7087881626512011  0.29121201735061586  1.0000
  Se  Se6       1.0  0.7087881767277726  0.2912118709096099  0.7087881571447553  1.0000
