data_image0
_chemical_formula_structural       Tl2InO6
_chemical_formula_sum              "Tl2 In1 O6"
_cell_length_a       5.412979570358521
_cell_length_b       5.412979614289248
_cell_length_c       5.412979334699114
_cell_angle_alpha    59.99999901885128
_cell_angle_beta     60.00000144246583
_cell_angle_gamma    60.00000145701235

_space_group_name_H-M_alt    "P 1"
_space_group_IT_number       1

loop_
  _space_group_symop_operation_xyz
  'x, y, z'

loop_
  _atom_site_type_symbol
  _atom_site_label
  _atom_site_symmetry_multiplicity
  _atom_site_fract_x
  _atom_site_fract_y
  _atom_site_fract_z
  _atom_site_occupancy
  Tl  Tl1       1.0  0.2500001237921796  0.24999980133957078  0.2500000587098969  1.0000
  Tl  Tl2       1.0  0.7499999790732617  0.7499999153680244  0.7500000371679707  1.0000
  In  In1       1.0  0.9999998978648723  0.9999999864243516  8.9261382935991e-08  1.0000
  O   O1        1.0  0.27343714858360135  0.27343723127867464  0.7265628775435393  1.0000
  O   O2        1.0  0.7265626428666218  0.7265630804947107  0.27343713377878504  1.0000
  O   O3        1.0  0.7265626989799989  0.2734372281679296  0.27343724745385484  1.0000
  O   O4        1.0  0.273437239624706  0.7265627125378189  0.7265626763046178  1.0000
  O   O5        1.0  0.2734372354804936  0.7265627761358179  0.27343723849109874  1.0000
  O   O6        1.0  0.7265629911477349  0.27343731163942436  0.7265626321404813  1.0000
