data_image0
_chemical_formula_structural       Tl2MgS6
_chemical_formula_sum              "Tl2 Mg1 S6"
_cell_length_a       6.56582071451091
_cell_length_b       6.565821763153097
_cell_length_c       6.565821955002495
_cell_angle_alpha    59.99999842312817
_cell_angle_beta     59.99999348718725
_cell_angle_gamma    59.99998661895683

_space_group_name_H-M_alt    "P 1"
_space_group_IT_number       1

loop_
  _space_group_symop_operation_xyz
  'x, y, z'

loop_
  _atom_site_type_symbol
  _atom_site_label
  _atom_site_symmetry_multiplicity
  _atom_site_fract_x
  _atom_site_fract_y
  _atom_site_fract_z
  _atom_site_occupancy
  Tl  Tl1       1.0  0.2500000819604701  0.2500000525773492  0.24999994821508392  1.0000
  Tl  Tl2       1.0  0.7499999880542769  0.7500000290240576  0.7499999343461925  1.0000
  Mg  Mg1       1.0  0.9999998223393356  6.342137823072292e-08  0.9999999520299827  1.0000
  S   S1        1.0  0.2728614554471942  0.2728609278332464  0.7271388408268842  1.0000
  S   S2        1.0  0.727138775272922  0.7271385344773129  0.2728614416074524  1.0000
  S   S3        1.0  0.7271380781370956  0.2728618505387444  0.2728610829192206  1.0000
  S   S4        1.0  0.2728615071898382  0.7271388093162184  0.7271385777097487  1.0000
  S   S5        1.0  0.2728618029416347  0.7271382897141677  0.2728612754068723  1.0000
  S   S6        1.0  0.7271384700347842  0.2728614468004522  0.7271389843477131  1.0000
