data_image0
_chemical_formula_structural       Tl2MnSe6
_chemical_formula_sum              "Tl2 Mn1 Se6"
_cell_length_a       6.849970587407438
_cell_length_b       6.849970782912267
_cell_length_c       6.849970359573077
_cell_angle_alpha    59.9999988097297
_cell_angle_beta     60.00000244945864
_cell_angle_gamma    59.99999939826803

_space_group_name_H-M_alt    "P 1"
_space_group_IT_number       1

loop_
  _space_group_symop_operation_xyz
  'x, y, z'

loop_
  _atom_site_type_symbol
  _atom_site_label
  _atom_site_symmetry_multiplicity
  _atom_site_fract_x
  _atom_site_fract_y
  _atom_site_fract_z
  _atom_site_occupancy
  Tl  Tl1       1.0  0.24999996293531287  0.24999999840753448  0.2500000318558871  1.0000
  Tl  Tl2       1.0  0.7500000515184796  0.7500000077382982  0.7499999670774555  1.0000
  Mn  Mn1       1.0  0.9999998526602664  1.5376425240180936e-07  0.9999999281742998  1.0000
  Se  Se1       1.0  0.24252942899118976  0.2425292879686681  0.7574706790026242  1.0000
  Se  Se2       1.0  0.7574706100849737  0.7574706645384718  0.24252937093538934  1.0000
  Se  Se3       1.0  0.7574706573654122  0.2425292989090376  0.2425294672911054  1.0000
  Se  Se4       1.0  0.24252942971089006  0.7574706410824019  0.7574706919125387  1.0000
  Se  Se5       1.0  0.24252937109903414  0.7574706947732274  0.2425292428278743  1.0000
  Se  Se6       1.0  0.7574706139995905  0.24252931852443624  0.7574706489584495  1.0000
