data_image0
_chemical_formula_structural       Tl2MnS6
_chemical_formula_sum              "Tl2 Mn1 S6"
_cell_length_a       6.709681038507804
_cell_length_b       6.709682716477317
_cell_length_c       6.709682592144099
_cell_angle_alpha    59.99999359597548
_cell_angle_beta     60.00000162438638
_cell_angle_gamma    59.999999083404134

_space_group_name_H-M_alt    "P 1"
_space_group_IT_number       1

loop_
  _space_group_symop_operation_xyz
  'x, y, z'

loop_
  _atom_site_type_symbol
  _atom_site_label
  _atom_site_symmetry_multiplicity
  _atom_site_fract_x
  _atom_site_fract_y
  _atom_site_fract_z
  _atom_site_occupancy
  Tl  Tl1       1.0  0.24999992475979765  0.25000007195246443  0.25000008699327664  1.0000
  Tl  Tl2       1.0  0.7499999495774815  0.7499999274537634  0.7500000909943413  1.0000
  Mn  Mn1       1.0  0.999999836629288  1.4420181741045947e-07  1.1689203772632204e-07  1.0000
  S   S1        1.0  0.23390071231465778  0.2339008431308215  0.7660991678402117  1.0000
  S   S2        1.0  0.7660990068421073  0.7660991416727091  0.23390095941410616  1.0000
  S   S3        1.0  0.7660991044823219  0.2339008151998223  0.2339007083071011  1.0000
  S   S4        1.0  0.23390095347428497  0.766099211586525  0.7660990988925476  1.0000
  S   S5        1.0  0.23390096827091517  0.7660991210884807  0.2339008246828771  1.0000
  S   S6        1.0  0.7660991848418455  0.23390090934852928  0.766099058305581  1.0000
