data_image0
_chemical_formula_structural       Tl2MoS6
_chemical_formula_sum              "Tl2 Mo1 S6"
_cell_length_a       6.735013652887987
_cell_length_b       6.735013822673857
_cell_length_c       6.7350136485532754
_cell_angle_alpha    59.99999929112395
_cell_angle_beta     59.99999967116313
_cell_angle_gamma    59.99999746290204

_space_group_name_H-M_alt    "P 1"
_space_group_IT_number       1

loop_
  _space_group_symop_operation_xyz
  'x, y, z'

loop_
  _atom_site_type_symbol
  _atom_site_label
  _atom_site_symmetry_multiplicity
  _atom_site_fract_x
  _atom_site_fract_y
  _atom_site_fract_z
  _atom_site_occupancy
  Tl  Tl1       1.0  0.24999999908738493  0.2500000572661067  0.2499999349064814  1.0000
  Tl  Tl2       1.0  0.7500000570994966  0.7499999408520927  0.7500000209343523  1.0000
  Mo  Mo1       1.0  0.9999999830811055  0.9999999581750932  6.797612879912582e-08  1.0000
  S   S1        1.0  0.24226727793519728  0.2422673641655507  0.7577327009008533  1.0000
  S   S2        1.0  0.7577326625708355  0.7577324666530241  0.24226746769956273  1.0000
  S   S3        1.0  0.757732626361038  0.24226746081388595  0.24226733968393033  1.0000
  S   S4        1.0  0.2422674118312564  0.7577326118617574  0.7577324987887951  1.0000
  S   S5        1.0  0.24226738135475037  0.7577326675997522  0.24226739118445104  1.0000
  S   S6        1.0  0.7577326257333237  0.24226747781485802  0.7577325511922511  1.0000
