data_image0
_chemical_formula_structural       Tl2MgO6
_chemical_formula_sum              "Tl2 Mg1 O6"
_cell_length_a       5.298045725678133
_cell_length_b       5.29804579462158
_cell_length_c       5.298045437519176
_cell_angle_alpha    59.99999991169133
_cell_angle_beta     59.999999661385026
_cell_angle_gamma    59.99999950509715

_space_group_name_H-M_alt    "P 1"
_space_group_IT_number       1

loop_
  _space_group_symop_operation_xyz
  'x, y, z'

loop_
  _atom_site_type_symbol
  _atom_site_label
  _atom_site_symmetry_multiplicity
  _atom_site_fract_x
  _atom_site_fract_y
  _atom_site_fract_z
  _atom_site_occupancy
  Tl  Tl1       1.0  0.25000011383906606  0.24999994343081558  0.2500000481175305  1.0000
  Tl  Tl2       1.0  0.7499999160304783  0.7500000082927145  0.7500002322335393  1.0000
  Mg  Mg1       1.0  8.55928557608116e-08  8.322089471391355e-08  3.289531102094699e-07  1.0000
  O   O1        1.0  0.2687486212385881  0.2687486188283142  0.7312513732723008  1.0000
  O   O2        1.0  0.7312513031356458  0.7312513028432311  0.26874857847982725  1.0000
  O   O3        1.0  0.7312514648799869  0.268748645269556  0.26874845236925193  1.0000
  O   O4        1.0  0.2687487293536318  0.7312512972072164  0.7312511785141322  1.0000
  O   O5        1.0  0.2687486104296986  0.7312514027152863  0.26874848702939064  1.0000
  O   O6        1.0  0.73125115706317  0.2687486692162258  0.7312513396842166  1.0000
