data_image0
_chemical_formula_structural       Tl2MnTe6
_chemical_formula_sum              "Tl2 Mn1 Te6"
_cell_length_a       7.1666525318396825
_cell_length_b       7.1666526538694715
_cell_length_c       7.166651872288653
_cell_angle_alpha    59.99999873034118
_cell_angle_beta     60.00000126238928
_cell_angle_gamma    59.999992184471395

_space_group_name_H-M_alt    "P 1"
_space_group_IT_number       1

loop_
  _space_group_symop_operation_xyz
  'x, y, z'

loop_
  _atom_site_type_symbol
  _atom_site_label
  _atom_site_symmetry_multiplicity
  _atom_site_fract_x
  _atom_site_fract_y
  _atom_site_fract_z
  _atom_site_occupancy
  Tl  Tl1       1.0  0.24999998669587395  0.25000000790048527  0.24999996554172008  1.0000
  Tl  Tl2       1.0  0.7499999955678565  0.7499999655971546  0.7500000446816636  1.0000
  Mn  Mn1       1.0  9.016664337632988e-09  0.9999999777836592  0.9999998684600189  1.0000
  Te  Te1       1.0  0.2499821272980751  0.24998211313635815  0.7500179478129645  1.0000
  Te  Te2       1.0  0.7500178769362191  0.7500178911223718  0.24998210720752823  1.0000
  Te  Te3       1.0  0.7500180000419867  0.24998199120889755  0.24998196908526343  1.0000
  Te  Te4       1.0  0.24998185428238848  0.7500181292584295  0.7500180748788536  1.0000
  Te  Te5       1.0  0.24998199583205105  0.7500181279040959  0.249981913471007  1.0000
  Te  Te6       1.0  0.750018158669567  0.2499817977429329  0.7500181001402683  1.0000
