data_image0
_chemical_formula_structural       Tl2MnO6
_chemical_formula_sum              "Tl2 Mn1 O6"
_cell_length_a       5.315982275176428
_cell_length_b       5.315981699042423
_cell_length_c       5.315982253919491
_cell_angle_alpha    59.99999574788928
_cell_angle_beta     60.00000051527584
_cell_angle_gamma    59.999996789413764

_space_group_name_H-M_alt    "P 1"
_space_group_IT_number       1

loop_
  _space_group_symop_operation_xyz
  'x, y, z'

loop_
  _atom_site_type_symbol
  _atom_site_label
  _atom_site_symmetry_multiplicity
  _atom_site_fract_x
  _atom_site_fract_y
  _atom_site_fract_z
  _atom_site_occupancy
  Tl  Tl1       1.0  0.25000004025663985  0.2500000091284847  0.24999995063828018  1.0000
  Tl  Tl2       1.0  0.7499999792313923  0.7499999697881446  0.7499999759373176  1.0000
  Mn  Mn1       1.0  4.243372336499257e-08  0.9999999769610767  2.7924998242663855e-08  1.0000
  O   O1        1.0  0.24876239925161792  0.24876236442685712  0.7512376260464453  1.0000
  O   O2        1.0  0.7512376134565  0.7512376283131253  0.24876236284662936  1.0000
  O   O3        1.0  0.7512376066120733  0.2487623291406633  0.2487624006655105  1.0000
  O   O4        1.0  0.24876236877454574  0.7512376843343501  0.7512375908774381  1.0000
  O   O5        1.0  0.24876232571342521  0.7512377034377609  0.2487623908612654  1.0000
  O   O6        1.0  0.7512376368813293  0.2487623353800669  0.7512377091545219  1.0000
