data_image0
_chemical_formula_structural       Tl2MgSe6
_chemical_formula_sum              "Tl2 Mg1 Se6"
_cell_length_a       6.830114456365773
_cell_length_b       6.8301136770432
_cell_length_c       6.830114272243274
_cell_angle_alpha    59.999999065338244
_cell_angle_beta     59.99999887822565
_cell_angle_gamma    60.00000392815086

_space_group_name_H-M_alt    "P 1"
_space_group_IT_number       1

loop_
  _space_group_symop_operation_xyz
  'x, y, z'

loop_
  _atom_site_type_symbol
  _atom_site_label
  _atom_site_symmetry_multiplicity
  _atom_site_fract_x
  _atom_site_fract_y
  _atom_site_fract_z
  _atom_site_occupancy
  Tl  Tl1       1.0  0.24999997199243165  0.24999998699678141  0.2500000253417901  1.0000
  Tl  Tl2       1.0  0.7499999913189271  0.7500000291302185  0.7499999940358867  1.0000
  Mg  Mg1       1.0  7.03577951130726e-08  0.9999999157217482  7.13808173498444e-08  1.0000
  Se  Se1       1.0  0.29165226586409165  0.2916521638222317  0.708347775899405  1.0000
  Se  Se2       1.0  0.7083476081650703  0.7083471260772111  0.29165264537672203  1.0000
  Se  Se3       1.0  0.7083479071401809  0.29165238903045126  0.2916524085458938  1.0000
  Se  Se4       1.0  0.29165250107196783  0.7083476719254488  0.7083475841184798  1.0000
  Se  Se5       1.0  0.2916520031326228  0.7083481006689469  0.2916521438594145  1.0000
  Se  Se6       1.0  0.7083476739597863  0.29165262196087416  0.7083473593785328  1.0000
