data_image0
_chemical_formula_structural       Tl2NO6
_chemical_formula_sum              "Tl2 N1 O6"
_cell_length_a       5.159906886732148
_cell_length_b       5.159906530531168
_cell_length_c       5.1599066531226105
_cell_angle_alpha    60.000000571375935
_cell_angle_beta     60.00000184861718
_cell_angle_gamma    60.00000059796822

_space_group_name_H-M_alt    "P 1"
_space_group_IT_number       1

loop_
  _space_group_symop_operation_xyz
  'x, y, z'

loop_
  _atom_site_type_symbol
  _atom_site_label
  _atom_site_symmetry_multiplicity
  _atom_site_fract_x
  _atom_site_fract_y
  _atom_site_fract_z
  _atom_site_occupancy
  Tl  Tl1       1.0  0.25000000335577766  0.25000002217829664  0.24999998143684377  1.0000
  Tl  Tl2       1.0  0.750000027361126  0.7499999810860265  0.7500000229625153  1.0000
  N   N1        1.0  0.9999998646480966  0.9999998219815304  1.4311904738115274e-07  1.0000
  O   O1        1.0  0.21991543461282964  0.21991549406231362  0.7800844894459266  1.0000
  O   O2        1.0  0.780084671961452  0.7800846777261593  0.21991535400227954  1.0000
  O   O3        1.0  0.7800845573947351  0.21991539059023585  0.2199153659620415  1.0000
  O   O4        1.0  0.21991543909924174  0.780084607926927  0.7800846172239505  1.0000
  O   O5        1.0  0.21991539679423802  0.7800846617637524  0.21991536338631185  1.0000
  O   O6        1.0  0.7800846160200091  0.2199153415005704  0.7800846441503171  1.0000
