data_image0
_chemical_formula_structural       Tl2NbO6
_chemical_formula_sum              "Tl2 Nb1 O6"
_cell_length_a       5.43172980595938
_cell_length_b       5.431729351182317
_cell_length_c       5.431731048808885
_cell_angle_alpha    59.99999630713781
_cell_angle_beta     59.99998705139174
_cell_angle_gamma    59.999998641329846

_space_group_name_H-M_alt    "P 1"
_space_group_IT_number       1

loop_
  _space_group_symop_operation_xyz
  'x, y, z'

loop_
  _atom_site_type_symbol
  _atom_site_label
  _atom_site_symmetry_multiplicity
  _atom_site_fract_x
  _atom_site_fract_y
  _atom_site_fract_z
  _atom_site_occupancy
  Tl  Tl1       1.0  0.2499997794227081  0.2500003122691215  0.25000010485948504  1.0000
  Tl  Tl2       1.0  0.7500003767080825  0.7499998048991744  0.7500007184730129  1.0000
  Nb  Nb1       1.0  0.9999999816410771  0.9999999594137078  6.664702722140712e-07  1.0000
  O   O1        1.0  0.25987999635490255  0.2598806638436909  0.740119354108263  1.0000
  O   O2        1.0  0.7401198704622272  0.7401197983084276  0.2598797752536698  1.0000
  O   O3        1.0  0.7401201728695138  0.2598798172667197  0.2598802089346034  1.0000
  O   O4        1.0  0.2598802628562365  0.740119461116833  0.7401194266888608  1.0000
  O   O5        1.0  0.25988041515232635  0.7401195797740887  0.25988011763012503  1.0000
  O   O6        1.0  0.7401193854690398  0.2598805261200847  0.740119639032267  1.0000
