data_image0
_chemical_formula_structural       Tl2NO6
_chemical_formula_sum              "Tl2 N1 O6"
_cell_length_a       5.159939911749116
_cell_length_b       5.1599411958326975
_cell_length_c       5.159941088961997
_cell_angle_alpha    59.99999907356104
_cell_angle_beta     59.9999980816119
_cell_angle_gamma    60.00000127780702

_space_group_name_H-M_alt    "P 1"
_space_group_IT_number       1

loop_
  _space_group_symop_operation_xyz
  'x, y, z'

loop_
  _atom_site_type_symbol
  _atom_site_label
  _atom_site_symmetry_multiplicity
  _atom_site_fract_x
  _atom_site_fract_y
  _atom_site_fract_z
  _atom_site_occupancy
  Tl  Tl1       1.0  0.24999991069035063  0.24999999526649383  0.25000002079666517  1.0000
  Tl  Tl2       1.0  0.7499999145094391  0.7500000024144211  0.749999997747459  1.0000
  N   N1        1.0  3.9075700627550136e-07  1.234253365106004e-07  0.9999987525874598  1.0000
  O   O1        1.0  0.2199211574149285  0.21992088247376468  0.7800790276314382  1.0000
  O   O2        1.0  0.7800786398723534  0.7800788968392969  0.21992122064323227  1.0000
  O   O3        1.0  0.7800786497508165  0.2199214098009756  0.21992138276649498  1.0000
  O   O4        1.0  0.2199208136591833  0.7800791361731092  0.780079224704248  1.0000
  O   O5        1.0  0.21992136624810307  0.7800786385102875  0.21992135044273914  1.0000
  O   O6        1.0  0.780079131321147  0.2199209532912162  0.7800791046303407  1.0000
