data_image0
_chemical_formula_structural       Tl2NbSe6
_chemical_formula_sum              "Tl2 Nb1 Se6"
_cell_length_a       6.90913953361626
_cell_length_b       6.909139271192287
_cell_length_c       6.909139636811887
_cell_angle_alpha    60.00000004043149
_cell_angle_beta     59.999995982656806
_cell_angle_gamma    60.000005701183895

_space_group_name_H-M_alt    "P 1"
_space_group_IT_number       1

loop_
  _space_group_symop_operation_xyz
  'x, y, z'

loop_
  _atom_site_type_symbol
  _atom_site_label
  _atom_site_symmetry_multiplicity
  _atom_site_fract_x
  _atom_site_fract_y
  _atom_site_fract_z
  _atom_site_occupancy
  Tl  Tl1       1.0  0.24999997454809358  0.25000003369705137  0.24999996823008228  1.0000
  Tl  Tl2       1.0  0.750000047674225  0.7499999947324905  0.7499999609857212  1.0000
  Nb  Nb1       1.0  0.9999998220551887  0.9999998369166939  4.874855099861138e-07  1.0000
  Se  Se1       1.0  0.2581326984486038  0.2581326839692099  0.7418673102151558  1.0000
  Se  Se2       1.0  0.7418675181096323  0.7418675536324126  0.258132517114363  1.0000
  Se  Se3       1.0  0.7418673078180379  0.2581326485202866  0.25813272763838063  1.0000
  Se  Se4       1.0  0.25813295144316273  0.7418670147444834  0.7418671397201919  1.0000
  Se  Se5       1.0  0.25813273078862214  0.7418672218363802  0.258132850237943  1.0000
  Se  Se6       1.0  0.7418669356191846  0.25813303171899354  0.7418670459018547  1.0000
