data_image0
_chemical_formula_structural       Tl2NiO6
_chemical_formula_sum              "Tl2 Ni1 O6"
_cell_length_a       5.237141081262409
_cell_length_b       5.237140954193952
_cell_length_c       5.237141071607611
_cell_angle_alpha    60.00000019580152
_cell_angle_beta     60.00000059027513
_cell_angle_gamma    60.00000124984262

_space_group_name_H-M_alt    "P 1"
_space_group_IT_number       1

loop_
  _space_group_symop_operation_xyz
  'x, y, z'

loop_
  _atom_site_type_symbol
  _atom_site_label
  _atom_site_symmetry_multiplicity
  _atom_site_fract_x
  _atom_site_fract_y
  _atom_site_fract_z
  _atom_site_occupancy
  Tl  Tl1       1.0  0.250000001351173  0.25000007743702063  0.24999994126506347  1.0000
  Tl  Tl2       1.0  0.7499999708512606  0.7500000078078276  0.749999790345643  1.0000
  Ni  Ni1       1.0  0.9999999823613609  1.044299636725601e-16  5.4645848960414934e-08  1.0000
  O   O1        1.0  0.24419959134233993  0.2441996430921176  0.7558003928204537  1.0000
  O   O2        1.0  0.7558004690991842  0.7558003626411733  0.24419964184612133  1.0000
  O   O3        1.0  0.7558004232597955  0.244199609567285  0.24419959203764385  1.0000
  O   O4        1.0  0.2441996012816173  0.755800351733074  0.7558004847048913  1.0000
  O   O5        1.0  0.2441995877314062  0.7558002982094761  0.24419969570035757  1.0000
  O   O6        1.0  0.7558003522469451  0.2441996654294565  0.7558003896939627  1.0000
