data_image0
_chemical_formula_structural       Tl2NbS6
_chemical_formula_sum              "Tl2 Nb1 S6"
_cell_length_a       6.594161168128441
_cell_length_b       6.594160731281713
_cell_length_c       6.5941607693384805
_cell_angle_alpha    60.0000017555722
_cell_angle_beta     60.00000819607925
_cell_angle_gamma    60.000001803459

_space_group_name_H-M_alt    "P 1"
_space_group_IT_number       1

loop_
  _space_group_symop_operation_xyz
  'x, y, z'

loop_
  _atom_site_type_symbol
  _atom_site_label
  _atom_site_symmetry_multiplicity
  _atom_site_fract_x
  _atom_site_fract_y
  _atom_site_fract_z
  _atom_site_occupancy
  Tl  Tl1       1.0  0.25000002171509655  0.25000003872576243  0.2500000117517153  1.0000
  Tl  Tl2       1.0  0.7499999002783391  0.7500000381699603  0.7500000277903532  1.0000
  Nb  Nb1       1.0  0.9999993872071925  9.13800097084709e-07  0.9999996296048252  1.0000
  S   S1        1.0  0.2551588422454877  0.25515882969997256  0.7448411934768221  1.0000
  S   S2        1.0  0.7448409969034016  0.7448409388810813  0.2551590082819954  1.0000
  S   S3        1.0  0.7448407181415925  0.25515934628714854  0.2551593320948376  1.0000
  S   S4        1.0  0.25515970090202994  0.7448404687268421  0.7448403441911238  1.0000
  S   S5        1.0  0.25515900380269535  0.7448409448589952  0.25515902697665926  1.0000
  S   S6        1.0  0.7448414852394993  0.2551584132549445  0.7448414235769355  1.0000
