data_image0
_chemical_formula_structural       Tl2NbTe6
_chemical_formula_sum              "Tl2 Nb1 Te6"
_cell_length_a       7.435602136696891
_cell_length_b       7.435602069926704
_cell_length_c       7.435602862355883
_cell_angle_alpha    59.999996719193874
_cell_angle_beta     59.999996323556246
_cell_angle_gamma    60.00000556946668

_space_group_name_H-M_alt    "P 1"
_space_group_IT_number       1

loop_
  _space_group_symop_operation_xyz
  'x, y, z'

loop_
  _atom_site_type_symbol
  _atom_site_label
  _atom_site_symmetry_multiplicity
  _atom_site_fract_x
  _atom_site_fract_y
  _atom_site_fract_z
  _atom_site_occupancy
  Tl  Tl1       1.0  0.25000003216697686  0.24999994388320002  0.250000018156345  1.0000
  Tl  Tl2       1.0  0.7499999793524947  0.7500000573072382  0.7499999786963409  1.0000
  Nb  Nb1       1.0  0.9999998864177955  0.9999999028189583  5.8310793052041356e-08  1.0000
  Te  Te1       1.0  0.26387861435274085  0.26387860268110036  0.7361213652076051  1.0000
  Te  Te2       1.0  0.7361214512664086  0.7361215203974154  0.2638785046496582  1.0000
  Te  Te3       1.0  0.7361211762259537  0.26387878430631745  0.2638788242146322  1.0000
  Te  Te4       1.0  0.2638787802813933  0.7361212514739743  0.7361211962979981  1.0000
  Te  Te5       1.0  0.2638788386160609  0.7361211620667848  0.26387886040675756  1.0000
  Te  Te6       1.0  0.7361212492179383  0.2638787732382157  0.736121191751022  1.0000
