data_image0
_chemical_formula_structural       Tl2NiS6
_chemical_formula_sum              "Tl2 Ni1 S6"
_cell_length_a       6.4010005098557325
_cell_length_b       6.401001163992854
_cell_length_c       6.401001420226368
_cell_angle_alpha    59.999997353189386
_cell_angle_beta     59.99999827610685
_cell_angle_gamma    59.99999275205652

_space_group_name_H-M_alt    "P 1"
_space_group_IT_number       1

loop_
  _space_group_symop_operation_xyz
  'x, y, z'

loop_
  _atom_site_type_symbol
  _atom_site_label
  _atom_site_symmetry_multiplicity
  _atom_site_fract_x
  _atom_site_fract_y
  _atom_site_fract_z
  _atom_site_occupancy
  Tl  Tl1       1.0  0.25000003784558195  0.2499999402028252  0.249999985970459  1.0000
  Tl  Tl2       1.0  0.7500000164303893  0.7500000253384983  0.7499999431559287  1.0000
  Ni  Ni1       1.0  5.6412877524761787e-08  6.888112096348508e-08  0.9999999795339012  1.0000
  S   S1        1.0  0.240126708760231  0.24012701613994286  0.7598732264478146  1.0000
  S   S2        1.0  0.7598732794421628  0.7598730718567187  0.24012682133971178  1.0000
  S   S3        1.0  0.7598730398182081  0.24012685159477526  0.24012691151283044  1.0000
  S   S4        1.0  0.240126992082075  0.7598730890728076  0.7598731318490932  1.0000
  S   S5        1.0  0.24012687224853585  0.7598731582075327  0.24012687039290098  1.0000
  S   S6        1.0  0.759872976634952  0.24012673079922062  0.7598732762475315  1.0000
