data_image0
_chemical_formula_structural       Tl2PdO6
_chemical_formula_sum              "Tl2 Pd1 O6"
_cell_length_a       5.874299135550818
_cell_length_b       5.874299194595291
_cell_length_c       5.8742993040420854
_cell_angle_alpha    59.99999973499222
_cell_angle_beta     59.999999789936346
_cell_angle_gamma    60.00000115976

_space_group_name_H-M_alt    "P 1"
_space_group_IT_number       1

loop_
  _space_group_symop_operation_xyz
  'x, y, z'

loop_
  _atom_site_type_symbol
  _atom_site_label
  _atom_site_symmetry_multiplicity
  _atom_site_fract_x
  _atom_site_fract_y
  _atom_site_fract_z
  _atom_site_occupancy
  Tl  Tl1       1.0  0.25000003705653345  0.25000000901159486  0.24999999059775618  1.0000
  Tl  Tl2       1.0  0.7500000454095515  0.7499999707419215  0.7499999885591262  1.0000
  Pd  Pd1       1.0  0.9999977484597762  0.9999988407839966  2.2790635411923245e-06  1.0000
  O   O1        1.0  0.2198135145746024  0.2198135811466024  0.7801864277272116  1.0000
  O   O2        1.0  0.7801882037435676  0.7801883021396416  0.21981175620231824  1.0000
  O   O3        1.0  0.7801876148496536  0.21981237267952208  0.21981232259230152  1.0000
  O   O4        1.0  0.21981289288882172  0.7801870212112495  0.7801871069974027  1.0000
  O   O5        1.0  0.21981260619481943  0.7801872790740024  0.21981269722682295  1.0000
  O   O6        1.0  0.7801873281910406  0.21981263187712505  0.7801874073946721  1.0000
