data_image0
_chemical_formula_structural       Tl2PtS6
_chemical_formula_sum              "Tl2 Pt1 S6"
_cell_length_a       6.420471807645497
_cell_length_b       6.42047117623408
_cell_length_c       6.420471697377001
_cell_angle_alpha    59.99999977293929
_cell_angle_beta     60.000000926250344
_cell_angle_gamma    59.99999869641002

_space_group_name_H-M_alt    "P 1"
_space_group_IT_number       1

loop_
  _space_group_symop_operation_xyz
  'x, y, z'

loop_
  _atom_site_type_symbol
  _atom_site_label
  _atom_site_symmetry_multiplicity
  _atom_site_fract_x
  _atom_site_fract_y
  _atom_site_fract_z
  _atom_site_occupancy
  Tl  Tl1       1.0  0.2499999671286489  0.25000001954531503  0.25000000907293446  1.0000
  Tl  Tl2       1.0  0.7500000098581504  0.7499999975939508  0.7499999894860364  1.0000
  Pt  Pt1       1.0  0.9999999868652547  2.8613435636320177e-08  2.4968532524640322e-08  1.0000
  S   S1        1.0  0.25479315374348216  0.25479318755027525  0.7452068305118001  1.0000
  S   S2        1.0  0.745206892619853  0.7452068696477995  0.2547931180020531  1.0000
  S   S3        1.0  0.7452068870911804  0.25479311394594834  0.25479311932619786  1.0000
  S   S4        1.0  0.254793184089184  0.7452068364286352  0.7452068203503097  1.0000
  S   S5        1.0  0.25479312456094433  0.745206810074303  0.2547931727700159  1.0000
  S   S6        1.0  0.7452067994537112  0.2547931555607808  0.7452069138500297  1.0000
