data_image0
_chemical_formula_structural       Tl2PdSe6
_chemical_formula_sum              "Tl2 Pd1 Se6"
_cell_length_a       6.784611625980673
_cell_length_b       6.784611358605615
_cell_length_c       6.784611505043203
_cell_angle_alpha    60.00000091927351
_cell_angle_beta     59.99999958098814
_cell_angle_gamma    60.00000154856295

_space_group_name_H-M_alt    "P 1"
_space_group_IT_number       1

loop_
  _space_group_symop_operation_xyz
  'x, y, z'

loop_
  _atom_site_type_symbol
  _atom_site_label
  _atom_site_symmetry_multiplicity
  _atom_site_fract_x
  _atom_site_fract_y
  _atom_site_fract_z
  _atom_site_occupancy
  Tl  Tl1       1.0  0.25000001568657165  0.24999999424928182  0.2500000032101172  1.0000
  Tl  Tl2       1.0  0.7500000015880958  0.7500000170462744  0.7499999813167014  1.0000
  Pd  Pd1       1.0  4.3805105865337354e-08  0.9999999043254297  0.9999999699256283  1.0000
  Se  Se1       1.0  0.2639284185031599  0.26392843413793193  0.7360715505991823  1.0000
  Se  Se2       1.0  0.7360716075732174  0.7360715915990684  0.263928401671127  1.0000
  Se  Se3       1.0  0.7360715278035526  0.26392845119436953  0.263928474228267  1.0000
  Se  Se4       1.0  0.2639283516640331  0.7360716467498535  0.736071647895966  1.0000
  Se  Se5       1.0  0.2639285209413724  0.7360714954044565  0.2639284782465998  1.0000
  Se  Se6       1.0  0.7360715154853137  0.26392846354086313  0.7360714934008519  1.0000
