data_image0
_chemical_formula_structural       Tl2PSe6
_chemical_formula_sum              "Tl2 P1 Se6"
_cell_length_a       6.725006209383591
_cell_length_b       6.725005495911134
_cell_length_c       6.725005370646358
_cell_angle_alpha    60.000003280841646
_cell_angle_beta     60.00000156298898
_cell_angle_gamma    60.000001561399515

_space_group_name_H-M_alt    "P 1"
_space_group_IT_number       1

loop_
  _space_group_symop_operation_xyz
  'x, y, z'

loop_
  _atom_site_type_symbol
  _atom_site_label
  _atom_site_symmetry_multiplicity
  _atom_site_fract_x
  _atom_site_fract_y
  _atom_site_fract_z
  _atom_site_occupancy
  Tl  Tl1       1.0  0.24999998291520278  0.24999997004544164  0.25000002440780794  1.0000
  Tl  Tl2       1.0  0.7500000358436625  0.7500000248706918  0.7499999351325225  1.0000
  P   P1        1.0  1.3420776005360748e-07  0.9999998652326493  0.9999999690530491  1.0000
  Se  Se1       1.0  0.244112616651581  0.2441125998318174  0.7558874483558744  1.0000
  Se  Se2       1.0  0.7558873653712075  0.7558875207457693  0.24411258419379606  1.0000
  Se  Se3       1.0  0.7558873665143084  0.24411254866293652  0.24411255962226658  1.0000
  Se  Se4       1.0  0.24411256042685267  0.7558874590014565  0.7558873933561706  1.0000
  Se  Se5       1.0  0.24411251742065468  0.7558874422285315  0.2441126527715772  1.0000
  Se  Se6       1.0  0.7558873986291585  0.24411253629698176  0.7558875031214559  1.0000
