data_image0
_chemical_formula_structural       Tl2PbTe6
_chemical_formula_sum              "Tl2 Pb1 Te6"
_cell_length_a       7.83066693783529
_cell_length_b       7.830666986518866
_cell_length_c       7.830667238820616
_cell_angle_alpha    60.00000028578006
_cell_angle_beta     59.999999008372086
_cell_angle_gamma    59.999999536335665

_space_group_name_H-M_alt    "P 1"
_space_group_IT_number       1

loop_
  _space_group_symop_operation_xyz
  'x, y, z'

loop_
  _atom_site_type_symbol
  _atom_site_label
  _atom_site_symmetry_multiplicity
  _atom_site_fract_x
  _atom_site_fract_y
  _atom_site_fract_z
  _atom_site_occupancy
  Tl  Tl1       1.0  0.2500000629473292  0.2500000149197745  0.24999994251465427  1.0000
  Tl  Tl2       1.0  0.7499999509427081  0.7499999931461232  0.7500000616923287  1.0000
  Pb  Pb1       1.0  1.7590257157762113e-08  3.1280729988110186e-08  3.8138995656311604e-08  1.0000
  Te  Te1       1.0  0.2871187132541838  0.2871186782105778  0.712881327113764  1.0000
  Te  Te2       1.0  0.7128812562807115  0.712881232885059  0.28711870178282545  1.0000
  Te  Te3       1.0  0.7128812691736955  0.28711877890221055  0.28711869353646274  1.0000
  Te  Te4       1.0  0.28711879105470317  0.7128811963189208  0.7128812834912363  1.0000
  Te  Te5       1.0  0.2871187573802671  0.7128812981641103  0.2871186677101864  1.0000
  Te  Te6       1.0  0.7128811785789252  0.2871187755913184  0.7128812889821778  1.0000
