data_image0
_chemical_formula_structural       Tl2PbS6
_chemical_formula_sum              "Tl2 Pb1 S6"
_cell_length_a       6.7338529612169244
_cell_length_b       6.733853000625045
_cell_length_c       6.733853114112034
_cell_angle_alpha    60.0000052723947
_cell_angle_beta     60.00000596877616
_cell_angle_gamma    59.9999945142932

_space_group_name_H-M_alt    "P 1"
_space_group_IT_number       1

loop_
  _space_group_symop_operation_xyz
  'x, y, z'

loop_
  _atom_site_type_symbol
  _atom_site_label
  _atom_site_symmetry_multiplicity
  _atom_site_fract_x
  _atom_site_fract_y
  _atom_site_fract_z
  _atom_site_occupancy
  Tl  Tl1       1.0  0.24999997493329337  0.25000002645799496  0.2500000932493318  1.0000
  Tl  Tl2       1.0  0.7499998865369969  0.7500001375751835  0.7500000425686552  1.0000
  Pb  Pb1       1.0  0.9999996760273298  1.436842267291979e-07  0.9999993699027812  1.0000
  S   S1        1.0  0.27503195513886286  0.27503178362096103  0.7249683149933978  1.0000
  S   S2        1.0  0.724968526685907  0.7249680111982767  0.2750319803808394  1.0000
  S   S3        1.0  0.724968521914094  0.27503166927007916  0.2750318780913521  1.0000
  S   S4        1.0  0.2750321796627529  0.7249680218782447  0.724968445374275  1.0000
  S   S5        1.0  0.27503154682953523  0.7249682290971413  0.27503155699183074  1.0000
  S   S6        1.0  0.7249676981885054  0.27503200950637147  0.7249682958494494  1.0000
