data_image0
_chemical_formula_structural       Tl2PdS6
_chemical_formula_sum              "Tl2 Pd1 S6"
_cell_length_a       6.43841712542121
_cell_length_b       6.4384172973756755
_cell_length_c       6.438417352766618
_cell_angle_alpha    59.999999080748005
_cell_angle_beta     59.99999845885421
_cell_angle_gamma    60.00000141192267

_space_group_name_H-M_alt    "P 1"
_space_group_IT_number       1

loop_
  _space_group_symop_operation_xyz
  'x, y, z'

loop_
  _atom_site_type_symbol
  _atom_site_label
  _atom_site_symmetry_multiplicity
  _atom_site_fract_x
  _atom_site_fract_y
  _atom_site_fract_z
  _atom_site_occupancy
  Tl  Tl1       1.0  0.24999998478466684  0.2499999659175768  0.25000003883839156  1.0000
  Tl  Tl2       1.0  0.7500000169601084  0.7500000004739751  0.7500000214260838  1.0000
  Pd  Pd1       1.0  7.306232041403807e-08  0.9999998991810027  1.2260070970592764e-07  1.0000
  S   S1        1.0  0.25963979108973684  0.25963969371724593  0.7403603204228205  1.0000
  S   S2        1.0  0.7403601421587453  0.74036032213268  0.2596398953592266  1.0000
  S   S3        1.0  0.7403601931183799  0.2596397937048393  0.2596398467177936  1.0000
  S   S4        1.0  0.25963984815384755  0.7403602316563164  0.7403600773202567  1.0000
  S   S5        1.0  0.25963975153480245  0.7403602686776556  0.2596397032655088  1.0000
  S   S6        1.0  0.7403601731255807  0.25963982135983754  0.7403600230828461  1.0000
