data_image0
_chemical_formula_structural       Tl2PbSe6
_chemical_formula_sum              "Tl2 Pb1 Se6"
_cell_length_a       7.072508436845369
_cell_length_b       7.072508186337826
_cell_length_c       7.072508593536689
_cell_angle_alpha    59.99999966370738
_cell_angle_beta     60.00000076340977
_cell_angle_gamma    59.9999985130688

_space_group_name_H-M_alt    "P 1"
_space_group_IT_number       1

loop_
  _space_group_symop_operation_xyz
  'x, y, z'

loop_
  _atom_site_type_symbol
  _atom_site_label
  _atom_site_symmetry_multiplicity
  _atom_site_fract_x
  _atom_site_fract_y
  _atom_site_fract_z
  _atom_site_occupancy
  Tl  Tl1       1.0  0.2499999840018653  0.2500000001252536  0.25000001842524927  1.0000
  Tl  Tl2       1.0  0.7500000173940606  0.7500000246195323  0.7499999227962522  1.0000
  Pb  Pb1       1.0  0.9999999637163844  1.3334075341021425e-07  8.028450810373572e-09  1.0000
  Se  Se1       1.0  0.2996018133059268  0.2996021369791649  0.7003981981394999  1.0000
  Se  Se2       1.0  0.7003973513022296  0.7003973907682841  0.29960280021796754  1.0000
  Se  Se3       1.0  0.7003982284239553  0.2996021479582329  0.2996017728865059  1.0000
  Se  Se4       1.0  0.29960279584957883  0.700397433471826  0.7003972521845802  1.0000
  Se  Se5       1.0  0.29960220603374965  0.7003979896826996  0.2996023371024274  1.0000
  Se  Se6       1.0  0.7003976361080838  0.2996027381315138  0.7003976998320336  1.0000
