data_image0
_chemical_formula_structural       Tl2PO6
_chemical_formula_sum              "Tl2 P1 O6"
_cell_length_a       5.198593041498835
_cell_length_b       5.198593194088583
_cell_length_c       5.198593230107005
_cell_angle_alpha    60.00000022234316
_cell_angle_beta     60.000000415105205
_cell_angle_gamma    60.000002129529776

_space_group_name_H-M_alt    "P 1"
_space_group_IT_number       1

loop_
  _space_group_symop_operation_xyz
  'x, y, z'

loop_
  _atom_site_type_symbol
  _atom_site_label
  _atom_site_symmetry_multiplicity
  _atom_site_fract_x
  _atom_site_fract_y
  _atom_site_fract_z
  _atom_site_occupancy
  Tl  Tl1       1.0  0.24999999341992724  0.25000004039993373  0.24999997255774642  1.0000
  Tl  Tl2       1.0  0.7500000310120339  0.7500000222513326  0.7499999090701931  1.0000
  P   P1        1.0  3.0715408036539034e-08  0.9999999811526731  0.9999998574905501  1.0000
  O   O1        1.0  0.2322906751277588  0.23229067131520698  0.7677093553930314  1.0000
  O   O2        1.0  0.7677093582351527  0.7677093112349175  0.2322907041662055  1.0000
  O   O3        1.0  0.767709275707682  0.23229067575113965  0.2322907930103438  1.0000
  O   O4        1.0  0.232290692590474  0.7677093020871517  0.7677093803046766  1.0000
  O   O5        1.0  0.23229065457831188  0.7677092766994272  0.23229081762794251  1.0000
  O   O6        1.0  0.7677093041845598  0.23229069642703193  0.767709357039844  1.0000
