data_image0
_chemical_formula_structural       Tl2PS6
_chemical_formula_sum              "Tl2 P1 S6"
_cell_length_a       6.705309911717689
_cell_length_b       6.705309009709022
_cell_length_c       6.705308865422085
_cell_angle_alpha    59.99999442467816
_cell_angle_beta     59.99999820896634
_cell_angle_gamma    59.99999558561196

_space_group_name_H-M_alt    "P 1"
_space_group_IT_number       1

loop_
  _space_group_symop_operation_xyz
  'x, y, z'

loop_
  _atom_site_type_symbol
  _atom_site_label
  _atom_site_symmetry_multiplicity
  _atom_site_fract_x
  _atom_site_fract_y
  _atom_site_fract_z
  _atom_site_occupancy
  Tl  Tl1       1.0  0.24999997886730324  0.24999980682692488  0.25000016077524184  1.0000
  Tl  Tl2       1.0  0.7500000066034829  0.7500001145622697  0.7499999645707941  1.0000
  P   P1        1.0  1.199032133978292e-07  0.9999998831020653  2.086769405563808e-08  1.0000
  S   S1        1.0  0.23018504561256195  0.23018526086709493  0.7698148721337826  1.0000
  S   S2        1.0  0.7698148399213754  0.7698149345016376  0.2301850796922755  1.0000
  S   S3        1.0  0.7698147608789715  0.23018518716792577  0.23018509331591677  1.0000
  S   S4        1.0  0.23018527689549795  0.7698148511192121  0.7698147729406912  1.0000
  S   S5        1.0  0.23018518141933605  0.7698148480044609  0.23018501209283743  1.0000
  S   S6        1.0  0.7698148082237386  0.2301852158540974  0.769814919132561  1.0000
