data_image0
_chemical_formula_structural       Tl2RhSe6
_chemical_formula_sum              "Tl2 Rh1 Se6"
_cell_length_a       6.71960932827503
_cell_length_b       6.7196097324673465
_cell_length_c       6.719609652991269
_cell_angle_alpha    59.99999953353935
_cell_angle_beta     59.99999913311572
_cell_angle_gamma    59.999999999977454

_space_group_name_H-M_alt    "P 1"
_space_group_IT_number       1

loop_
  _space_group_symop_operation_xyz
  'x, y, z'

loop_
  _atom_site_type_symbol
  _atom_site_label
  _atom_site_symmetry_multiplicity
  _atom_site_fract_x
  _atom_site_fract_y
  _atom_site_fract_z
  _atom_site_occupancy
  Tl  Tl1       1.0  0.24999999691287805  0.24999999487004998  0.2499999924864203  1.0000
  Tl  Tl2       1.0  0.7499999769914004  0.7499999846101494  0.7500000230256018  1.0000
  Rh  Rh1       1.0  1.814211848324158e-07  3.82754986819906e-08  0.999999899080749  1.0000
  Se  Se1       1.0  0.2593453545047959  0.25934528362203785  0.7406546668507145  1.0000
  Se  Se2       1.0  0.7406546111559444  0.7406546174845191  0.2593453651826281  1.0000
  Se  Se3       1.0  0.7406546045267611  0.2593453525201366  0.25934537629960996  1.0000
  Se  Se4       1.0  0.2593452967518157  0.7406547108016336  0.7406547348008311  1.0000
  Se  Se5       1.0  0.25934533457685577  0.7406546949404852  0.2593452390394722  1.0000
  Se  Se6       1.0  0.7406546387019902  0.2593453173472863  0.7406546963896675  1.0000
