data_image0
_chemical_formula_structural       Tl2RhS6
_chemical_formula_sum              "Tl2 Rh1 S6"
_cell_length_a       6.383534934585563
_cell_length_b       6.383534894953732
_cell_length_c       6.383535365963737
_cell_angle_alpha    59.999998518199405
_cell_angle_beta     59.999997570000914
_cell_angle_gamma    59.999998838890406

_space_group_name_H-M_alt    "P 1"
_space_group_IT_number       1

loop_
  _space_group_symop_operation_xyz
  'x, y, z'

loop_
  _atom_site_type_symbol
  _atom_site_label
  _atom_site_symmetry_multiplicity
  _atom_site_fract_x
  _atom_site_fract_y
  _atom_site_fract_z
  _atom_site_occupancy
  Tl  Tl1       1.0  0.24999998094883388  0.25000001074988476  0.249999998861662  1.0000
  Tl  Tl2       1.0  0.7500000011693521  0.7500000092264569  0.7499999977335197  1.0000
  Rh  Rh1       1.0  0.9999999788954023  6.331379359105886e-08  0.9999999459982715  1.0000
  S   S1        1.0  0.2549125576349425  0.2549124858690615  0.7450874819194605  1.0000
  S   S2        1.0  0.7450874901701396  0.7450874727120862  0.25491252819517013  1.0000
  S   S3        1.0  0.7450874867883498  0.25491248159190727  0.2549125240875973  1.0000
  S   S4        1.0  0.254912537702007  0.7450874980938385  0.7450874886986271  1.0000
  S   S5        1.0  0.25491250460151715  0.7450874808929545  0.25491254173531497  1.0000
  S   S6        1.0  0.7450874782847544  0.2549124987927914  0.7450875122178429  1.0000
