data_image0
_chemical_formula_structural       Tl2RuS6
_chemical_formula_sum              "Tl2 Ru1 S6"
_cell_length_a       6.341068735727773
_cell_length_b       6.341069417964593
_cell_length_c       6.341068994790218
_cell_angle_alpha    60.00000354391182
_cell_angle_beta     60.000003522455415
_cell_angle_gamma    60.00000152505622

_space_group_name_H-M_alt    "P 1"
_space_group_IT_number       1

loop_
  _space_group_symop_operation_xyz
  'x, y, z'

loop_
  _atom_site_type_symbol
  _atom_site_label
  _atom_site_symmetry_multiplicity
  _atom_site_fract_x
  _atom_site_fract_y
  _atom_site_fract_z
  _atom_site_occupancy
  Tl  Tl1       1.0  0.25000003367955775  0.2500000207648695  0.24999998334502843  1.0000
  Tl  Tl2       1.0  0.7499999574205544  0.7500000178713002  0.7499999683587772  1.0000
  Ru  Ru1       1.0  0.9999999597205923  0.9999998203753032  0.999999791393774  1.0000
  S   S1        1.0  0.25841780532656305  0.2584177808083022  0.7415822451150449  1.0000
  S   S2        1.0  0.7415822162695387  0.7415823138398692  0.2584177469168886  1.0000
  S   S3        1.0  0.7415822279078023  0.258417805912011  0.2584178356181574  1.0000
  S   S4        1.0  0.2584176462798502  0.7415823157764417  0.7415823269893362  1.0000
  S   S5        1.0  0.25841777060950283  0.7415822922468142  0.2584178176444429  1.0000
  S   S6        1.0  0.7415823172617663  0.2584176691314171  0.7415822914669995  1.0000
