data_image0
_chemical_formula_structural       Tl2RuSe6
_chemical_formula_sum              "Tl2 Ru1 Se6"
_cell_length_a       6.73433857810797
_cell_length_b       6.734339086732736
_cell_length_c       6.734338822277368
_cell_angle_alpha    59.99999722924663
_cell_angle_beta     59.99999743669622
_cell_angle_gamma    59.9999973605221

_space_group_name_H-M_alt    "P 1"
_space_group_IT_number       1

loop_
  _space_group_symop_operation_xyz
  'x, y, z'

loop_
  _atom_site_type_symbol
  _atom_site_label
  _atom_site_symmetry_multiplicity
  _atom_site_fract_x
  _atom_site_fract_y
  _atom_site_fract_z
  _atom_site_occupancy
  Tl  Tl1       1.0  0.25000000031903485  0.24999998576724036  0.2500000039461092  1.0000
  Tl  Tl2       1.0  0.7500000064813942  0.7499999973121616  0.7500000024353022  1.0000
  Ru  Ru1       1.0  7.258871553107564e-08  0.9999998799686826  0.9999998217712631  1.0000
  Se  Se1       1.0  0.2592250027320181  0.25922512704815825  0.7407749211567544  1.0000
  Se  Se2       1.0  0.7407749086009258  0.7407749469640654  0.25922513203979014  1.0000
  Se  Se3       1.0  0.7407748639019526  0.2592250273748687  0.2592252180808733  1.0000
  Se  Se4       1.0  0.25922515128152956  0.7407749356993087  0.7407748861770842  1.0000
  Se  Se5       1.0  0.25922517917189253  0.740774933610383  0.2592250484780735  1.0000
  Se  Se6       1.0  0.7407748134417911  0.2592251640443717  0.7407749641362484  1.0000
