data_image0
_chemical_formula_structural       Tl2RhO6
_chemical_formula_sum              "Tl2 Rh1 O6"
_cell_length_a       5.389853757006082
_cell_length_b       5.3898535121351685
_cell_length_c       5.389854951138782
_cell_angle_alpha    59.99999044201474
_cell_angle_beta     59.99998432626996
_cell_angle_gamma    59.99999477564014

_space_group_name_H-M_alt    "P 1"
_space_group_IT_number       1

loop_
  _space_group_symop_operation_xyz
  'x, y, z'

loop_
  _atom_site_type_symbol
  _atom_site_label
  _atom_site_symmetry_multiplicity
  _atom_site_fract_x
  _atom_site_fract_y
  _atom_site_fract_z
  _atom_site_occupancy
  Tl  Tl1       1.0  0.24999912039153296  0.24999967919020444  0.2500006247099773  1.0000
  Tl  Tl2       1.0  0.7500002230477827  0.7500000283004333  0.7499999867903316  1.0000
  Rh  Rh1       1.0  7.117313100348e-08  4.999094685881886e-08  0.999999729764819  1.0000
  O   O1        1.0  0.25126140948951264  0.2512616328684091  0.7487384391205677  1.0000
  O   O2        1.0  0.7487384773702942  0.7487382632244618  0.2512616764947188  1.0000
  O   O3        1.0  0.7487385863006422  0.2512618866686762  0.25126149036427126  1.0000
  O   O4        1.0  0.25126169195363257  0.7487384934274903  0.7487381875521061  1.0000
  O   O5        1.0  0.25126170216121374  0.7487383954881152  0.25126178644734737  1.0000
  O   O6        1.0  0.7487386997746759  0.2512614528861408  0.7487381641366605  1.0000
