data_image0
_chemical_formula_structural       Tl2ScO6
_chemical_formula_sum              "Tl2 Sc1 O6"
_cell_length_a       5.399782449175639
_cell_length_b       5.399783493667353
_cell_length_c       5.39978195216844
_cell_angle_alpha    60.00000438693968
_cell_angle_beta     60.00000292317683
_cell_angle_gamma    60.000006675501275

_space_group_name_H-M_alt    "P 1"
_space_group_IT_number       1

loop_
  _space_group_symop_operation_xyz
  'x, y, z'

loop_
  _atom_site_type_symbol
  _atom_site_label
  _atom_site_symmetry_multiplicity
  _atom_site_fract_x
  _atom_site_fract_y
  _atom_site_fract_z
  _atom_site_occupancy
  Tl  Tl1       1.0  0.25000003278850286  0.25000023220884476  0.24999992511262953  1.0000
  Tl  Tl2       1.0  0.7500000609046189  0.7499997825673796  0.7500004548098751  1.0000
  Sc  Sc1       1.0  5.760762747447845e-08  6.804434387614864e-09  0.9999995566662566  1.0000
  O   O1        1.0  0.2709806467148054  0.2709808801789384  0.7290191551740752  1.0000
  O   O2        1.0  0.7290193647251  0.729019111915965  0.27098043273715494  1.0000
  O   O3        1.0  0.7290190177105353  0.27098092681777025  0.2709807835042243  1.0000
  O   O4        1.0  0.2709803813774983  0.7290195166363257  0.7290194330736117  1.0000
  O   O5        1.0  0.2709808865705491  0.7290191639025059  0.27098077641452095  1.0000
  O   O6        1.0  0.7290195911823322  0.2709803722968605  0.7290194785373738  1.0000
