data_image0
_chemical_formula_structural       Tl2SbO6
_chemical_formula_sum              "Tl2 Sb1 O6"
_cell_length_a       5.353749019401492
_cell_length_b       5.353747043918199
_cell_length_c       5.353748174529221
_cell_angle_alpha    60.00000319406743
_cell_angle_beta     60.00000207300247
_cell_angle_gamma    60.00000296633946

_space_group_name_H-M_alt    "P 1"
_space_group_IT_number       1

loop_
  _space_group_symop_operation_xyz
  'x, y, z'

loop_
  _atom_site_type_symbol
  _atom_site_label
  _atom_site_symmetry_multiplicity
  _atom_site_fract_x
  _atom_site_fract_y
  _atom_site_fract_z
  _atom_site_occupancy
  Tl  Tl1       1.0  0.2499995630837751  0.2500001193335385  0.25000020807865597  1.0000
  Tl  Tl2       1.0  0.7499998773122525  0.749999847856896  0.7500004029518642  1.0000
  Sb  Sb1       1.0  2.0980106093493352e-07  0.9999998558785342  0.9999989342389842  1.0000
  O   O1        1.0  0.26020951705610423  0.26020963280440473  0.7397904548642511  1.0000
  O   O2        1.0  0.7397905939049689  0.7397906843950331  0.2602092816484518  1.0000
  O   O3        1.0  0.7397902685495099  0.26020989952999724  0.2602094402583443  1.0000
  O   O4        1.0  0.2602090861084051  0.7397906807481026  0.7397910621290215  1.0000
  O   O5        1.0  0.26020983316363205  0.7397899539966923  0.2602097406603578  1.0000
  O   O6        1.0  0.7397910956616303  0.26020917134216903  0.7397906161916916  1.0000
