data_image0
_chemical_formula_structural       Tl2SrSe6
_chemical_formula_sum              "Tl2 Sr1 Se6"
_cell_length_a       7.405999366332793
_cell_length_b       7.405999811953743
_cell_length_c       7.405999155758207
_cell_angle_alpha    60.000003890625216
_cell_angle_beta     59.99999904561751
_cell_angle_gamma    60.00000295222865

_space_group_name_H-M_alt    "P 1"
_space_group_IT_number       1

loop_
  _space_group_symop_operation_xyz
  'x, y, z'

loop_
  _atom_site_type_symbol
  _atom_site_label
  _atom_site_symmetry_multiplicity
  _atom_site_fract_x
  _atom_site_fract_y
  _atom_site_fract_z
  _atom_site_occupancy
  Tl  Tl1       1.0  0.250000013374126  0.2499999777453704  0.24999997460413514  1.0000
  Tl  Tl2       1.0  0.7499999808262979  0.7500000175758195  0.7500000085090753  1.0000
  Sr  Sr1       1.0  0.9999999862217801  0.999999877624739  4.107160574356493e-08  1.0000
  Se  Se1       1.0  0.2991833191706845  0.2991832291675269  0.7008168485125126  1.0000
  Se  Se2       1.0  0.7008167157862577  0.7008168637231318  0.2991833071336539  1.0000
  Se  Se3       1.0  0.7008169545942348  0.2991829104619769  0.2991833683690514  1.0000
  Se  Se4       1.0  0.2991834584400601  0.7008166515846402  0.7008164855885736  1.0000
  Se  Se5       1.0  0.2991830570914825  0.7008171255718743  0.2991832236311834  1.0000
  Se  Se6       1.0  0.7008165126518705  0.29918335263547835  0.7008167532218545  1.0000
