data_image0
_chemical_formula_structural       Tl2ScS6
_chemical_formula_sum              "Tl2 Sc1 S6"
_cell_length_a       6.637996729918768
_cell_length_b       6.637996561743473
_cell_length_c       6.637996687345791
_cell_angle_alpha    59.99999924142234
_cell_angle_beta     60.00000365893174
_cell_angle_gamma    60.00000019197043

_space_group_name_H-M_alt    "P 1"
_space_group_IT_number       1

loop_
  _space_group_symop_operation_xyz
  'x, y, z'

loop_
  _atom_site_type_symbol
  _atom_site_label
  _atom_site_symmetry_multiplicity
  _atom_site_fract_x
  _atom_site_fract_y
  _atom_site_fract_z
  _atom_site_occupancy
  Tl  Tl1       1.0  0.24999997413774436  0.2500000281360709  0.24999993527337713  1.0000
  Tl  Tl2       1.0  0.7499999988833208  0.7500000272115976  0.7500000101033593  1.0000
  Sc  Sc1       1.0  1.9275645050501616e-07  0.9999998653112037  1.0957501936242493e-09  1.0000
  S   S1        1.0  0.2687387961067794  0.2687389171440791  0.7312612047386075  1.0000
  S   S2        1.0  0.7312611023797841  0.7312610330356245  0.2687388319958391  1.0000
  S   S3        1.0  0.731261196646841  0.26873886530224367  0.2687388453771156  1.0000
  S   S4        1.0  0.26873884191572633  0.7312610977928233  0.7312612127827605  1.0000
  S   S5        1.0  0.26873885272527354  0.7312611893848618  0.2687388442911417  1.0000
  S   S6        1.0  0.7312610555622482  0.2687389766659265  0.7312611157627699  1.0000
