data_image0
_chemical_formula_structural       Tl2SnS6
_chemical_formula_sum              "Tl2 Sn1 S6"
_cell_length_a       6.776614580846353
_cell_length_b       6.776614520223168
_cell_length_c       6.776614366935085
_cell_angle_alpha    60.00000018975939
_cell_angle_beta     60.00000113618382
_cell_angle_gamma    60.00000132379714

_space_group_name_H-M_alt    "P 1"
_space_group_IT_number       1

loop_
  _space_group_symop_operation_xyz
  'x, y, z'

loop_
  _atom_site_type_symbol
  _atom_site_label
  _atom_site_symmetry_multiplicity
  _atom_site_fract_x
  _atom_site_fract_y
  _atom_site_fract_z
  _atom_site_occupancy
  Tl  Tl1       1.0  0.24999998696133524  0.2500000195154573  0.2499999850388305  1.0000
  Tl  Tl2       1.0  0.7499999793528264  0.7500000133636019  0.7499999832300979  1.0000
  Sn  Sn1       1.0  0.9999999379373472  0.9999998590297563  7.200318610644631e-08  1.0000
  S   S1        1.0  0.2625767975689247  0.2625767054934085  0.7374233025948667  1.0000
  S   S2        1.0  0.7374234712536792  0.7374234882363165  0.2625764546537909  1.0000
  S   S3        1.0  0.7374233771070839  0.2625765923817124  0.2625767203987863  1.0000
  S   S4        1.0  0.26257654475088393  0.7374233591683588  0.7374234657073624  1.0000
  S   S5        1.0  0.2625765582967645  0.7374233478813704  0.2625766847905393  1.0000
  S   S6        1.0  0.7374233258676025  0.2625766145125663  0.7374233553688583  1.0000
