data_image0
_chemical_formula_structural       Tl2SeO6
_chemical_formula_sum              "Tl2 Se1 O6"
_cell_length_a       5.2243504920720785
_cell_length_b       5.224352853883031
_cell_length_c       5.224351703129036
_cell_angle_alpha    60.00000539977358
_cell_angle_beta     60.00000358268606
_cell_angle_gamma    59.99999168478866

_space_group_name_H-M_alt    "P 1"
_space_group_IT_number       1

loop_
  _space_group_symop_operation_xyz
  'x, y, z'

loop_
  _atom_site_type_symbol
  _atom_site_label
  _atom_site_symmetry_multiplicity
  _atom_site_fract_x
  _atom_site_fract_y
  _atom_site_fract_z
  _atom_site_occupancy
  Tl  Tl1       1.0  0.24999968547175766  0.2500002692288629  0.25000026590819036  1.0000
  Tl  Tl2       1.0  0.7500000017802828  0.7500000668877598  0.7500000159314234  1.0000
  Se  Se1       1.0  7.276393475650765e-07  9.79917127932362e-07  0.9999982044781681  1.0000
  O   O1        1.0  0.24809689521365752  0.24809636870341528  0.7519038175900694  1.0000
  O   O2        1.0  0.7519031160573701  0.7519034727658973  0.24809699172386523  1.0000
  O   O3        1.0  0.7519030083245358  0.24809652192655343  0.2480970912152616  1.0000
  O   O4        1.0  0.24809663663878384  0.7519027475337747  0.751903649391217  1.0000
  O   O5        1.0  0.24809600120972175  0.7519026789229809  0.24809715233858642  1.0000
  O   O6        1.0  0.7519034434962323  0.24809642878075236  0.7519032524643223  1.0000
