data_image0
_chemical_formula_structural       Tl2SbTe6
_chemical_formula_sum              "Tl2 Sb1 Te6"
_cell_length_a       7.630531411210149
_cell_length_b       7.630531346898136
_cell_length_c       7.630531475703622
_cell_angle_alpha    59.99999959909753
_cell_angle_beta     59.999999146697846
_cell_angle_gamma    60.00000122120095

_space_group_name_H-M_alt    "P 1"
_space_group_IT_number       1

loop_
  _space_group_symop_operation_xyz
  'x, y, z'

loop_
  _atom_site_type_symbol
  _atom_site_label
  _atom_site_symmetry_multiplicity
  _atom_site_fract_x
  _atom_site_fract_y
  _atom_site_fract_z
  _atom_site_occupancy
  Tl  Tl1       1.0  0.2500000083574627  0.25000000490497787  0.24999997713761607  1.0000
  Tl  Tl2       1.0  0.7499999997901311  0.75000001792505  0.749999993559382  1.0000
  Sb  Sb1       1.0  0.9999998860305079  5.136186743852726e-08  0.9999999723302012  1.0000
  Te  Te1       1.0  0.27551698867106317  0.27551699201170404  0.724482975281367  1.0000
  Te  Te2       1.0  0.7244830731121187  0.7244831014408959  0.2755168939708098  1.0000
  Te  Te3       1.0  0.7244829760348298  0.27551700139826824  0.2755169850847278  1.0000
  Te  Te4       1.0  0.2755169156517635  0.7244830711885691  0.7244830491064347  1.0000
  Te  Te5       1.0  0.2755170090866546  0.7244829394039485  0.27551703480011225  1.0000
  Te  Te6       1.0  0.7244831336235044  0.2755168250116748  0.724483123633176  1.0000
