data_image0
_chemical_formula_structural       Tl2SbTe6
_chemical_formula_sum              "Tl2 Sb1 Te6"
_cell_length_a       7.630389056043035
_cell_length_b       7.630388847588763
_cell_length_c       7.63038862774077
_cell_angle_alpha    59.99999942515462
_cell_angle_beta     60.00000370065135
_cell_angle_gamma    60.00000348776263

_space_group_name_H-M_alt    "P 1"
_space_group_IT_number       1

loop_
  _space_group_symop_operation_xyz
  'x, y, z'

loop_
  _atom_site_type_symbol
  _atom_site_label
  _atom_site_symmetry_multiplicity
  _atom_site_fract_x
  _atom_site_fract_y
  _atom_site_fract_z
  _atom_site_occupancy
  Tl  Tl1       1.0  0.24999997836781787  0.24999996119911813  0.24999997526309334  1.0000
  Tl  Tl2       1.0  0.7500000243089271  0.7500000200298664  0.7500000881856268  1.0000
  Sb  Sb1       1.0  8.220824278727225e-08  0.9999999213506645  2.6950424060873283e-07  1.0000
  Te  Te1       1.0  0.2755143168205243  0.27551425413628033  0.7244857561024844  1.0000
  Te  Te2       1.0  0.7244859202643473  0.7244856821502386  0.2755142008184657  1.0000
  Te  Te3       1.0  0.7244857432635805  0.2755142025245394  0.2755143267635248  1.0000
  Te  Te4       1.0  0.27551434912756273  0.7244856502973743  0.72448581500625  1.0000
  Te  Te5       1.0  0.27551409888719275  0.7244859083858729  0.27551399363828416  1.0000
  Te  Te6       1.0  0.7244854711505416  0.27551440830658513  0.72448559286795  1.0000
