data_image0
_chemical_formula_structural       Tl2SbS6
_chemical_formula_sum              "Tl2 Sb1 S6"
_cell_length_a       6.816896962748992
_cell_length_b       6.816896700648727
_cell_length_c       6.8168966090450605
_cell_angle_alpha    59.99999915762594
_cell_angle_beta     59.99999814280539
_cell_angle_gamma    59.99999994497322

_space_group_name_H-M_alt    "P 1"
_space_group_IT_number       1

loop_
  _space_group_symop_operation_xyz
  'x, y, z'

loop_
  _atom_site_type_symbol
  _atom_site_label
  _atom_site_symmetry_multiplicity
  _atom_site_fract_x
  _atom_site_fract_y
  _atom_site_fract_z
  _atom_site_occupancy
  Tl  Tl1       1.0  0.2500000010125509  0.2499999470605292  0.250000045455641  1.0000
  Tl  Tl2       1.0  0.7499999854118333  0.7499999956918644  0.7499999637717272  1.0000
  Sb  Sb1       1.0  0.9999999709486705  0.9999999245414921  1.5347399972741846e-07  1.0000
  S   S1        1.0  0.25481124468008104  0.254811136100876  0.7451888590673491  1.0000
  S   S2        1.0  0.7451889047647606  0.7451889629584278  0.2548111166534429  1.0000
  S   S3        1.0  0.7451889239249676  0.2548110466401815  0.25481107479497844  1.0000
  S   S4        1.0  0.2548111690436161  0.7451888458065421  0.7451888461684519  1.0000
  S   S5        1.0  0.2548110374279766  0.7451889074239805  0.25481119147742515  1.0000
  S   S6        1.0  0.7451887724012307  0.25481126529719467  0.7451887382531887  1.0000
