data_image0
_chemical_formula_structural       Tl2ScSe6
_chemical_formula_sum              "Tl2 Sc1 Se6"
_cell_length_a       6.950959943555743
_cell_length_b       6.950959375808769
_cell_length_c       6.9509598800323475
_cell_angle_alpha    59.99999620043296
_cell_angle_beta     59.99999548085128
_cell_angle_gamma    60.0000033412764

_space_group_name_H-M_alt    "P 1"
_space_group_IT_number       1

loop_
  _space_group_symop_operation_xyz
  'x, y, z'

loop_
  _atom_site_type_symbol
  _atom_site_label
  _atom_site_symmetry_multiplicity
  _atom_site_fract_x
  _atom_site_fract_y
  _atom_site_fract_z
  _atom_site_occupancy
  Tl  Tl1       1.0  0.24999998453441158  0.2499999862254341  0.25000002156561946  1.0000
  Tl  Tl2       1.0  0.7500000382069015  0.749999993915902  0.7499999457905623  1.0000
  Sc  Sc1       1.0  0.9999999016171135  1.3567242601332643e-07  5.266036679058442e-07  1.0000
  Se  Se1       1.0  0.2776959626636862  0.27769597867934515  0.7223038767179562  1.0000
  Se  Se2       1.0  0.722304149164044  0.7223038886953004  0.277695885242176  1.0000
  Se  Se3       1.0  0.7223038777258037  0.27769611913521347  0.277695975928526  1.0000
  Se  Se4       1.0  0.2776958118290187  0.7223041429228386  0.7223039552005924  1.0000
  Se  Se5       1.0  0.27769607841655236  0.7223038863915144  0.2776959128166931  1.0000
  Se  Se6       1.0  0.7223041985274606  0.2776958594065494  0.7223039136925975  1.0000
