data_image0
_chemical_formula_structural       Tl2SO6
_chemical_formula_sum              "Tl2 S1 O6"
_cell_length_a       5.173285605753687
_cell_length_b       5.173284590368787
_cell_length_c       5.173286278217631
_cell_angle_alpha    59.999999295158325
_cell_angle_beta     59.99999215912457
_cell_angle_gamma    60.000003321305826

_space_group_name_H-M_alt    "P 1"
_space_group_IT_number       1

loop_
  _space_group_symop_operation_xyz
  'x, y, z'

loop_
  _atom_site_type_symbol
  _atom_site_label
  _atom_site_symmetry_multiplicity
  _atom_site_fract_x
  _atom_site_fract_y
  _atom_site_fract_z
  _atom_site_occupancy
  Tl  Tl1       1.0  0.24999963798874195  0.2500001501676271  0.25000011653068277  1.0000
  Tl  Tl2       1.0  0.7499999161158963  0.7500000622425668  0.7500000213842337  1.0000
  S   S1        1.0  1.8192879244934453e-08  9.943251613869477e-08  0.999999718891473  1.0000
  O   O1        1.0  0.2217909120231225  0.22179033251939045  0.778209414176178  1.0000
  O   O2        1.0  0.7782096355545436  0.7782092832956381  0.22179051756770618  1.0000
  O   O3        1.0  0.7782092412700431  0.22179058561827716  0.22179078378881684  1.0000
  O   O4        1.0  0.2217906836248225  0.7782096125873411  0.7782094793154046  1.0000
  O   O5        1.0  0.22179082775158723  0.7782093000322529  0.22179068678572922  1.0000
  O   O6        1.0  0.7782094832950175  0.22179042941995955  0.7782094165865232  1.0000
