data_image0
_chemical_formula_structural       Tl2SnSe6
_chemical_formula_sum              "Tl2 Sn1 Se6"
_cell_length_a       6.892141930637939
_cell_length_b       6.892141862074425
_cell_length_c       6.8921416771969435
_cell_angle_alpha    60.00000006229785
_cell_angle_beta     60.000000530465094
_cell_angle_gamma    59.99999925947366

_space_group_name_H-M_alt    "P 1"
_space_group_IT_number       1

loop_
  _space_group_symop_operation_xyz
  'x, y, z'

loop_
  _atom_site_type_symbol
  _atom_site_label
  _atom_site_symmetry_multiplicity
  _atom_site_fract_x
  _atom_site_fract_y
  _atom_site_fract_z
  _atom_site_occupancy
  Tl  Tl1       1.0  0.2499999930638016  0.25000000512925624  0.2500000127612469  1.0000
  Tl  Tl2       1.0  0.7499999908349221  0.7499999905095399  0.7500000289408909  1.0000
  Sn  Sn1       1.0  0.9999999926219215  0.9999999768987884  0.9999998832052149  1.0000
  Se  Se1       1.0  0.29149638929943406  0.29149638428188845  0.708503600130829  1.0000
  Se  Se2       1.0  0.7085036350785929  0.7085036557823167  0.2914962990049335  1.0000
  Se  Se3       1.0  0.7085034794831272  0.29149655832811444  0.2914964705247937  1.0000
  Se  Se4       1.0  0.2914964054980112  0.7085035581477935  0.7085036298621151  1.0000
  Se  Se5       1.0  0.2914965907373703  0.7085034081437106  0.2914965243738031  1.0000
  Se  Se6       1.0  0.7085035148403888  0.29149647376603793  0.708503548175608  1.0000
