data_image0
_chemical_formula_structural       Tl2SeS6
_chemical_formula_sum              "Tl2 Se1 S6"
_cell_length_a       6.765831294786162
_cell_length_b       6.765831188353368
_cell_length_c       6.765831375044667
_cell_angle_alpha    60.0000010632975
_cell_angle_beta     60.00000212539332
_cell_angle_gamma    60.00000380829404

_space_group_name_H-M_alt    "P 1"
_space_group_IT_number       1

loop_
  _space_group_symop_operation_xyz
  'x, y, z'

loop_
  _atom_site_type_symbol
  _atom_site_label
  _atom_site_symmetry_multiplicity
  _atom_site_fract_x
  _atom_site_fract_y
  _atom_site_fract_z
  _atom_site_occupancy
  Tl  Tl1       1.0  0.250000001145541  0.249999996465403  0.2500000056172924  1.0000
  Tl  Tl2       1.0  0.7500000107631517  0.7499999930165917  0.7499999965982719  1.0000
  Se  Se1       1.0  0.999999990502462  0.9999999312127339  1.9581198678530988e-07  1.0000
  S   S1        1.0  0.2355991302375462  0.23559920141835086  0.7644007852633928  1.0000
  S   S2        1.0  0.7644007419641781  0.764400894864922  0.2355991609822825  1.0000
  S   S3        1.0  0.7644006628541157  0.23559938543726075  0.23559922986069426  1.0000
  S   S4        1.0  0.23559918059160428  0.7644007868740438  0.7644006883149229  1.0000
  S   S5        1.0  0.23559940374518215  0.7644006352440106  0.23559926338516127  1.0000
  S   S6        1.0  0.7644008774054593  0.23559919675135368  0.7644006460023725  1.0000
