data_image0
_chemical_formula_structural       Tl2SrTe6
_chemical_formula_sum              "Tl2 Sr1 Te6"
_cell_length_a       8.008456207377789
_cell_length_b       8.008456122638764
_cell_length_c       8.008456091881813
_cell_angle_alpha    60.00000004742443
_cell_angle_beta     59.999999643994286
_cell_angle_gamma    60.000001691464014

_space_group_name_H-M_alt    "P 1"
_space_group_IT_number       1

loop_
  _space_group_symop_operation_xyz
  'x, y, z'

loop_
  _atom_site_type_symbol
  _atom_site_label
  _atom_site_symmetry_multiplicity
  _atom_site_fract_x
  _atom_site_fract_y
  _atom_site_fract_z
  _atom_site_occupancy
  Tl  Tl1       1.0  0.2500000063372007  0.2499999848184321  0.2499999932151711  1.0000
  Tl  Tl2       1.0  0.7500000048104569  0.7500000186865082  0.7500000258052479  1.0000
  Sr  Sr1       1.0  1.2219509763320051e-08  0.9999999892947984  2.4216448497599868e-08  1.0000
  Te  Te1       1.0  0.2910805336962851  0.2910805403237835  0.708919475731366  1.0000
  Te  Te2       1.0  0.7089194519928098  0.7089194876501893  0.2910805063234141  1.0000
  Te  Te3       1.0  0.7089194704981076  0.29108053815918766  0.29108056478068334  1.0000
  Te  Te4       1.0  0.2910805401547848  0.7089194408767193  0.7089194155257496  1.0000
  Te  Te5       1.0  0.29108052495364406  0.7089194797006884  0.29108055167990954  1.0000
  Te  Te6       1.0  0.708919459483531  0.2910805130990491  0.7089194398471873  1.0000
