data_image0
_chemical_formula_structural       Tl2ScTe6
_chemical_formula_sum              "Tl2 Sc1 Te6"
_cell_length_a       7.55029323532187
_cell_length_b       7.5502933831637655
_cell_length_c       7.550293045325204
_cell_angle_alpha    60.00000029770448
_cell_angle_beta     60.00000288919428
_cell_angle_gamma    59.999999695114596

_space_group_name_H-M_alt    "P 1"
_space_group_IT_number       1

loop_
  _space_group_symop_operation_xyz
  'x, y, z'

loop_
  _atom_site_type_symbol
  _atom_site_label
  _atom_site_symmetry_multiplicity
  _atom_site_fract_x
  _atom_site_fract_y
  _atom_site_fract_z
  _atom_site_occupancy
  Tl  Tl1       1.0  0.24999997877333505  0.24999996165416238  0.25000010393037664  1.0000
  Tl  Tl2       1.0  0.7499999875437369  0.7499999790451984  0.7499999239183552  1.0000
  Sc  Sc1       1.0  0.9999999362313277  0.999999975668285  0.9999991805075514  1.0000
  Te  Te1       1.0  0.2719201601546527  0.27192010020412744  0.7280799013744677  1.0000
  Te  Te2       1.0  0.7280798582370144  0.7280798632048484  0.2719202162295426  1.0000
  Te  Te3       1.0  0.7280796146792221  0.2719200904123389  0.2719202255378743  1.0000
  Te  Te4       1.0  0.2719199724129741  0.7280803823409381  0.7280801417742246  1.0000
  Te  Te5       1.0  0.27192039284603836  0.7280798680575077  0.27191984772663264  1.0000
  Te  Te6       1.0  0.7280800909199941  0.2719197774167966  0.7280804557501139  1.0000
