data_image0
_chemical_formula_structural       Tl2SbS6
_chemical_formula_sum              "Tl2 Sb1 S6"
_cell_length_a       6.8162193620913465
_cell_length_b       6.816219435410868
_cell_length_c       6.816219510996562
_cell_angle_alpha    60.00000015292052
_cell_angle_beta     59.99999924226821
_cell_angle_gamma    59.999999937836016

_space_group_name_H-M_alt    "P 1"
_space_group_IT_number       1

loop_
  _space_group_symop_operation_xyz
  'x, y, z'

loop_
  _atom_site_type_symbol
  _atom_site_label
  _atom_site_symmetry_multiplicity
  _atom_site_fract_x
  _atom_site_fract_y
  _atom_site_fract_z
  _atom_site_occupancy
  Tl  Tl1       1.0  0.2500000064965731  0.2499999700268365  0.2500000059790033  1.0000
  Tl  Tl2       1.0  0.7499999849392914  0.7500000340603736  0.7500000010969816  1.0000
  Sb  Sb1       1.0  3.322913885147745e-08  9.343410001853311e-08  0.9999998867873583  1.0000
  S   S1        1.0  0.2547768049937117  0.25477682375384175  0.7452231790777815  1.0000
  S   S2        1.0  0.7452231343376976  0.7452231587716529  0.2547768516274883  1.0000
  S   S3        1.0  0.7452230922900708  0.25477688410707755  0.2547768565281369  1.0000
  S   S4        1.0  0.25477690951560666  0.7452231091992745  0.7452231052736144  1.0000
  S   S5        1.0  0.2547769057121273  0.7452230703083798  0.25477691745650144  1.0000
  S   S6        1.0  0.7452231189558998  0.25477684932877837  0.7452231783132504  1.0000
