data_image0
_chemical_formula_structural       Tl2SbO6
_chemical_formula_sum              "Tl2 Sb1 O6"
_cell_length_a       5.354454181746409
_cell_length_b       5.354454216590149
_cell_length_c       5.354456513230527
_cell_angle_alpha    59.99999052530968
_cell_angle_beta     59.99998443192425
_cell_angle_gamma    59.99999970679883

_space_group_name_H-M_alt    "P 1"
_space_group_IT_number       1

loop_
  _space_group_symop_operation_xyz
  'x, y, z'

loop_
  _atom_site_type_symbol
  _atom_site_label
  _atom_site_symmetry_multiplicity
  _atom_site_fract_x
  _atom_site_fract_y
  _atom_site_fract_z
  _atom_site_occupancy
  Tl  Tl1       1.0  0.24999976904517965  0.25000052119501204  0.2499997034725324  1.0000
  Tl  Tl2       1.0  0.7499999409936112  0.7499994226362335  0.750000131030135  1.0000
  Sb  Sb1       1.0  4.123938852000832e-08  0.9999997598294874  6.223944429267666e-07  1.0000
  O   O1        1.0  0.2602104445232168  0.2602105576545428  0.7397897181952113  1.0000
  O   O2        1.0  0.739789732479551  0.7397893633033789  0.2602103238108554  1.0000
  O   O3        1.0  0.7397898286998166  0.2602104808251748  0.2602104351874346  1.0000
  O   O4        1.0  0.2602112033667333  0.7397886670124024  0.7397897880916565  1.0000
  O   O5        1.0  0.2602103813614037  0.73978955192279  0.26021026548914716  1.0000
  O   O6        1.0  0.7397889274364872  0.2602114921182535  0.7397891261489553  1.0000
