data_image0
_chemical_formula_structural       Tl2SbSe6
_chemical_formula_sum              "Tl2 Sb1 Se6"
_cell_length_a       6.8713498991093065
_cell_length_b       6.871349652079197
_cell_length_c       6.871350035675524
_cell_angle_alpha    60.00000085958665
_cell_angle_beta     59.99999816360025
_cell_angle_gamma    60.00000262384404

_space_group_name_H-M_alt    "P 1"
_space_group_IT_number       1

loop_
  _space_group_symop_operation_xyz
  'x, y, z'

loop_
  _atom_site_type_symbol
  _atom_site_label
  _atom_site_symmetry_multiplicity
  _atom_site_fract_x
  _atom_site_fract_y
  _atom_site_fract_z
  _atom_site_occupancy
  Tl  Tl1       1.0  0.249999983538107  0.2499999993643788  0.24999999719595226  1.0000
  Tl  Tl2       1.0  0.7499999905375327  0.7500000194818602  0.749999995859523  1.0000
  Sb  Sb1       1.0  7.271685004052726e-08  6.416616911445656e-08  1.8877576402798004e-08  1.0000
  Se  Se1       1.0  0.29307753763149896  0.29307763721537433  0.7069224456952133  1.0000
  Se  Se2       1.0  0.706921878250209  0.7069220144578005  0.2930780609798909  1.0000
  Se  Se3       1.0  0.7069223779602174  0.29307784409222815  0.2930776116360043  1.0000
  Se  Se4       1.0  0.2930779533391328  0.7069222121842775  0.7069219585181767  1.0000
  Se  Se5       1.0  0.29307787403501856  0.7069223741012338  0.2930777373583257  1.0000
  Se  Se6       1.0  0.7069223267973307  0.2930778265491481  0.7069221911272618  1.0000
