data_image0
_chemical_formula_structural       Tl2SrO6
_chemical_formula_sum              "Tl2 Sr1 O6"
_cell_length_a       5.811007882192705
_cell_length_b       5.811007990785262
_cell_length_c       5.811007843327682
_cell_angle_alpha    59.99999996702473
_cell_angle_beta     59.99999990264557
_cell_angle_gamma    59.99999900674446

_space_group_name_H-M_alt    "P 1"
_space_group_IT_number       1

loop_
  _space_group_symop_operation_xyz
  'x, y, z'

loop_
  _atom_site_type_symbol
  _atom_site_label
  _atom_site_symmetry_multiplicity
  _atom_site_fract_x
  _atom_site_fract_y
  _atom_site_fract_z
  _atom_site_occupancy
  Tl  Tl1       1.0  0.24999994968631675  0.24999999293631456  0.2500000468025967  1.0000
  Tl  Tl2       1.0  0.7499999900012415  0.7500000209615212  0.7500000127220454  1.0000
  Sr  Sr1       1.0  1.7522213067039172e-08  1.896866032750581e-08  0.9999999920797944  1.0000
  O   O1        1.0  0.29817904878709905  0.298179026579555  0.701820964222758  1.0000
  O   O2        1.0  0.7018209310245861  0.7018209325199277  0.29817904412935375  1.0000
  O   O3        1.0  0.701821001627753  0.29817905624503627  0.29817901053642365  1.0000
  O   O4        1.0  0.29817903470407386  0.7018209955901201  0.7018208939329577  1.0000
  O   O5        1.0  0.2981790320417897  0.701820971696877  0.29817903935586615  1.0000
  O   O6        1.0  0.7018209961626392  0.2981789852949757  0.7018209716667668  1.0000
