data_image0
_chemical_formula_structural       Tl2TiO6
_chemical_formula_sum              "Tl2 Ti1 O6"
_cell_length_a       5.257727698339607
_cell_length_b       5.25772706730991
_cell_length_c       5.257726095957378
_cell_angle_alpha    59.9999934835036
_cell_angle_beta     60.0000059821161
_cell_angle_gamma    59.99999176896209

_space_group_name_H-M_alt    "P 1"
_space_group_IT_number       1

loop_
  _space_group_symop_operation_xyz
  'x, y, z'

loop_
  _atom_site_type_symbol
  _atom_site_label
  _atom_site_symmetry_multiplicity
  _atom_site_fract_x
  _atom_site_fract_y
  _atom_site_fract_z
  _atom_site_occupancy
  Tl  Tl1       1.0  0.2500000214598675  0.24999975626164722  0.25000013507633273  1.0000
  Tl  Tl2       1.0  0.7500002440869834  0.749999480762086  0.7500001276023047  1.0000
  Ti  Ti1       1.0  0.9999996054570921  2.282830683383275e-07  2.828360152659733e-07  1.0000
  O   O1        1.0  0.25742086073219034  0.25742122614373536  0.7425791777495362  1.0000
  O   O2        1.0  0.7425789804456954  0.7425788820827521  0.2574210536103902  1.0000
  O   O3        1.0  0.7425790525041845  0.2574209649839763  0.25742052575906627  1.0000
  O   O4        1.0  0.2574211111189183  0.7425789335949161  0.7425785327498338  1.0000
  O   O5        1.0  0.25742068049791883  0.7425793565910908  0.25742108190490554  1.0000
  O   O6        1.0  0.7425792757839913  0.25742120354265563  0.7425792539497651  1.0000
