data_image0
_chemical_formula_structural       Tl2TaO6
_chemical_formula_sum              "Tl2 Ta1 O6"
_cell_length_a       5.372784378317781
_cell_length_b       5.372786537591627
_cell_length_c       5.372786393317683
_cell_angle_alpha    60.00001394655687
_cell_angle_beta     60.000010519729145
_cell_angle_gamma    60.00000797164578

_space_group_name_H-M_alt    "P 1"
_space_group_IT_number       1

loop_
  _space_group_symop_operation_xyz
  'x, y, z'

loop_
  _atom_site_type_symbol
  _atom_site_label
  _atom_site_symmetry_multiplicity
  _atom_site_fract_x
  _atom_site_fract_y
  _atom_site_fract_z
  _atom_site_occupancy
  Tl  Tl1       1.0  0.2499992722548287  0.2499993867761625  0.25000078190209  1.0000
  Tl  Tl2       1.0  0.7499988929697639  0.7500010439381054  0.7499985008451956  1.0000
  Ta  Ta1       1.0  0.9999998862425487  1.4953739502782023e-06  0.999999199379212  1.0000
  O   O1        1.0  0.25930488155376924  0.25930376333023314  0.7406960750352117  1.0000
  O   O2        1.0  0.7406947239561381  0.7406943194646171  0.2593063230903804  1.0000
  O   O3        1.0  0.7406942013919121  0.2593053676571829  0.2593054173496042  1.0000
  O   O4        1.0  0.2593073665063565  0.7406949969504353  0.740693924337708  1.0000
  O   O5        1.0  0.25930559490169713  0.7406949104046162  0.2593051124735813  1.0000
  O   O6        1.0  0.7406950625809071  0.2593051099934913  0.7406942869892467  1.0000
