data_image0
_chemical_formula_structural       Tl2TaTe6
_chemical_formula_sum              "Tl2 Ta1 Te6"
_cell_length_a       7.443077398442823
_cell_length_b       7.443077506050235
_cell_length_c       7.443077202653557
_cell_angle_alpha    60.000001853752885
_cell_angle_beta     59.99999994195506
_cell_angle_gamma    60.00000086765264

_space_group_name_H-M_alt    "P 1"
_space_group_IT_number       1

loop_
  _space_group_symop_operation_xyz
  'x, y, z'

loop_
  _atom_site_type_symbol
  _atom_site_label
  _atom_site_symmetry_multiplicity
  _atom_site_fract_x
  _atom_site_fract_y
  _atom_site_fract_z
  _atom_site_occupancy
  Tl  Tl1       1.0  0.24999999219759805  0.25000001253013027  0.25000000068954614  1.0000
  Tl  Tl2       1.0  0.7500000044557329  0.7499999865804551  0.7499999666185748  1.0000
  Ta  Ta1       1.0  0.9999998871878542  3.1264154547077554e-08  7.301872455664522e-08  1.0000
  Te  Te1       1.0  0.2638476811505847  0.2638475312030259  0.7361523496305329  1.0000
  Te  Te2       1.0  0.7361523722610268  0.7361524744894862  0.2638475712286503  1.0000
  Te  Te3       1.0  0.7361523756886761  0.2638476278506722  0.26384764944602745  1.0000
  Te  Te4       1.0  0.26384767300699435  0.7361523268319052  0.736152373170262  1.0000
  Te  Te5       1.0  0.26384768884565474  0.736152287914497  0.2638476733267263  1.0000
  Te  Te6       1.0  0.7361523469523353  0.26384771942349755  0.7361523226930433  1.0000
