data_image0
_chemical_formula_structural       Tl2TaSe6
_chemical_formula_sum              "Tl2 Ta1 Se6"
_cell_length_a       6.856208235795965
_cell_length_b       6.856208455061022
_cell_length_c       6.856208382888385
_cell_angle_alpha    60.00000099897289
_cell_angle_beta     59.99999725461766
_cell_angle_gamma    60.00000472816048

_space_group_name_H-M_alt    "P 1"
_space_group_IT_number       1

loop_
  _space_group_symop_operation_xyz
  'x, y, z'

loop_
  _atom_site_type_symbol
  _atom_site_label
  _atom_site_symmetry_multiplicity
  _atom_site_fract_x
  _atom_site_fract_y
  _atom_site_fract_z
  _atom_site_occupancy
  Tl  Tl1       1.0  0.25000010512522547  0.2499999123709843  0.2499999971757807  1.0000
  Tl  Tl2       1.0  0.7499999140795091  0.7500000264983332  0.7500000212291654  1.0000
  Ta  Ta1       1.0  0.9999999052108464  0.9999999660597315  0.9999999899795753  1.0000
  Se  Se1       1.0  0.2624968420685123  0.26249692536748925  0.737503105820594  1.0000
  Se  Se2       1.0  0.7375031705833539  0.7375032099980865  0.26249679865174086  1.0000
  Se  Se3       1.0  0.7375031925303667  0.2624970263457031  0.2624968100118192  1.0000
  Se  Se4       1.0  0.2624968188459775  0.7375030875839171  0.7375031014406578  1.0000
  Se  Se5       1.0  0.26249682640205096  0.7375029375194495  0.26249711130848774  1.0000
  Se  Se6       1.0  0.7375031902516375  0.26249695847795823  0.7375030216954582  1.0000
