data_image0
_chemical_formula_structural       Tl2TaS6
_chemical_formula_sum              "Tl2 Ta1 S6"
_cell_length_a       6.492867589545705
_cell_length_b       6.492866507033565
_cell_length_c       6.4928675669507605
_cell_angle_alpha    59.99999596105192
_cell_angle_beta     60.00000459495228
_cell_angle_gamma    59.99999011114277

_space_group_name_H-M_alt    "P 1"
_space_group_IT_number       1

loop_
  _space_group_symop_operation_xyz
  'x, y, z'

loop_
  _atom_site_type_symbol
  _atom_site_label
  _atom_site_symmetry_multiplicity
  _atom_site_fract_x
  _atom_site_fract_y
  _atom_site_fract_z
  _atom_site_occupancy
  Tl  Tl1       1.0  0.24999994842365014  0.2500000541889328  0.2500000476979483  1.0000
  Tl  Tl2       1.0  0.7500000084752113  0.7499999663922958  0.750000014804724  1.0000
  Ta  Ta1       1.0  0.9999998439866562  0.9999998811635392  2.6063701917846706e-07  1.0000
  S   S1        1.0  0.261778820571881  0.26177895954706004  0.7382212236158265  1.0000
  S   S2        1.0  0.738221147573894  0.7382209686058014  0.26177895494499775  1.0000
  S   S3        1.0  0.7382210636544544  0.2617791828081487  0.2617787162046741  1.0000
  S   S4        1.0  0.2617789401948713  0.7382212357809401  0.7382208650733826  1.0000
  S   S5        1.0  0.2617790561456675  0.7382210101396767  0.2617788274068205  1.0000
  S   S6        1.0  0.7382211711646517  0.26177885010661306  0.7382210491447189  1.0000
