data_image0
_chemical_formula_structural       Tl2TiS6
_chemical_formula_sum              "Tl2 Ti1 S6"
_cell_length_a       6.541066030544803
_cell_length_b       6.541066301027037
_cell_length_c       6.541066629452262
_cell_angle_alpha    60.00000005099825
_cell_angle_beta     60.00000233922079
_cell_angle_gamma    60.00000578533235

_space_group_name_H-M_alt    "P 1"
_space_group_IT_number       1

loop_
  _space_group_symop_operation_xyz
  'x, y, z'

loop_
  _atom_site_type_symbol
  _atom_site_label
  _atom_site_symmetry_multiplicity
  _atom_site_fract_x
  _atom_site_fract_y
  _atom_site_fract_z
  _atom_site_occupancy
  Tl  Tl1       1.0  0.24999998991870684  0.24999998195002682  0.2500000313062101  1.0000
  Tl  Tl2       1.0  0.7499999914017621  0.7500000450869244  0.7499999325764148  1.0000
  Ti  Ti1       1.0  2.8676429800338105e-08  0.9999997921643494  1.7825016257224323e-07  1.0000
  S   S1        1.0  0.25277061381386  0.2527706574589259  0.7472294849884805  1.0000
  S   S2        1.0  0.7472294189667261  0.747229448218545  0.25277056366648887  1.0000
  S   S3        1.0  0.7472293626804992  0.25277063151546686  0.25277070355631115  1.0000
  S   S4        1.0  0.2527706961361554  0.7472293430944773  0.7472292600221482  1.0000
  S   S5        1.0  0.2527705639508421  0.7472293416560676  0.25277062870103056  1.0000
  S   S6        1.0  0.7472292499129995  0.25277079585207746  0.7472292107940407  1.0000
