data_image0
_chemical_formula_structural       Tl2TiSe6
_chemical_formula_sum              "Tl2 Ti1 Se6"
_cell_length_a       6.860188980041044
_cell_length_b       6.860189091085714
_cell_length_c       6.860189364293601
_cell_angle_alpha    60.000001253704525
_cell_angle_beta     59.99999937712796
_cell_angle_gamma    60.00000113139445

_space_group_name_H-M_alt    "P 1"
_space_group_IT_number       1

loop_
  _space_group_symop_operation_xyz
  'x, y, z'

loop_
  _atom_site_type_symbol
  _atom_site_label
  _atom_site_symmetry_multiplicity
  _atom_site_fract_x
  _atom_site_fract_y
  _atom_site_fract_z
  _atom_site_occupancy
  Tl  Tl1       1.0  0.25000000858597193  0.25000001321772947  0.24999998284773878  1.0000
  Tl  Tl2       1.0  0.7499999908368415  0.7499999878796877  0.750000009382731  1.0000
  Ti  Ti1       1.0  3.563879514502651e-08  0.9999998375383269  1.4504183590508056e-07  1.0000
  Se  Se1       1.0  0.25611853387444977  0.25611843751462626  0.743881423372108  1.0000
  Se  Se2       1.0  0.7438814295391952  0.743881510023991  0.2561183833280024  1.0000
  Se  Se3       1.0  0.7438813917497342  0.256118777984831  0.25611853170858684  1.0000
  Se  Se4       1.0  0.25611859425410216  0.7438814855506775  0.7438813637083592  1.0000
  Se  Se5       1.0  0.2561186718999612  0.7438812950717081  0.25611864532218465  1.0000
  Se  Se6       1.0  0.743881350034463  0.2561186435404527  0.7438815068329351  1.0000
