data_image0
_chemical_formula_structural       Tl2VTe6
_chemical_formula_sum              "Tl2 V1 Te6"
_cell_length_a       7.257699381387859
_cell_length_b       7.257698436601139
_cell_length_c       7.257699971425463
_cell_angle_alpha    60.00000777164009
_cell_angle_beta     60.00000456211463
_cell_angle_gamma    60.0000078648644

_space_group_name_H-M_alt    "P 1"
_space_group_IT_number       1

loop_
  _space_group_symop_operation_xyz
  'x, y, z'

loop_
  _atom_site_type_symbol
  _atom_site_label
  _atom_site_symmetry_multiplicity
  _atom_site_fract_x
  _atom_site_fract_y
  _atom_site_fract_z
  _atom_site_occupancy
  Tl  Tl1       1.0  0.24999983921418953  0.25000000630167785  0.2500000450304696  1.0000
  Tl  Tl2       1.0  0.7500001858959718  0.7499999615297122  0.7499999715706371  1.0000
  V   V1        1.0  0.9999998296470137  2.00813779394858e-07  0.999999647197106  1.0000
  Te  Te1       1.0  0.26337337480089895  0.26337310921854695  0.7366268167769956  1.0000
  Te  Te2       1.0  0.7366266996908546  0.7366270779893797  0.2633735862712331  1.0000
  Te  Te3       1.0  0.7366264063618392  0.2633735571622923  0.26337306315955605  1.0000
  Te  Te4       1.0  0.2633738527578811  0.7366261811675664  0.736626825803449  1.0000
  Te  Te5       1.0  0.263373368667543  0.7366261216605556  0.2633731461404643  1.0000
  Te  Te6       1.0  0.7366264387650558  0.2633738309832172  0.7366269662255138  1.0000
