data_image0
_chemical_formula_structural       Tl2VO6
_chemical_formula_sum              "Tl2 V1 O6"
_cell_length_a       5.290482719185941
_cell_length_b       5.290482454249495
_cell_length_c       5.290481779114376
_cell_angle_alpha    59.999997130154945
_cell_angle_beta     59.9999996023184
_cell_angle_gamma    59.999991939285124

_space_group_name_H-M_alt    "P 1"
_space_group_IT_number       1

loop_
  _space_group_symop_operation_xyz
  'x, y, z'

loop_
  _atom_site_type_symbol
  _atom_site_label
  _atom_site_symmetry_multiplicity
  _atom_site_fract_x
  _atom_site_fract_y
  _atom_site_fract_z
  _atom_site_occupancy
  Tl  Tl1       1.0  0.2499996799738205  0.2500007925003435  0.2500000448017895  1.0000
  Tl  Tl2       1.0  0.7499994114295597  0.7500009028481255  0.7500003344030471  1.0000
  V   V1        1.0  0.999999186214562  1.6621675657264817e-06  1.7136104077481039e-06  1.0000
  O   O1        1.0  0.25129505270213964  0.2512945624925593  0.748704643602347  1.0000
  O   O2        1.0  0.7487055383000543  0.7487046442344525  0.2512945043731224  1.0000
  O   O3        1.0  0.7487052035469305  0.2512945604755897  0.2512948500825749  1.0000
  O   O4        1.0  0.25129477041881654  0.7487046508814338  0.7487049878041067  1.0000
  O   O5        1.0  0.2512957035973145  0.7487043225621508  0.2512942604130384  1.0000
  O   O6        1.0  0.7487053797385793  0.2512940553960191  0.748704870541695  1.0000
