data_image0
_chemical_formula_structural       Tl2VS6
_chemical_formula_sum              "Tl2 V1 S6"
_cell_length_a       6.507400308745902
_cell_length_b       6.507400283847332
_cell_length_c       6.507399007703493
_cell_angle_alpha    60.00000827383803
_cell_angle_beta     60.00000929787568
_cell_angle_gamma    60.00000120431695

_space_group_name_H-M_alt    "P 1"
_space_group_IT_number       1

loop_
  _space_group_symop_operation_xyz
  'x, y, z'

loop_
  _atom_site_type_symbol
  _atom_site_label
  _atom_site_symmetry_multiplicity
  _atom_site_fract_x
  _atom_site_fract_y
  _atom_site_fract_z
  _atom_site_occupancy
  Tl  Tl1       1.0  0.2500000247527958  0.24999990843355693  0.25000004279872484  1.0000
  Tl  Tl2       1.0  0.7499998951964327  0.7499999963201992  0.7500000547565663  1.0000
  V   V1        1.0  0.9999999880680458  0.9999996951030405  1.3229034361188819e-07  1.0000
  S   S1        1.0  0.24465145610376646  0.2446515919677911  0.7553485168544618  1.0000
  S   S2        1.0  0.7553483801543556  0.7553486383858098  0.24465152889851566  1.0000
  S   S3        1.0  0.7553485565841132  0.24465146969873539  0.24465142062975484  1.0000
  S   S4        1.0  0.24465151820588146  0.7553485348052521  0.7553484651108664  1.0000
  S   S5        1.0  0.24465157447481622  0.7553485428158695  0.24465144696088223  1.0000
  S   S6        1.0  0.7553485621869049  0.24465150497595572  0.7553484768659836  1.0000
