data_image0
_chemical_formula_structural       Tl2YS6
_chemical_formula_sum              "Tl2 Y1 S6"
_cell_length_a       6.974865125920547
_cell_length_b       6.9748654224465065
_cell_length_c       6.974865436205813
_cell_angle_alpha    59.99999997275618
_cell_angle_beta     60.00000107131479
_cell_angle_gamma    60.00000452395458

_space_group_name_H-M_alt    "P 1"
_space_group_IT_number       1

loop_
  _space_group_symop_operation_xyz
  'x, y, z'

loop_
  _atom_site_type_symbol
  _atom_site_label
  _atom_site_symmetry_multiplicity
  _atom_site_fract_x
  _atom_site_fract_y
  _atom_site_fract_z
  _atom_site_occupancy
  Tl  Tl1       1.0  0.24999999252749197  0.25000004838187184  0.24999997035643687  1.0000
  Tl  Tl2       1.0  0.7500000152606122  0.7499999923787953  0.7500000273961493  1.0000
  Y   Y1        1.0  0.9999998548309365  1.1764800616139881e-07  0.9999999721826629  1.0000
  S   S1        1.0  0.2809705807207723  0.28097047504756684  0.7190295311878422  1.0000
  S   S2        1.0  0.7190294904820299  0.7190293655358883  0.280970582258743  1.0000
  S   S3        1.0  0.7190296135269044  0.28097042321906135  0.28097048733286767  1.0000
  S   S4        1.0  0.2809705238793357  0.719029447215384  0.7190296469050368  1.0000
  S   S5        1.0  0.2809704374988623  0.71902961805027  0.2809703363025983  1.0000
  S   S6        1.0  0.7190294880470327  0.2809705105074195  0.719029424976315  1.0000
