data_image0
_chemical_formula_structural       Tl2YS6
_chemical_formula_sum              "Tl2 Y1 S6"
_cell_length_a       6.9758323508798465
_cell_length_b       6.975832392141171
_cell_length_c       6.975832619919918
_cell_angle_alpha    59.99999874412262
_cell_angle_beta     59.99999914608395
_cell_angle_gamma    60.0000025645202

_space_group_name_H-M_alt    "P 1"
_space_group_IT_number       1

loop_
  _space_group_symop_operation_xyz
  'x, y, z'

loop_
  _atom_site_type_symbol
  _atom_site_label
  _atom_site_symmetry_multiplicity
  _atom_site_fract_x
  _atom_site_fract_y
  _atom_site_fract_z
  _atom_site_occupancy
  Tl  Tl1       1.0  0.25000002255081194  0.249999980332936  0.2499999818266796  1.0000
  Tl  Tl2       1.0  0.7499999694712215  0.7499999971811113  0.7500000037510305  1.0000
  Y   Y1        1.0  0.9999999310976273  0.9999999385505987  1.4115248049767854e-07  1.0000
  S   S1        1.0  0.28095650937386724  0.2809565521245858  0.7190434439815296  1.0000
  S   S2        1.0  0.7190433861911443  0.7190433621843627  0.280956588456266  1.0000
  S   S3        1.0  0.7190434513029645  0.28095661814520795  0.2809565320709817  1.0000
  S   S4        1.0  0.28095654957778704  0.7190435314271559  0.7190433544470868  1.0000
  S   S5        1.0  0.2809566246402086  0.7190434645261371  0.28095657327351986  1.0000
  S   S6        1.0  0.7190435435938572  0.2809565603917382  0.7190433922415811  1.0000
