data_image0
_chemical_formula_structural       Tl2YO6
_chemical_formula_sum              "Tl2 Y1 O6"
_cell_length_a       5.578374343357857
_cell_length_b       5.57837435873146
_cell_length_c       5.578374363220842
_cell_angle_alpha    59.999998600168986
_cell_angle_beta     59.9999999984976
_cell_angle_gamma    60.00000016382872

_space_group_name_H-M_alt    "P 1"
_space_group_IT_number       1

loop_
  _space_group_symop_operation_xyz
  'x, y, z'

loop_
  _atom_site_type_symbol
  _atom_site_label
  _atom_site_symmetry_multiplicity
  _atom_site_fract_x
  _atom_site_fract_y
  _atom_site_fract_z
  _atom_site_occupancy
  Tl  Tl1       1.0  0.2500000732373299  0.24999990350803225  0.2500000268901996  1.0000
  Tl  Tl2       1.0  0.7500000154711232  0.750000000333122  0.7500000916656249  1.0000
  Y   Y1        1.0  0.9999999672358068  1.7564184440744005e-08  0.9999999305166154  1.0000
  O   O1        1.0  0.28009669161419715  0.28009669287038713  0.7199032991417228  1.0000
  O   O2        1.0  0.7199033038814763  0.7199033229424404  0.28009654651702204  1.0000
  O   O3        1.0  0.7199032609655702  0.2800968058557597  0.2800966997890743  1.0000
  O   O4        1.0  0.28009674531752526  0.7199032955824597  0.7199032751343206  1.0000
  O   O5        1.0  0.2800966934868804  0.7199033377505667  0.2800967520681942  1.0000
  O   O6        1.0  0.7199032359172184  0.28009663415179803  0.7199033637080036  1.0000
