data_image0
_chemical_formula_structural       Tl2YTe6
_chemical_formula_sum              "Tl2 Y1 Te6"
_cell_length_a       7.792214500640981
_cell_length_b       7.7922145093651345
_cell_length_c       7.792214381599327
_cell_angle_alpha    59.999999053875435
_cell_angle_beta     59.999999963607564
_cell_angle_gamma    60.00000072743534

_space_group_name_H-M_alt    "P 1"
_space_group_IT_number       1

loop_
  _space_group_symop_operation_xyz
  'x, y, z'

loop_
  _atom_site_type_symbol
  _atom_site_label
  _atom_site_symmetry_multiplicity
  _atom_site_fract_x
  _atom_site_fract_y
  _atom_site_fract_z
  _atom_site_occupancy
  Tl  Tl1       1.0  0.24999997901729049  0.24999998863466807  0.25000004816875876  1.0000
  Tl  Tl2       1.0  0.7500000139880858  0.7500000240589264  0.7499999588941404  1.0000
  Y   Y1        1.0  2.5312429920580063e-08  0.9999999418450812  1.257124824542163e-08  1.0000
  Te  Te1       1.0  0.27895515558075173  0.27895516813427473  0.7210448144070333  1.0000
  Te  Te2       1.0  0.7210448327093611  0.7210448587051114  0.2789551404573083  1.0000
  Te  Te3       1.0  0.7210448512349436  0.2789551443589297  0.27895515606493  1.0000
  Te  Te4       1.0  0.27895505342610916  0.7210449422071279  0.7210448954505342  1.0000
  Te  Te5       1.0  0.27895514393016846  0.7210448513132489  0.2789551440935944  1.0000
  Te  Te6       1.0  0.7210449399492322  0.278955084364373  0.7210448329402989  1.0000
