data_image0
_chemical_formula_structural       Tl2YSe6
_chemical_formula_sum              "Tl2 Y1 Se6"
_cell_length_a       7.245670292309872
_cell_length_b       7.245669291846816
_cell_length_c       7.2456698517440365
_cell_angle_alpha    59.999998410404224
_cell_angle_beta     59.99999949850241
_cell_angle_gamma    59.999999411303065

_space_group_name_H-M_alt    "P 1"
_space_group_IT_number       1

loop_
  _space_group_symop_operation_xyz
  'x, y, z'

loop_
  _atom_site_type_symbol
  _atom_site_label
  _atom_site_symmetry_multiplicity
  _atom_site_fract_x
  _atom_site_fract_y
  _atom_site_fract_z
  _atom_site_occupancy
  Tl  Tl1       1.0  0.24999998145556546  0.25000006755834003  0.24999995657962706  1.0000
  Tl  Tl2       1.0  0.750000016809895  0.7499999136315  0.7500000525663092  1.0000
  Y   Y1        1.0  1.5133820656230315e-07  0.9999996129183253  4.4724592128517014e-08  1.0000
  Se  Se1       1.0  0.2846578766774358  0.2846581281448587  0.7153420161037712  1.0000
  Se  Se2       1.0  0.7153420161313676  0.7153420068634628  0.2846580213063725  1.0000
  Se  Se3       1.0  0.715342046875137  0.28465809573749473  0.2846578020116509  1.0000
  Se  Se4       1.0  0.28465788500135686  0.7153420798383379  0.7153420962111973  1.0000
  Se  Se5       1.0  0.2846579528834071  0.715341994965473  0.2846579217598911  1.0000
  Se  Se6       1.0  0.7153420739045913  0.28465810623659243  0.7153420779849922  1.0000
