data_image0
_chemical_formula_structural       Tl2YSe6
_chemical_formula_sum              "Tl2 Y1 Se6"
_cell_length_a       7.248821699241832
_cell_length_b       7.248821368985386
_cell_length_c       7.248821924757111
_cell_angle_alpha    59.99999542483629
_cell_angle_beta     60.00000008762153
_cell_angle_gamma    60.00000038556112

_space_group_name_H-M_alt    "P 1"
_space_group_IT_number       1

loop_
  _space_group_symop_operation_xyz
  'x, y, z'

loop_
  _atom_site_type_symbol
  _atom_site_label
  _atom_site_symmetry_multiplicity
  _atom_site_fract_x
  _atom_site_fract_y
  _atom_site_fract_z
  _atom_site_occupancy
  Tl  Tl1       1.0  0.2499999643954521  0.2500000197201835  0.25000000173313014  1.0000
  Tl  Tl2       1.0  0.7500000315659507  0.7499999307526258  0.7500000098703002  1.0000
  Y   Y1        1.0  0.9999999261611392  1.6895775780567412e-09  0.9999999477844324  1.0000
  Se  Se1       1.0  0.284696521255787  0.2846963790826744  0.7153035554675912  1.0000
  Se  Se2       1.0  0.7153035820489884  0.7153033162638592  0.2846964803640531  1.0000
  Se  Se3       1.0  0.7153034608327502  0.284696609441828  0.2846965281117938  1.0000
  Se  Se4       1.0  0.2846963293260505  0.7153037194964424  0.715303674446636  1.0000
  Se  Se5       1.0  0.2846965119070311  0.7153035538608138  0.2846963793831032  1.0000
  Se  Se6       1.0  0.7153036794708298  0.2846964794013281  0.7153034131044305  1.0000
