data_image0
_chemical_formula_structural       Tl2YTe6
_chemical_formula_sum              "Tl2 Y1 Te6"
_cell_length_a       7.792408136068358
_cell_length_b       7.792407872565221
_cell_length_c       7.792408255636667
_cell_angle_alpha    59.99999877320812
_cell_angle_beta     59.99999978996694
_cell_angle_gamma    60.00000036941563

_space_group_name_H-M_alt    "P 1"
_space_group_IT_number       1

loop_
  _space_group_symop_operation_xyz
  'x, y, z'

loop_
  _atom_site_type_symbol
  _atom_site_label
  _atom_site_symmetry_multiplicity
  _atom_site_fract_x
  _atom_site_fract_y
  _atom_site_fract_z
  _atom_site_occupancy
  Tl  Tl1       1.0  0.2499999815854052  0.25000003487998834  0.24999999593066316  1.0000
  Tl  Tl2       1.0  0.7500000139244737  0.7500000260541874  0.7499999629848418  1.0000
  Y   Y1        1.0  3.8406784727748525e-08  5.81534771109531e-08  0.9999999401701665  1.0000
  Te  Te1       1.0  0.2790123572394916  0.27901233970848455  0.7209876612553586  1.0000
  Te  Te2       1.0  0.720987720161301  0.7209876489267761  0.2790123570291632  1.0000
  Te  Te3       1.0  0.7209876748485381  0.2790122619856672  0.2790123587162211  1.0000
  Te  Te4       1.0  0.2790123825874606  0.7209875820517596  0.7209876943675021  1.0000
  Te  Te5       1.0  0.2790122402401033  0.7209876717071014  0.27901235610030034  1.0000
  Te  Te6       1.0  0.7209875880929222  0.279012375081631  0.7209876742268481  1.0000
