data_image0
_chemical_formula_structural       Tl2YO6
_chemical_formula_sum              "Tl2 Y1 O6"
_cell_length_a       5.57718247805502
_cell_length_b       5.5771820704798145
_cell_length_c       5.577181890583269
_cell_angle_alpha    59.999997678997914
_cell_angle_beta     59.999999255374625
_cell_angle_gamma    59.99999545804542

_space_group_name_H-M_alt    "P 1"
_space_group_IT_number       1

loop_
  _space_group_symop_operation_xyz
  'x, y, z'

loop_
  _atom_site_type_symbol
  _atom_site_label
  _atom_site_symmetry_multiplicity
  _atom_site_fract_x
  _atom_site_fract_y
  _atom_site_fract_z
  _atom_site_occupancy
  Tl  Tl1       1.0  0.2500001846943129  0.24999975133840158  0.2500000489176699  1.0000
  Tl  Tl2       1.0  0.7499997548285645  0.7500002356238061  0.7500001954314749  1.0000
  Y   Y1        1.0  0.99999990969528  1.0321164084536018e-07  9.574869338651931e-08  1.0000
  O   O1        1.0  0.28002301375327376  0.2800230329817543  0.7199769442708762  1.0000
  O   O2        1.0  0.7199768506287635  0.7199769495884776  0.28002302248009703  1.0000
  O   O3        1.0  0.7199768982912035  0.2800230123257814  0.28002305219259066  1.0000
  O   O4        1.0  0.28002315491722407  0.7199768758167763  0.7199767920521711  1.0000
  O   O5        1.0  0.2800232853325013  0.7199771184587053  0.2800227976438239  1.0000
  O   O6        1.0  0.7199769331706365  0.2800229321872791  0.719977070968985  1.0000
