data_image0
_chemical_formula_structural       Tl2ZnTe6
_chemical_formula_sum              "Tl2 Zn1 Te6"
_cell_length_a       7.356716694532308
_cell_length_b       7.35671663076762
_cell_length_c       7.35671599021711
_cell_angle_alpha    60.00000299355819
_cell_angle_beta     60.00000384776552
_cell_angle_gamma    60.00000939715756

_space_group_name_H-M_alt    "P 1"
_space_group_IT_number       1

loop_
  _space_group_symop_operation_xyz
  'x, y, z'

loop_
  _atom_site_type_symbol
  _atom_site_label
  _atom_site_symmetry_multiplicity
  _atom_site_fract_x
  _atom_site_fract_y
  _atom_site_fract_z
  _atom_site_occupancy
  Tl  Tl1       1.0  0.24999993605064857  0.2499999923613562  0.2500000162103878  1.0000
  Tl  Tl2       1.0  0.750000048187165  0.7500000103800512  0.7499999500260244  1.0000
  Zn  Zn1       1.0  0.9999997252000313  0.9999997319674793  3.149139124162691e-07  1.0000
  Te  Te1       1.0  0.2711837612225049  0.271183825405627  0.7288161579897026  1.0000
  Te  Te2       1.0  0.728816490000011  0.7288163887651641  0.27118352146409225  1.0000
  Te  Te3       1.0  0.7288160701568825  0.27118396232609493  0.2711834053883339  1.0000
  Te  Te4       1.0  0.27118391284318877  0.7288161053424387  0.7288166295917468  1.0000
  Te  Te5       1.0  0.27118396078139273  0.7288160509935937  0.2711833689226737  1.0000
  Te  Te6       1.0  0.7288160934540124  0.27118393010544367  0.7288166302268192  1.0000
