data_image0
_chemical_formula_structural       Tl2ZnO6
_chemical_formula_sum              "Tl2 Zn1 O6"
_cell_length_a       5.29172731948185
_cell_length_b       5.291727623583588
_cell_length_c       5.291727086413527
_cell_angle_alpha    60.00000162058936
_cell_angle_beta     60.00000137010692
_cell_angle_gamma    59.99999774135632

_space_group_name_H-M_alt    "P 1"
_space_group_IT_number       1

loop_
  _space_group_symop_operation_xyz
  'x, y, z'

loop_
  _atom_site_type_symbol
  _atom_site_label
  _atom_site_symmetry_multiplicity
  _atom_site_fract_x
  _atom_site_fract_y
  _atom_site_fract_z
  _atom_site_occupancy
  Tl  Tl1       1.0  0.24999980589307  0.24999982405086157  0.25000023199842697  1.0000
  Tl  Tl2       1.0  0.7500000004850298  0.7500000345643535  0.7499998569328284  1.0000
  Zn  Zn1       1.0  1.5908789388312215e-07  3.541111197582576e-07  0.9999997811953325  1.0000
  O   O1        1.0  0.26237693468984646  0.2623767545259073  0.7376232015858843  1.0000
  O   O2        1.0  0.7376231798957813  0.737622847185137  0.26237706578585346  1.0000
  O   O3        1.0  0.7376231721721128  0.2623767964187201  0.26237660907909127  1.0000
  O   O4        1.0  0.26237694116899246  0.7376234047353519  0.7376230152603052  1.0000
  O   O5        1.0  0.2623765885473579  0.7376233051602921  0.26237690137696384  1.0000
  O   O6        1.0  0.737623233059924  0.26237663214627976  0.7376233598041165  1.0000
