data_image0
_chemical_formula_structural       Tl2ZnS6
_chemical_formula_sum              "Tl2 Zn1 S6"
_cell_length_a       6.340226802885175
_cell_length_b       6.340226590665841
_cell_length_c       6.340226675393559
_cell_angle_alpha    59.99999303468717
_cell_angle_beta     59.99999821436016
_cell_angle_gamma    59.99999236403643

_space_group_name_H-M_alt    "P 1"
_space_group_IT_number       1

loop_
  _space_group_symop_operation_xyz
  'x, y, z'

loop_
  _atom_site_type_symbol
  _atom_site_label
  _atom_site_symmetry_multiplicity
  _atom_site_fract_x
  _atom_site_fract_y
  _atom_site_fract_z
  _atom_site_occupancy
  Tl  Tl1       1.0  0.24999994508793455  0.2499998225849575  0.2500001878963749  1.0000
  Tl  Tl2       1.0  0.7499999751918697  0.7500001844175678  0.7500001038490925  1.0000
  Zn  Zn1       1.0  0.9999999286661209  0.9999996020686623  7.093790625675595e-07  1.0000
  S   S1        1.0  0.2620612805548479  0.26206137174530236  0.7379386646892246  1.0000
  S   S2        1.0  0.7379390698788867  0.7379389675105467  0.26206103923537305  1.0000
  S   S3        1.0  0.7379387224514271  0.26206133455281416  0.26206117984237753  1.0000
  S   S4        1.0  0.2620615275120303  0.7379384155329156  0.7379385613424675  1.0000
  S   S5        1.0  0.26206128068775403  0.7379386066481012  0.2620612184856968  1.0000
  S   S6        1.0  0.737938279241021  0.26206170556393854  0.7379383311419502  1.0000
