data_image0
_chemical_formula_structural       Tl2ZnSe6
_chemical_formula_sum              "Tl2 Zn1 Se6"
_cell_length_a       6.684335752180043
_cell_length_b       6.684336201605275
_cell_length_c       6.684336082394672
_cell_angle_alpha    59.99999982827563
_cell_angle_beta     60.000000971898984
_cell_angle_gamma    60.000000275022025

_space_group_name_H-M_alt    "P 1"
_space_group_IT_number       1

loop_
  _space_group_symop_operation_xyz
  'x, y, z'

loop_
  _atom_site_type_symbol
  _atom_site_label
  _atom_site_symmetry_multiplicity
  _atom_site_fract_x
  _atom_site_fract_y
  _atom_site_fract_z
  _atom_site_occupancy
  Tl  Tl1       1.0  0.2500000640136534  0.2499999742405254  0.24999995425785018  1.0000
  Tl  Tl2       1.0  0.7499999758613831  0.7499999960120173  0.7500000389405559  1.0000
  Zn  Zn1       1.0  0.9999999794588502  2.0154871136358327e-07  0.9999999887860669  1.0000
  Se  Se1       1.0  0.2859100872767105  0.2859101369484359  0.7140898780501753  1.0000
  Se  Se2       1.0  0.714089659365159  0.7140897801685389  0.2859103556541629  1.0000
  Se  Se3       1.0  0.7140899773101486  0.28591007967275134  0.2859100212509095  1.0000
  Se  Se4       1.0  0.2859101853561673  0.7140898227861348  0.7140898008293385  1.0000
  Se  Se5       1.0  0.2859101231047729  0.714089830699881  0.2859101517041694  1.0000
  Se  Se6       1.0  0.7140899525232399  0.28591016703657657  0.7140898143638963  1.0000
