data_image0
_chemical_formula_structural       V2AsO6
_chemical_formula_sum              "V2 As1 O6"
_cell_length_a       4.996246087573681
_cell_length_b       4.996246308680479
_cell_length_c       4.996246197803076
_cell_angle_alpha    59.99999883910055
_cell_angle_beta     59.99999968059294
_cell_angle_gamma    59.99999937717266

_space_group_name_H-M_alt    "P 1"
_space_group_IT_number       1

loop_
  _space_group_symop_operation_xyz
  'x, y, z'

loop_
  _atom_site_type_symbol
  _atom_site_label
  _atom_site_symmetry_multiplicity
  _atom_site_fract_x
  _atom_site_fract_y
  _atom_site_fract_z
  _atom_site_occupancy
  V   V1        1.0  0.2499999467742665  0.24999989893242222  0.24999995647289933  1.0000
  V   V2        1.0  0.7499999407909114  0.7500001650012973  0.7500001374973514  1.0000
  As  As1       1.0  1.6177953757718788e-08  0.9999999999999999  0.9999999919110233  1.0000
  O   O1        1.0  0.2536457321139463  0.25364560842861805  0.746354375358635  1.0000
  O   O2        1.0  0.746354279063003  0.7463543966731807  0.2536456021585805  1.0000
  O   O3        1.0  0.7463543495605902  0.2536457007744225  0.25364561284618686  1.0000
  O   O4        1.0  0.25364562356473463  0.7463542798140755  0.7463543999564969  1.0000
  O   O5        1.0  0.25364564295436276  0.7463544235345277  0.2536456782462829  1.0000
  O   O6        1.0  0.7463544178539453  0.2536455644079606  0.7463542610183796  1.0000
