data_image0
_chemical_formula_structural       V2AsN6
_chemical_formula_sum              "V2 As1 N6"
_cell_length_a       4.637186335697419
_cell_length_b       4.637189373618387
_cell_length_c       4.637185935452343
_cell_angle_alpha    60.00001940542707
_cell_angle_beta     60.00001886361036
_cell_angle_gamma    60.00001143590343

_space_group_name_H-M_alt    "P 1"
_space_group_IT_number       1

loop_
  _space_group_symop_operation_xyz
  'x, y, z'

loop_
  _atom_site_type_symbol
  _atom_site_label
  _atom_site_symmetry_multiplicity
  _atom_site_fract_x
  _atom_site_fract_y
  _atom_site_fract_z
  _atom_site_occupancy
  V   V1        1.0  0.24999873714563414  0.249999542437485  0.25000123277540515  1.0000
  V   V2        1.0  0.7500003355576519  0.7499997313067203  0.7499997105912294  1.0000
  As  As1       1.0  1.268175539714203e-07  5.2822690027445935e-08  0.9999999446835757  1.0000
  N   N1        1.0  0.2819935313598294  0.28199353757168366  0.718006513439182  1.0000
  N   N2        1.0  0.7180058116621656  0.7180068824253292  0.28199371517224175  1.0000
  N   N3        1.0  0.7180071764257957  0.2819937458687737  0.28199377257255  1.0000
  N   N4        1.0  0.281993704689642  0.7180067586443714  0.7180055865093015  1.0000
  N   N5        1.0  0.28199388096443156  0.7180059889379635  0.28199394017530827  1.0000
  N   N6        1.0  0.7180067720342018  0.2819935938189181  0.7180057889774593  1.0000
