data_image0
_chemical_formula_structural       V2AsS6
_chemical_formula_sum              "V2 As1 S6"
_cell_length_a       6.349885669568825
_cell_length_b       6.349886045077082
_cell_length_c       6.349885909595791
_cell_angle_alpha    59.999996396796924
_cell_angle_beta     59.99999693284524
_cell_angle_gamma    59.999995113204186

_space_group_name_H-M_alt    "P 1"
_space_group_IT_number       1

loop_
  _space_group_symop_operation_xyz
  'x, y, z'

loop_
  _atom_site_type_symbol
  _atom_site_label
  _atom_site_symmetry_multiplicity
  _atom_site_fract_x
  _atom_site_fract_y
  _atom_site_fract_z
  _atom_site_occupancy
  V   V1        1.0  0.2499997383625769  0.2500000739595188  0.2500001460776666  1.0000
  V   V2        1.0  0.7500004625159121  0.7500000965086763  0.7499996236559733  1.0000
  As  As1       1.0  0.9999999780871116  0.9999999729972622  1.1579803808475611e-07  1.0000
  S   S1        1.0  0.25883265215364076  0.2588330175136941  0.7411673091555927  1.0000
  S   S2        1.0  0.7411672467914712  0.7411669022148198  0.25883302825840593  1.0000
  S   S3        1.0  0.7411670307810623  0.25883267646826336  0.2588330404558376  1.0000
  S   S4        1.0  0.25883278211034166  0.7411671468219297  0.7411670401664305  1.0000
  S   S5        1.0  0.2588326932295396  0.7411672326497535  0.25883290315798385  1.0000
  S   S6        1.0  0.7411673462662699  0.25883288188421477  0.7411668949177097  1.0000
