data_image0
_chemical_formula_structural       V2AsS6
_chemical_formula_sum              "V2 As1 S6"
_cell_length_a       6.349599018247147
_cell_length_b       6.3495995204066515
_cell_length_c       6.349598804639959
_cell_angle_alpha    59.99999689116901
_cell_angle_beta     60.00000277834925
_cell_angle_gamma    59.999998438897094

_space_group_name_H-M_alt    "P 1"
_space_group_IT_number       1

loop_
  _space_group_symop_operation_xyz
  'x, y, z'

loop_
  _atom_site_type_symbol
  _atom_site_label
  _atom_site_symmetry_multiplicity
  _atom_site_fract_x
  _atom_site_fract_y
  _atom_site_fract_z
  _atom_site_occupancy
  V   V1        1.0  0.2499996481163105  0.2499999803391028  0.25000016146043097  1.0000
  V   V2        1.0  0.7500004691686795  0.7499998947247513  0.7500001656167273  1.0000
  As  As1       1.0  5.4609764145742357e-08  9.258496760008235e-08  8.86176032417401e-08  1.0000
  S   S1        1.0  0.25882623129557486  0.25882636552045113  0.7411737852380186  1.0000
  S   S2        1.0  0.7411737137763372  0.7411736715671512  0.25882623825287393  1.0000
  S   S3        1.0  0.7411737413588513  0.25882639915802996  0.2588261426336953  1.0000
  S   S4        1.0  0.2588259561897923  0.7411736167122139  0.7411736797732438  1.0000
  S   S5        1.0  0.25882626535462105  0.741173701500577  0.2588263559573995  1.0000
  S   S6        1.0  0.7411739451707136  0.2588262430020537  0.7411733905360549  1.0000
