data_image0
_chemical_formula_structural       V2AsO6
_chemical_formula_sum              "V2 As1 O6"
_cell_length_a       4.9961731266640275
_cell_length_b       4.996173209435877
_cell_length_c       4.996173371641065
_cell_angle_alpha    59.99999877796113
_cell_angle_beta     59.99999946377984
_cell_angle_gamma    60.00000029292949

_space_group_name_H-M_alt    "P 1"
_space_group_IT_number       1

loop_
  _space_group_symop_operation_xyz
  'x, y, z'

loop_
  _atom_site_type_symbol
  _atom_site_label
  _atom_site_symmetry_multiplicity
  _atom_site_fract_x
  _atom_site_fract_y
  _atom_site_fract_z
  _atom_site_occupancy
  V   V1        1.0  0.2500001188482274  0.2499996223112323  0.25000018206676816  1.0000
  V   V2        1.0  0.7499999396681588  0.7500003671696485  0.7499996482479209  1.0000
  As  As1       1.0  0.9999999851997152  0.9999999681322428  1.317170811788368e-09  1.0000
  O   O1        1.0  0.2536456876970901  0.2536456291589312  0.7463543570517509  1.0000
  O   O2        1.0  0.7463542614933296  0.7463543970924365  0.2536457156984547  1.0000
  O   O3        1.0  0.7463543387351737  0.2536455095812057  0.2536458401287306  1.0000
  O   O4        1.0  0.25364566228235735  0.7463544651914779  0.7463542424549212  1.0000
  O   O5        1.0  0.2536456455318692  0.7463543675340716  0.2536456971166324  1.0000
  O   O6        1.0  0.7463543418749801  0.25364563420363717  0.7463543567729976  1.0000
