data_image0
_chemical_formula_structural       V2AsSe6
_chemical_formula_sum              "V2 As1 Se6"
_cell_length_a       6.277432977158862
_cell_length_b       6.277432674560558
_cell_length_c       6.277432788528448
_cell_angle_alpha    60.000000838811445
_cell_angle_beta     60.00000062636043
_cell_angle_gamma    59.999998811894116

_space_group_name_H-M_alt    "P 1"
_space_group_IT_number       1

loop_
  _space_group_symop_operation_xyz
  'x, y, z'

loop_
  _atom_site_type_symbol
  _atom_site_label
  _atom_site_symmetry_multiplicity
  _atom_site_fract_x
  _atom_site_fract_y
  _atom_site_fract_z
  _atom_site_occupancy
  V   V1        1.0  0.2500002522426761  0.24999984277086126  0.24999989967656178  1.0000
  V   V2        1.0  0.749999721616542  0.7499997917014095  0.7499998634629237  1.0000
  As  As1       1.0  0.9999999852844237  6.038792217615902e-16  3.2845914260042954e-08  1.0000
  Se  Se1       1.0  0.283287605678371  0.2832876247727857  0.7167123586292105  1.0000
  Se  Se2       1.0  0.7167123251592021  0.7167124974565666  0.2832877014631362  1.0000
  Se  Se3       1.0  0.7167124131511631  0.2832876222947898  0.28328759721244207  1.0000
  Se  Se4       1.0  0.28328778208545397  0.7167123965300618  0.7167124492889628  1.0000
  Se  Se5       1.0  0.2832876086390089  0.7167124747009013  0.28328760785873  1.0000
  Se  Se6       1.0  0.7167123179234726  0.28328774312883875  0.7167124925933962  1.0000
