data_image0
_chemical_formula_structural       V2BO6
_chemical_formula_sum              "V2 B1 O6"
_cell_length_a       4.569770236147796
_cell_length_b       4.569770655769957
_cell_length_c       4.569770180787237
_cell_angle_alpha    59.9999976028744
_cell_angle_beta     59.99999959160189
_cell_angle_gamma    59.999997247474504

_space_group_name_H-M_alt    "P 1"
_space_group_IT_number       1

loop_
  _space_group_symop_operation_xyz
  'x, y, z'

loop_
  _atom_site_type_symbol
  _atom_site_label
  _atom_site_symmetry_multiplicity
  _atom_site_fract_x
  _atom_site_fract_y
  _atom_site_fract_z
  _atom_site_occupancy
  V   V1        1.0  0.2499994329942402  0.25000083786815047  0.2500015128435688  1.0000
  V   V2        1.0  0.7500008188845483  0.7499998281429401  0.7500007458422362  1.0000
  B   B1        1.0  4.7856383097648004e-08  8.040288826290156e-09  1.9306934262691321e-07  1.0000
  O   O1        1.0  0.23660605982825542  0.23660625462716914  0.763393213619636  1.0000
  O   O2        1.0  0.7633941974024421  0.7633933795451102  0.23660553841385618  1.0000
  O   O3        1.0  0.7633934144790817  0.23660645163001942  0.2366058321840484  1.0000
  O   O4        1.0  0.23660560306149409  0.763394058935454  0.7633935413449411  1.0000
  O   O5        1.0  0.23660605520529665  0.7633931702178823  0.2366063075798868  1.0000
  O   O6        1.0  0.7633944943796436  0.23660597349578097  0.7633931387217402  1.0000
