data_image0
_chemical_formula_structural       V2BS6
_chemical_formula_sum              "V2 B1 S6"
_cell_length_a       6.0190906738431496
_cell_length_b       6.019090819380617
_cell_length_c       6.0190907803608
_cell_angle_alpha    59.999999187117965
_cell_angle_beta     60.000000515945175
_cell_angle_gamma    60.000000391475844

_space_group_name_H-M_alt    "P 1"
_space_group_IT_number       1

loop_
  _space_group_symop_operation_xyz
  'x, y, z'

loop_
  _atom_site_type_symbol
  _atom_site_label
  _atom_site_symmetry_multiplicity
  _atom_site_fract_x
  _atom_site_fract_y
  _atom_site_fract_z
  _atom_site_occupancy
  V   V1        1.0  0.25000005130899455  0.2500000150329657  0.24999997524579934  1.0000
  V   V2        1.0  0.7499999757488066  0.7500000328902922  0.7500000824018659  1.0000
  B   B1        1.0  0.999999969402054  2.8486740208928097e-08  6.252668060670199e-08  1.0000
  S   S1        1.0  0.23571090419893465  0.23571090504051176  0.7642891403094623  1.0000
  S   S2        1.0  0.7642890665870296  0.764289075735428  0.2357109275449851  1.0000
  S   S3        1.0  0.7642889751415335  0.23571098026996576  0.23571098909406088  1.0000
  S   S4        1.0  0.23571104308239943  0.764288927254355  0.7642890002912855  1.0000
  S   S5        1.0  0.23571095005813186  0.764289067869853  0.23571091942750627  1.0000
  S   S6        1.0  0.7642890186531314  0.23571098819247668  0.7642889706037543  1.0000
