data_image0
_chemical_formula_structural       V2BSe6
_chemical_formula_sum              "V2 B1 Se6"
_cell_length_a       6.2090144724582474
_cell_length_b       6.209014431793793
_cell_length_c       6.209014470532006
_cell_angle_alpha    59.99999985636359
_cell_angle_beta     59.99999946122253
_cell_angle_gamma    59.999999771002045

_space_group_name_H-M_alt    "P 1"
_space_group_IT_number       1

loop_
  _space_group_symop_operation_xyz
  'x, y, z'

loop_
  _atom_site_type_symbol
  _atom_site_label
  _atom_site_symmetry_multiplicity
  _atom_site_fract_x
  _atom_site_fract_y
  _atom_site_fract_z
  _atom_site_occupancy
  V   V1        1.0  0.25000003085997863  0.2499999893627061  0.2499999945639958  1.0000
  V   V2        1.0  0.7500000423482408  0.7500000016210775  0.7499999421139474  1.0000
  B   B1        1.0  0.9999999899310987  7.890108101859758e-09  1.0752765974107082e-08  1.0000
  Se  Se1       1.0  0.2398381943069754  0.23983822192891915  0.7601617748093147  1.0000
  Se  Se2       1.0  0.7601617662095138  0.7601617946977156  0.23983823599373796  1.0000
  Se  Se3       1.0  0.760161794432579  0.23983820172032053  0.23983822309751068  1.0000
  Se  Se4       1.0  0.2398382060404383  0.7601617675656657  0.7601617946187251  1.0000
  Se  Se5       1.0  0.23983818740481494  0.7601617818962494  0.23983825503480846  1.0000
  Se  Se6       1.0  0.7601617935685533  0.23983823473038543  0.7601617632559817  1.0000
