data_image0
_chemical_formula_structural       V2BTe6
_chemical_formula_sum              "V2 B1 Te6"
_cell_length_a       6.846783429038078
_cell_length_b       6.846783333986253
_cell_length_c       6.846783325633091
_cell_angle_alpha    59.9999994582937
_cell_angle_beta     59.99999918850203
_cell_angle_gamma    59.99999915669539

_space_group_name_H-M_alt    "P 1"
_space_group_IT_number       1

loop_
  _space_group_symop_operation_xyz
  'x, y, z'

loop_
  _atom_site_type_symbol
  _atom_site_label
  _atom_site_symmetry_multiplicity
  _atom_site_fract_x
  _atom_site_fract_y
  _atom_site_fract_z
  _atom_site_occupancy
  V   V1        1.0  0.2499999103291497  0.24999995834856287  0.2500000645939766  1.0000
  V   V2        1.0  0.7500000176695288  0.7500000825451795  0.750000105889986  1.0000
  B   B1        1.0  1.2997929324800785e-08  0.9999999964224225  0.9999999646184867  1.0000
  Te  Te1       1.0  0.24141783286089366  0.24141778572462516  0.7585822010358134  1.0000
  Te  Te2       1.0  0.7585822069749395  0.7585821979278782  0.24141773621406976  1.0000
  Te  Te3       1.0  0.7585822335175588  0.24141782070854098  0.2414177569521136  1.0000
  Te  Te4       1.0  0.2414177044977363  0.7585822255515677  0.7585822364177333  1.0000
  Te  Te5       1.0  0.2414178530185315  0.7585822103027574  0.241417728964184  1.0000
  Te  Te6       1.0  0.7585822321829279  0.24141772326366145  0.7585822091853881  1.0000
