data_image0
_chemical_formula_structural       V2CoTe6
_chemical_formula_sum              "V2 Co1 Te6"
_cell_length_a       6.849920172829413
_cell_length_b       6.849920192422243
_cell_length_c       6.849920320375678
_cell_angle_alpha    60.0000004077358
_cell_angle_beta     59.99999862191906
_cell_angle_gamma    60.00000063183073

_space_group_name_H-M_alt    "P 1"
_space_group_IT_number       1

loop_
  _space_group_symop_operation_xyz
  'x, y, z'

loop_
  _atom_site_type_symbol
  _atom_site_label
  _atom_site_symmetry_multiplicity
  _atom_site_fract_x
  _atom_site_fract_y
  _atom_site_fract_z
  _atom_site_occupancy
  V   V1        1.0  0.24999985507594147  0.25000018638187943  0.2499999959826178  1.0000
  V   V2        1.0  0.7499999321645796  0.74999979210671  0.7500000828882203  1.0000
  Co  Co1       1.0  0.9999999841478734  0.9999999767563961  2.684722014355058e-08  1.0000
  Te  Te1       1.0  0.25094250425554254  0.25094264650366843  0.7490574106497737  1.0000
  Te  Te2       1.0  0.7490574938686367  0.7490573820480698  0.25094257424443506  1.0000
  Te  Te3       1.0  0.7490574679124413  0.2509426267602466  0.2509425019097957  1.0000
  Te  Te4       1.0  0.2509426455385267  0.7490573946396152  0.7490574887516671  1.0000
  Te  Te5       1.0  0.25094263042023396  0.7490573589877771  0.2509425171125234  1.0000
  Te  Te6       1.0  0.7490574903871242  0.250942630228632  0.749057402749824  1.0000
