data_image0
_chemical_formula_structural       V2CoO6
_chemical_formula_sum              "V2 Co1 O6"
_cell_length_a       4.942500638087012
_cell_length_b       4.942500835144038
_cell_length_c       4.942500585151927
_cell_angle_alpha    59.99999901561864
_cell_angle_beta     59.99999928280115
_cell_angle_gamma    60.00000001152584

_space_group_name_H-M_alt    "P 1"
_space_group_IT_number       1

loop_
  _space_group_symop_operation_xyz
  'x, y, z'

loop_
  _atom_site_type_symbol
  _atom_site_label
  _atom_site_symmetry_multiplicity
  _atom_site_fract_x
  _atom_site_fract_y
  _atom_site_fract_z
  _atom_site_occupancy
  V   V1        1.0  0.25000008394570095  0.2500001125357762  0.24999991240191485  1.0000
  V   V2        1.0  0.7500001009557414  0.7499998370541191  0.7500000750626453  1.0000
  Co  Co1       1.0  0.9999998483086208  0.9999999504402762  1.0871862307810342e-07  1.0000
  O   O1        1.0  0.25807597451601105  0.25807596549613215  0.7419240095387898  1.0000
  O   O2        1.0  0.7419241003418654  0.7419241600307864  0.2580757851409196  1.0000
  O   O3        1.0  0.7419240728355052  0.25807592204674323  0.25807591780371963  1.0000
  O   O4        1.0  0.25807588941189746  0.7419240647129454  0.7419241462168261  1.0000
  O   O5        1.0  0.25807580521504314  0.7419240946765612  0.2580759817552363  1.0000
  O   O6        1.0  0.7419241280294313  0.2580759019950716  0.7419241160900097  1.0000
