data_image0
_chemical_formula_structural       V2CoSe6
_chemical_formula_sum              "V2 Co1 Se6"
_cell_length_a       6.139334319745624
_cell_length_b       6.139334355032346
_cell_length_c       6.139334525978025
_cell_angle_alpha    59.99999765409015
_cell_angle_beta     59.99999880450422
_cell_angle_gamma    59.99999867117912

_space_group_name_H-M_alt    "P 1"
_space_group_IT_number       1

loop_
  _space_group_symop_operation_xyz
  'x, y, z'

loop_
  _atom_site_type_symbol
  _atom_site_label
  _atom_site_symmetry_multiplicity
  _atom_site_fract_x
  _atom_site_fract_y
  _atom_site_fract_z
  _atom_site_occupancy
  V   V1        1.0  0.2500001265450216  0.24999960757051934  0.25000008073886754  1.0000
  V   V2        1.0  0.7500000640699578  0.7500002151620948  0.7499996483932775  1.0000
  Co  Co1       1.0  1.208358039180026e-08  0.9999999581067875  1.0937759647756572e-07  1.0000
  Se  Se1       1.0  0.26274625915233146  0.26274629533250893  0.7372537367044607  1.0000
  Se  Se2       1.0  0.7372536078043719  0.7372537987085138  0.26274636228807335  1.0000
  Se  Se3       1.0  0.7372537580365113  0.26274620305519897  0.2627463366538973  1.0000
  Se  Se4       1.0  0.2627463733210557  0.73725373538247  0.7372536216113088  1.0000
  Se  Se5       1.0  0.2627461298254531  0.7372539084736048  0.2627463926022102  1.0000
  Se  Se6       1.0  0.7372536719086674  0.2627462853131577  0.7372537331074527  1.0000
