data_image0
_chemical_formula_structural       V2CoS6
_chemical_formula_sum              "V2 Co1 S6"
_cell_length_a       5.8816602413596994
_cell_length_b       5.881660195217316
_cell_length_c       5.8816602319962445
_cell_angle_alpha    59.99999944968535
_cell_angle_beta     59.999999472786634
_cell_angle_gamma    59.99999836437114

_space_group_name_H-M_alt    "P 1"
_space_group_IT_number       1

loop_
  _space_group_symop_operation_xyz
  'x, y, z'

loop_
  _atom_site_type_symbol
  _atom_site_label
  _atom_site_symmetry_multiplicity
  _atom_site_fract_x
  _atom_site_fract_y
  _atom_site_fract_z
  _atom_site_occupancy
  V   V1        1.0  0.24999994476125126  0.2500000465436861  0.25000000328340016  1.0000
  V   V2        1.0  0.7500000854401714  0.7499999751284441  0.750000014128904  1.0000
  Co  Co1       1.0  2.715116526649249e-09  9.786864201796436e-08  0.9999998987021139  1.0000
  S   S1        1.0  0.257796192923458  0.25779615749495977  0.7422038226524562  1.0000
  S   S2        1.0  0.7422037586130668  0.7422036996745605  0.25779627383859727  1.0000
  S   S3        1.0  0.7422038177567408  0.2577962265947139  0.2577961495049561  1.0000
  S   S4        1.0  0.25779614115280536  0.7422038617113862  0.7422037988278924  1.0000
  S   S5        1.0  0.2577962337206696  0.7422037750789381  0.25779620725097196  1.0000
  S   S6        1.0  0.7422038214684926  0.2577961716299767  0.7422038249478689  1.0000
