data_image0
_chemical_formula_structural       V2CO6
_chemical_formula_sum              "V2 C1 O6"
_cell_length_a       4.541972869561404
_cell_length_b       4.541973532301135
_cell_length_c       4.541973656440507
_cell_angle_alpha    59.999996824117574
_cell_angle_beta     59.99999427920621
_cell_angle_gamma    59.99999646334535

_space_group_name_H-M_alt    "P 1"
_space_group_IT_number       1

loop_
  _space_group_symop_operation_xyz
  'x, y, z'

loop_
  _atom_site_type_symbol
  _atom_site_label
  _atom_site_symmetry_multiplicity
  _atom_site_fract_x
  _atom_site_fract_y
  _atom_site_fract_z
  _atom_site_occupancy
  V   V1        1.0  0.24999923421988157  0.24999978242811663  0.25000150937712734  1.0000
  V   V2        1.0  0.7499971918886552  0.7499994686271072  0.7500021776964323  1.0000
  C   C1        1.0  0.9999996967011038  0.999999773493688  3.595751077557832e-07  1.0000
  O   O1        1.0  0.23335020872850468  0.23334872423377284  0.7666499842959738  1.0000
  O   O2        1.0  0.7666511395018717  0.7666508692773106  0.23334858698687624  1.0000
  O   O3        1.0  0.7666511936806157  0.23334972708558818  0.233348421406878  1.0000
  O   O4        1.0  0.23335003971438176  0.7666511337822786  0.7666502979699554  1.0000
  O   O5        1.0  0.2333502317874965  0.766650786205453  0.23334822929363033  1.0000
  O   O6        1.0  0.7666513455920799  0.23334976726097226  0.7666501679589661  1.0000
