data_image0
_chemical_formula_structural       V2CrS6
_chemical_formula_sum              "V2 Cr1 S6"
_cell_length_a       5.920318498095316
_cell_length_b       5.920318421118829
_cell_length_c       5.920318519710135
_cell_angle_alpha    60.000000410042894
_cell_angle_beta     60.00000001080966
_cell_angle_gamma    60.00000043390633

_space_group_name_H-M_alt    "P 1"
_space_group_IT_number       1

loop_
  _space_group_symop_operation_xyz
  'x, y, z'

loop_
  _atom_site_type_symbol
  _atom_site_label
  _atom_site_symmetry_multiplicity
  _atom_site_fract_x
  _atom_site_fract_y
  _atom_site_fract_z
  _atom_site_occupancy
  V   V1        1.0  0.24999995538300313  0.2500000575756753  0.2500000057438806  1.0000
  V   V2        1.0  0.75000001010706  0.7500000217108643  0.7499997707741466  1.0000
  Cr  Cr1       1.0  6.481623779134395e-08  1.0343574344345657e-08  1.0092615540441189e-07  1.0000
  S   S1        1.0  0.2626541338618129  0.2626540854299144  0.7373459601356585  1.0000
  S   S2        1.0  0.7373458482388625  0.7373458387030406  0.26265427414646475  1.0000
  S   S3        1.0  0.7373458956910476  0.2626540543109769  0.26265411034957165  1.0000
  S   S4        1.0  0.2626541677349841  0.7373459008526938  0.7373458211461629  1.0000
  S   S5        1.0  0.2626540579122341  0.7373459124675062  0.2626541132705431  1.0000
  S   S6        1.0  0.7373458804108013  0.26265412544474437  0.7373458461587932  1.0000
