data_image0
_chemical_formula_structural       V2CrTe6
_chemical_formula_sum              "V2 Cr1 Te6"
_cell_length_a       6.992452989124933
_cell_length_b       6.992452988116024
_cell_length_c       6.99245309095599
_cell_angle_alpha    60.00000002791669
_cell_angle_beta     59.9999992354083
_cell_angle_gamma    59.99999962062548

_space_group_name_H-M_alt    "P 1"
_space_group_IT_number       1

loop_
  _space_group_symop_operation_xyz
  'x, y, z'

loop_
  _atom_site_type_symbol
  _atom_site_label
  _atom_site_symmetry_multiplicity
  _atom_site_fract_x
  _atom_site_fract_y
  _atom_site_fract_z
  _atom_site_occupancy
  V   V1        1.0  0.25000001240204367  0.24999992569717788  0.25000001058292504  1.0000
  V   V2        1.0  0.7499999874278881  0.7500000205533593  0.7499998934337  1.0000
  Cr  Cr1       1.0  4.710504173608295e-08  1.22606672530144e-08  0.999999957446126  1.0000
  Te  Te1       1.0  0.25856543373308094  0.25856542584431474  0.7414345662367731  1.0000
  Te  Te2       1.0  0.7414345340199511  0.7414345571882262  0.258565495599987  1.0000
  Te  Te3       1.0  0.7414345319726786  0.25856540697211744  0.2585654748645971  1.0000
  Te  Te4       1.0  0.258565420900993  0.7414346058363303  0.7414345866744563  1.0000
  Te  Te5       1.0  0.2585654325118809  0.7414346147649485  0.2585654550705791  1.0000
  Te  Te6       1.0  0.7414345973743355  0.25856542957092965  0.7414345650695063  1.0000
