data_image0
_chemical_formula_structural       V2CrO6
_chemical_formula_sum              "V2 Cr1 O6"
_cell_length_a       5.334212967548323
_cell_length_b       5.062901744451777
_cell_length_c       5.3112945889022365
_cell_angle_alpha    67.3641244501904
_cell_angle_beta     65.26036536760665
_cell_angle_gamma    67.01388510165043

_space_group_name_H-M_alt    "P 1"
_space_group_IT_number       1

loop_
  _space_group_symop_operation_xyz
  'x, y, z'

loop_
  _atom_site_type_symbol
  _atom_site_label
  _atom_site_symmetry_multiplicity
  _atom_site_fract_x
  _atom_site_fract_y
  _atom_site_fract_z
  _atom_site_occupancy
  V   V1        1.0  0.39305835888088636  0.09317202824778538  0.3777354560923062  1.0000
  V   V2        1.0  0.7506355974455028  0.6396679644053621  0.735691012259941  1.0000
  Cr  Cr1       1.0  0.004975166229853645  0.019111628162022075  0.9904947570739637  1.0000
  O   O1        1.0  0.09945539369856583  0.34837978316842133  0.6327889298305788  1.0000
  O   O2        1.0  0.7728517946341685  0.7927459433599283  0.348503736456671  1.0000
  O   O3        1.0  0.6473218132664931  0.34813238670774665  0.08670487754440712  1.0000
  O   O4        1.0  0.36381187790600916  0.7930716341512828  0.7555828630309644  1.0000
  O   O5        1.0  0.21753945769615285  0.05403811439419304  0.2000331161309344  1.0000
  O   O6        1.0  0.8192495420309501  0.896371098803049  0.8030170614007615  1.0000
