data_image0
_chemical_formula_structural       V2CrSe6
_chemical_formula_sum              "V2 Cr1 Se6"
_cell_length_a       6.163728383301481
_cell_length_b       6.163728606326167
_cell_length_c       6.1637281378512645
_cell_angle_alpha    60.000002979135
_cell_angle_beta     60.00000369301799
_cell_angle_gamma    59.99999975012268

_space_group_name_H-M_alt    "P 1"
_space_group_IT_number       1

loop_
  _space_group_symop_operation_xyz
  'x, y, z'

loop_
  _atom_site_type_symbol
  _atom_site_label
  _atom_site_symmetry_multiplicity
  _atom_site_fract_x
  _atom_site_fract_y
  _atom_site_fract_z
  _atom_site_occupancy
  V   V1        1.0  0.25000012151929124  0.2499998980762715  0.2500000103450947  1.0000
  V   V2        1.0  0.7500001437976092  0.7499999406192305  0.7499998121760757  1.0000
  Cr  Cr1       1.0  0.999999920369926  1.1524712941784763e-07  0.9999998718686302  1.0000
  Se  Se1       1.0  0.26800129535459294  0.2680013377932815  0.7319986716818007  1.0000
  Se  Se2       1.0  0.7319984900912746  0.7319986141623428  0.2680015223426046  1.0000
  Se  Se3       1.0  0.7319986880380848  0.26800149400203505  0.2680012794073868  1.0000
  Se  Se4       1.0  0.2680013189144736  0.731998827539194  0.7319985833781919  1.0000
  Se  Se5       1.0  0.2680012890905604  0.7319985689596826  0.26800148175117816  1.0000
  Se  Se6       1.0  0.7319987415441509  0.26800119820312707  0.7319987615725575  1.0000
