data_image0
_chemical_formula_structural       V2CS6
_chemical_formula_sum              "V2 C1 S6"
_cell_length_a       5.784316031065446
_cell_length_b       5.784316023929196
_cell_length_c       5.784315916404658
_cell_angle_alpha    59.999999245032186
_cell_angle_beta     60.00000036854916
_cell_angle_gamma    60.0000003141764

_space_group_name_H-M_alt    "P 1"
_space_group_IT_number       1

loop_
  _space_group_symop_operation_xyz
  'x, y, z'

loop_
  _atom_site_type_symbol
  _atom_site_label
  _atom_site_symmetry_multiplicity
  _atom_site_fract_x
  _atom_site_fract_y
  _atom_site_fract_z
  _atom_site_occupancy
  V   V1        1.0  0.24999996512701284  0.2500000123645633  0.2500000326375559  1.0000
  V   V2        1.0  0.7499999882988927  0.7499999799251128  0.7500001146142873  1.0000
  C   C1        1.0  3.5777356333075574e-07  4.6581823161041265e-08  0.9999986326024078  1.0000
  S   S1        1.0  0.23957539982084303  0.2395754695695226  0.7604245076041007  1.0000
  S   S2        1.0  0.7604243150848023  0.760424363918553  0.23957551502066213  1.0000
  S   S3        1.0  0.7604240911658051  0.2395759091131849  0.2395759217036024  1.0000
  S   S4        1.0  0.23957519370256208  0.7604247713167595  0.7604248052820707  1.0000
  S   S5        1.0  0.23957585051018004  0.7604242008021652  0.23957583314542083  1.0000
  S   S6        1.0  0.7604248032092458  0.23957525367941226  0.7604246858126966  1.0000
