data_image0
_chemical_formula_structural       V2FeTe6
_chemical_formula_sum              "V2 Fe1 Te6"
_cell_length_a       6.853616101119085
_cell_length_b       6.853616191698366
_cell_length_c       6.853616209930814
_cell_angle_alpha    59.99999919386944
_cell_angle_beta     60.00000137633969
_cell_angle_gamma    60.000000571937655

_space_group_name_H-M_alt    "P 1"
_space_group_IT_number       1

loop_
  _space_group_symop_operation_xyz
  'x, y, z'

loop_
  _atom_site_type_symbol
  _atom_site_label
  _atom_site_symmetry_multiplicity
  _atom_site_fract_x
  _atom_site_fract_y
  _atom_site_fract_z
  _atom_site_occupancy
  V   V1        1.0  0.2500000526428825  0.25000004265761183  0.24999998450190727  1.0000
  V   V2        1.0  0.7499998387881438  0.7499999885864186  0.7500000281063013  1.0000
  Fe  Fe1       1.0  0.9999998981116409  1.2509038385340052e-08  0.9999999440128805  1.0000
  Te  Te1       1.0  0.24920977567135294  0.24920969970753667  0.7507902587131379  1.0000
  Te  Te2       1.0  0.750790295064386  0.7507902940093815  0.2492097457468742  1.0000
  Te  Te3       1.0  0.7507902284832813  0.24920972799193136  0.24920971594353758  1.0000
  Te  Te4       1.0  0.24920976066642353  0.7507903032520991  0.7507902930369295  1.0000
  Te  Te5       1.0  0.24920979498733106  0.7507902877084085  0.24920964873927903  1.0000
  Te  Te6       1.0  0.7507903584411133  0.24920963988931166  0.7507903839110746  1.0000
