data_image0
_chemical_formula_structural       V2FeSe6
_chemical_formula_sum              "V2 Fe1 Se6"
_cell_length_a       6.375126947265686
_cell_length_b       6.3751270617410025
_cell_length_c       6.375126822238527
_cell_angle_alpha    59.99999889697311
_cell_angle_beta     60.00000027082911
_cell_angle_gamma    60.00000206806137

_space_group_name_H-M_alt    "P 1"
_space_group_IT_number       1

loop_
  _space_group_symop_operation_xyz
  'x, y, z'

loop_
  _atom_site_type_symbol
  _atom_site_label
  _atom_site_symmetry_multiplicity
  _atom_site_fract_x
  _atom_site_fract_y
  _atom_site_fract_z
  _atom_site_occupancy
  V   V1        1.0  0.24999953303012004  0.2500001764513177  0.25000028581708345  1.0000
  V   V2        1.0  0.7499998563835352  0.750000229657709  0.7499993857313628  1.0000
  Fe  Fe1       1.0  1.3447910312264524e-08  0.9999999596562653  9.658351388128685e-08  1.0000
  Se  Se1       1.0  0.252499796036885  0.2524995523234869  0.7475002920364154  1.0000
  Se  Se2       1.0  0.7475003926476582  0.747500162178694  0.2524999735102691  1.0000
  Se  Se3       1.0  0.747500437533029  0.25249947143258844  0.2525000147911373  1.0000
  Se  Se4       1.0  0.25249986959588877  0.747500300703498  0.7475002254602555  1.0000
  Se  Se5       1.0  0.252499572404409  0.7475003285288387  0.25249969929499305  1.0000
  Se  Se6       1.0  0.7475005397613171  0.2524997894106779  0.7475000639756362  1.0000
