data_image0
_chemical_formula_structural       V2FeO6
_chemical_formula_sum              "V2 Fe1 O6"
_cell_length_a       5.052455386017076
_cell_length_b       5.052455344910445
_cell_length_c       5.052455370434535
_cell_angle_alpha    59.99999925657593
_cell_angle_beta     60.00000028964998
_cell_angle_gamma    59.9999999265775

_space_group_name_H-M_alt    "P 1"
_space_group_IT_number       1

loop_
  _space_group_symop_operation_xyz
  'x, y, z'

loop_
  _atom_site_type_symbol
  _atom_site_label
  _atom_site_symmetry_multiplicity
  _atom_site_fract_x
  _atom_site_fract_y
  _atom_site_fract_z
  _atom_site_occupancy
  V   V1        1.0  0.2500002840246381  0.24999975506674904  0.25000018650706496  1.0000
  V   V2        1.0  0.7500000641767014  0.7499994348843614  0.7500006113271023  1.0000
  Fe  Fe1       1.0  0.9999999981066924  1.9392470310459247e-08  0.9999999971881257  1.0000
  O   O1        1.0  0.2473461971201092  0.2473465051519546  0.7526535708611952  1.0000
  O   O2        1.0  0.7526536308871958  0.752653717448206  0.24734617509271092  1.0000
  O   O3        1.0  0.7526535703187576  0.24734649948848764  0.24734612515250237  1.0000
  O   O4        1.0  0.24734625521691644  0.7526538128018486  0.7526535356281814  1.0000
  O   O5        1.0  0.24734642689639103  0.7526537679802106  0.24734606761739467  1.0000
  O   O6        1.0  0.7526535682003858  0.24734648128459646  0.7526537140682438  1.0000
