data_image0
_chemical_formula_structural       V2FeS6
_chemical_formula_sum              "V2 Fe1 S6"
_cell_length_a       5.853882283356254
_cell_length_b       5.8538818639344585
_cell_length_c       5.8538822905164745
_cell_angle_alpha    59.999999893916666
_cell_angle_beta     59.99999978977831
_cell_angle_gamma    60.00000091544358

_space_group_name_H-M_alt    "P 1"
_space_group_IT_number       1

loop_
  _space_group_symop_operation_xyz
  'x, y, z'

loop_
  _atom_site_type_symbol
  _atom_site_label
  _atom_site_symmetry_multiplicity
  _atom_site_fract_x
  _atom_site_fract_y
  _atom_site_fract_z
  _atom_site_occupancy
  V   V1        1.0  0.24999993124062106  0.250000053097338  0.24999993580228785  1.0000
  V   V2        1.0  0.7500000106429724  0.7500000588667867  0.7500003265535169  1.0000
  Fe  Fe1       1.0  5.024663386036249e-08  1.924817276830153e-07  0.9999999042598431  1.0000
  S   S1        1.0  0.2590426464597602  0.25904268243614453  0.7409572508130777  1.0000
  S   S2        1.0  0.7409572202146  0.7409570633942498  0.2590428119802657  1.0000
  S   S3        1.0  0.7409572365646118  0.2590427841840384  0.2590426642697502  1.0000
  S   S4        1.0  0.2590427682624825  0.7409572336314051  0.7409571422066652  1.0000
  S   S5        1.0  0.25904285539546856  0.7409572646686491  0.25904266974664425  1.0000
  S   S6        1.0  0.7409572332559856  0.25904266736690246  0.7409573409914317  1.0000
