data_image0
_chemical_formula_structural       V2GaS6
_chemical_formula_sum              "V2 Ga1 S6"
_cell_length_a       6.064819944484161
_cell_length_b       6.064820234558855
_cell_length_c       6.064820025913747
_cell_angle_alpha    60.00000012745512
_cell_angle_beta     60.000000153901716
_cell_angle_gamma    59.99999814254859

_space_group_name_H-M_alt    "P 1"
_space_group_IT_number       1

loop_
  _space_group_symop_operation_xyz
  'x, y, z'

loop_
  _atom_site_type_symbol
  _atom_site_label
  _atom_site_symmetry_multiplicity
  _atom_site_fract_x
  _atom_site_fract_y
  _atom_site_fract_z
  _atom_site_occupancy
  V   V1        1.0  0.25000010407812767  0.25000018076057845  0.24999987115337202  1.0000
  V   V2        1.0  0.7499999549784954  0.7499999404931365  0.7500002281883533  1.0000
  Ga  Ga1       1.0  4.225280160350435e-08  0.9999999474949519  3.480548763873583e-08  1.0000
  S   S1        1.0  0.26373239240208834  0.26373248062112614  0.7362675847750282  1.0000
  S   S2        1.0  0.7362675130134952  0.7362676103412238  0.26373238393767034  1.0000
  S   S3        1.0  0.7362675512381657  0.2637324449622676  0.26373236298800484  1.0000
  S   S4        1.0  0.26373236264122857  0.7362675349317149  0.7362676405384374  1.0000
  S   S5        1.0  0.26373245629114034  0.7362675595878084  0.2637323358620984  1.0000
  S   S6        1.0  0.7362676237517667  0.2637322930824039  0.736267559156383  1.0000
