data_image0
_chemical_formula_structural       V2GaO6
_chemical_formula_sum              "V2 Ga1 O6"
_cell_length_a       5.042799969229411
_cell_length_b       5.042799941900792
_cell_length_c       5.042799888140844
_cell_angle_alpha    60.00000015741441
_cell_angle_beta     60.00000071292733
_cell_angle_gamma    60.00000037562372

_space_group_name_H-M_alt    "P 1"
_space_group_IT_number       1

loop_
  _space_group_symop_operation_xyz
  'x, y, z'

loop_
  _atom_site_type_symbol
  _atom_site_label
  _atom_site_symmetry_multiplicity
  _atom_site_fract_x
  _atom_site_fract_y
  _atom_site_fract_z
  _atom_site_occupancy
  V   V1        1.0  0.25000003240194535  0.24999994855692903  0.24999993333152531  1.0000
  V   V2        1.0  0.7499999912002628  0.7500000812546955  0.7499999612702974  1.0000
  Ga  Ga1       1.0  1.3322103278642067e-08  2.185830082253636e-08  8.189127451455202e-09  1.0000
  O   O1        1.0  0.25949363867888586  0.25949366294824816  0.7405063594423141  1.0000
  O   O2        1.0  0.7405063545090823  0.7405063207180742  0.25949367060752204  1.0000
  O   O3        1.0  0.7405063644736624  0.25949365053275564  0.25949370197042526  1.0000
  O   O4        1.0  0.2594936979639158  0.7405063039891658  0.7405062961286543  1.0000
  O   O5        1.0  0.25949367180328775  0.7405063661002815  0.2594937050183147  1.0000
  O   O6        1.0  0.7405062529446369  0.2594936442817415  0.740506365723946  1.0000
