data_image0
_chemical_formula_structural       V2GaSe6
_chemical_formula_sum              "V2 Ga1 Se6"
_cell_length_a       6.291426366874323
_cell_length_b       6.291426700586126
_cell_length_c       6.29142643157688
_cell_angle_alpha    60.00000097665361
_cell_angle_beta     59.99999986932797
_cell_angle_gamma    59.999999513601416

_space_group_name_H-M_alt    "P 1"
_space_group_IT_number       1

loop_
  _space_group_symop_operation_xyz
  'x, y, z'

loop_
  _atom_site_type_symbol
  _atom_site_label
  _atom_site_symmetry_multiplicity
  _atom_site_fract_x
  _atom_site_fract_y
  _atom_site_fract_z
  _atom_site_occupancy
  V   V1        1.0  0.25000005122665797  0.25000017655784373  0.24999982912519403  1.0000
  V   V2        1.0  0.7500000388608259  0.7499998775328544  0.7500000695385795  1.0000
  Ga  Ga1       1.0  4.7998661968765175e-09  1.0122780655553075e-07  0.9999999612913453  1.0000
  Se  Se1       1.0  0.27619447168121725  0.27619449556210934  0.7238054552516163  1.0000
  Se  Se2       1.0  0.7238054745106681  0.7238053404994698  0.2761945766905765  1.0000
  Se  Se3       1.0  0.7238054762311181  0.27619455569693063  0.2761944312843998  1.0000
  Se  Se4       1.0  0.2761945261855208  0.7238055081272118  0.7238055492636196  1.0000
  Se  Se5       1.0  0.27619451394550776  0.7238054484089277  0.27619454335474125  1.0000
  Se  Se6       1.0  0.7238054492448383  0.27619449082714537  0.7238055842685108  1.0000
