data_image0
_chemical_formula_structural       V2GaN6
_chemical_formula_sum              "V2 Ga1 N6"
_cell_length_a       4.690461546350153
_cell_length_b       4.690461090330025
_cell_length_c       4.690461850008246
_cell_angle_alpha    60.000003400996135
_cell_angle_beta     60.00001003687708
_cell_angle_gamma    60.00000578963769

_space_group_name_H-M_alt    "P 1"
_space_group_IT_number       1

loop_
  _space_group_symop_operation_xyz
  'x, y, z'

loop_
  _atom_site_type_symbol
  _atom_site_label
  _atom_site_symmetry_multiplicity
  _atom_site_fract_x
  _atom_site_fract_y
  _atom_site_fract_z
  _atom_site_occupancy
  V   V1        1.0  0.2500015862346228  0.24999822890231743  0.25000048056846685  1.0000
  V   V2        1.0  0.7499998619219287  0.7500006401047211  0.749998425369518  1.0000
  Ga  Ga1       1.0  0.9999999299004045  1.8277976339746674e-08  7.921045968791089e-08  1.0000
  N   N1        1.0  0.277773503055976  0.27777342319531423  0.7222264699620142  1.0000
  N   N2        1.0  0.7222259500646055  0.7222271326078364  0.27777386075961086  1.0000
  N   N3        1.0  0.7222261106353368  0.27777311046343267  0.2777739530547182  1.0000
  N   N4        1.0  0.2777735727346961  0.7222269466120687  0.722226330687166  1.0000
  N   N5        1.0  0.2777731923498872  0.7222268237122371  0.2777737146451341  1.0000
  N   N6        1.0  0.7222263752340407  0.2777736250341989  0.7222266272970823  1.0000
