data_image0
_chemical_formula_structural       V2GaO6
_chemical_formula_sum              "V2 Ga1 O6"
_cell_length_a       5.042800067629334
_cell_length_b       5.042800045518856
_cell_length_c       5.042800020919201
_cell_angle_alpha    59.999999851571104
_cell_angle_beta     60.00000118185193
_cell_angle_gamma    60.000000370522784

_space_group_name_H-M_alt    "P 1"
_space_group_IT_number       1

loop_
  _space_group_symop_operation_xyz
  'x, y, z'

loop_
  _atom_site_type_symbol
  _atom_site_label
  _atom_site_symmetry_multiplicity
  _atom_site_fract_x
  _atom_site_fract_y
  _atom_site_fract_z
  _atom_site_occupancy
  V   V1        1.0  0.2500000715686813  0.24999996196960797  0.24999988704019224  1.0000
  V   V2        1.0  0.7499999901864572  0.7500000923483262  0.7499999220048293  1.0000
  Ga  Ga1       1.0  0.999999988273199  1.4572200215922195e-08  8.49242671617773e-09  1.0000
  O   O1        1.0  0.25949367191792194  0.25949366938813223  0.7405063501042457  1.0000
  O   O2        1.0  0.7405063218377074  0.7405063484992996  0.25949366979780497  1.0000
  O   O3        1.0  0.7405063850720602  0.2594935999138463  0.2594938057450224  1.0000
  O   O4        1.0  0.25949367273057306  0.7405063013959833  0.7405062701677076  1.0000
  O   O5        1.0  0.25949367532672923  0.7405063289634994  0.2594936946159734  1.0000
  O   O6        1.0  0.7405062153878859  0.25949368892393193  0.7405064243991911  1.0000
