data_image0
_chemical_formula_structural       V2GaS6
_chemical_formula_sum              "V2 Ga1 S6"
_cell_length_a       6.0648198567709075
_cell_length_b       6.064819834258482
_cell_length_c       6.064819907584085
_cell_angle_alpha    59.999997771450026
_cell_angle_beta     60.00000045251119
_cell_angle_gamma    59.999996971925036

_space_group_name_H-M_alt    "P 1"
_space_group_IT_number       1

loop_
  _space_group_symop_operation_xyz
  'x, y, z'

loop_
  _atom_site_type_symbol
  _atom_site_label
  _atom_site_symmetry_multiplicity
  _atom_site_fract_x
  _atom_site_fract_y
  _atom_site_fract_z
  _atom_site_occupancy
  V   V1        1.0  0.2500000857309046  0.25000019824959285  0.24999989323181826  1.0000
  V   V2        1.0  0.7499999203982999  0.7500000515234438  0.7500002153388424  1.0000
  Ga  Ga1       1.0  4.852224828349125e-08  0.9999999515337968  3.2949049913839334e-08  1.0000
  S   S1        1.0  0.26373240578306584  0.26373244015113023  0.7362675752408888  1.0000
  S   S2        1.0  0.7362675562918886  0.7362674905527563  0.2637323983115893  1.0000
  S   S3        1.0  0.7362675761373908  0.2637323909460211  0.26373236351894525  1.0000
  S   S4        1.0  0.26373235062734746  0.7362675942823427  0.7362675954798406  1.0000
  S   S5        1.0  0.26373249223087836  0.7362675246036511  0.2637322998279713  1.0000
  S   S6        1.0  0.7362675567914455  0.263732339459207  0.7362676487316555  1.0000
