data_image0
_chemical_formula_structural       V2GeSe6
_chemical_formula_sum              "V2 Ge1 Se6"
_cell_length_a       6.295318158743276
_cell_length_b       6.295313206546139
_cell_length_c       6.295317303496119
_cell_angle_alpha    60.000013909283595
_cell_angle_beta     60.00002625347704
_cell_angle_gamma    60.000056556712025

_space_group_name_H-M_alt    "P 1"
_space_group_IT_number       1

loop_
  _space_group_symop_operation_xyz
  'x, y, z'

loop_
  _atom_site_type_symbol
  _atom_site_label
  _atom_site_symmetry_multiplicity
  _atom_site_fract_x
  _atom_site_fract_y
  _atom_site_fract_z
  _atom_site_occupancy
  V   V1        1.0  0.2499990454550094  0.2500072052416706  0.2499924568559523  1.0000
  V   V2        1.0  0.7499910943414134  0.7500057133242092  0.7500144192999645  1.0000
  Ge  Ge1       1.0  8.121940268773473e-07  0.9999996984501345  0.9999996731962695  1.0000
  Se  Se1       1.0  0.27837418659931196  0.27836886027854085  0.7216290871767262  1.0000
  Se  Se2       1.0  0.72163104501974  0.7216246617938304  0.27836459339610253  1.0000
  Se  Se3       1.0  0.7216282464548581  0.2783717552000657  0.27837242746556723  1.0000
  Se  Se4       1.0  0.2783743494982834  0.7216241987309827  0.7216292497680409  1.0000
  Se  Se5       1.0  0.27837562896888823  0.7216265453864481  0.2783692964925686  1.0000
  Se  Se6       1.0  0.7216259609312835  0.2783711555896529  0.7216288968200268  1.0000
