data_image0
_chemical_formula_structural       V2GeS6
_chemical_formula_sum              "V2 Ge1 S6"
_cell_length_a       6.316900389904828
_cell_length_b       6.316900267484028
_cell_length_c       6.316900547960264
_cell_angle_alpha    59.99999678082418
_cell_angle_beta     59.99999884134638
_cell_angle_gamma    59.99999783177722

_space_group_name_H-M_alt    "P 1"
_space_group_IT_number       1

loop_
  _space_group_symop_operation_xyz
  'x, y, z'

loop_
  _atom_site_type_symbol
  _atom_site_label
  _atom_site_symmetry_multiplicity
  _atom_site_fract_x
  _atom_site_fract_y
  _atom_site_fract_z
  _atom_site_occupancy
  V   V1        1.0  0.2499998448723844  0.2500000876929626  0.25000007981251626  1.0000
  V   V2        1.0  0.7500000599656972  0.7499999373540307  0.7499999211641399  1.0000
  Ge  Ge1       1.0  0.999999932143921  1.1633030135838532e-08  6.293873094093945e-08  1.0000
  S   S1        1.0  0.2572188494791503  0.25721887613185296  0.74278117937995  1.0000
  S   S2        1.0  0.7427811702064283  0.7427811334044303  0.2572188985727  1.0000
  S   S3        1.0  0.7427810613619601  0.257218892031147  0.25721880812571085  1.0000
  S   S4        1.0  0.2572188840427948  0.7427810826060467  0.7427811835250157  1.0000
  S   S5        1.0  0.2572188683619142  0.7427810741842599  0.25721894764917275  1.0000
  S   S6        1.0  0.7427813311284946  0.2572189004529329  0.7427809565350976  1.0000
