data_image0
_chemical_formula_structural       V2HfO6
_chemical_formula_sum              "V2 Hf1 O6"
_cell_length_a       5.236554466705661
_cell_length_b       5.236554568654422
_cell_length_c       5.236554564616521
_cell_angle_alpha    60.00000116075956
_cell_angle_beta     60.0000002625041
_cell_angle_gamma    60.00000112566692

_space_group_name_H-M_alt    "P 1"
_space_group_IT_number       1

loop_
  _space_group_symop_operation_xyz
  'x, y, z'

loop_
  _atom_site_type_symbol
  _atom_site_label
  _atom_site_symmetry_multiplicity
  _atom_site_fract_x
  _atom_site_fract_y
  _atom_site_fract_z
  _atom_site_occupancy
  V   V1        1.0  0.25000008862501977  0.24999981528930654  0.24999992537444932  1.0000
  V   V2        1.0  0.7499999227197184  0.7500000188830305  0.7499999132676076  1.0000
  Hf  Hf1       1.0  0.9999999940306212  4.677674037530229e-09  0.9999999681817583  1.0000
  O   O1        1.0  0.2689359358463081  0.26893587853090534  0.7310641437691391  1.0000
  O   O2        1.0  0.7310640167370331  0.7310641848474784  0.2689359419301456  1.0000
  O   O3        1.0  0.7310641173484929  0.2689359146883721  0.26893585734759695  1.0000
  O   O4        1.0  0.26893591165587705  0.7310641112686168  0.7310642069422183  1.0000
  O   O5        1.0  0.26893584271385157  0.7310641536364898  0.26893592382010467  1.0000
  O   O6        1.0  0.7310641541047881  0.26893590272538215  0.7310641146249983  1.0000
