data_image0
_chemical_formula_structural       V2HfTe6
_chemical_formula_sum              "V2 Hf1 Te6"
_cell_length_a       7.322285355709182
_cell_length_b       7.322285446191818
_cell_length_c       7.322285430979175
_cell_angle_alpha    60.000000029846944
_cell_angle_beta     60.00000005975731
_cell_angle_gamma    60.00000046233653

_space_group_name_H-M_alt    "P 1"
_space_group_IT_number       1

loop_
  _space_group_symop_operation_xyz
  'x, y, z'

loop_
  _atom_site_type_symbol
  _atom_site_label
  _atom_site_symmetry_multiplicity
  _atom_site_fract_x
  _atom_site_fract_y
  _atom_site_fract_z
  _atom_site_occupancy
  V   V1        1.0  0.2499999677261786  0.25000000439047976  0.25000001114249426  1.0000
  V   V2        1.0  0.749999957544288  0.7500000014630539  0.7499999970761673  1.0000
  Hf  Hf1       1.0  2.7765036767901494e-08  0.999999949821205  1.8035348317452362e-08  1.0000
  Te  Te1       1.0  0.26658086579004225  0.2665807951181845  0.7334191796991661  1.0000
  Te  Te2       1.0  0.7334191499415216  0.7334191806280722  0.26658084614186933  1.0000
  Te  Te3       1.0  0.733419168140517  0.266580821896539  0.26658083531961135  1.0000
  Te  Te4       1.0  0.26658086611560683  0.7334192023558864  0.7334191433491215  1.0000
  Te  Te5       1.0  0.2665808308148697  0.7334192032669211  0.2665807980925812  1.0000
  Te  Te6       1.0  0.7334191663264843  0.2665808377117694  0.7334191784791597  1.0000
