data_image0
_chemical_formula_structural       V2HfS6
_chemical_formula_sum              "V2 Hf1 S6"
_cell_length_a       6.2548602296082425
_cell_length_b       6.254860460111146
_cell_length_c       6.254860353473513
_cell_angle_alpha    60.000001270574266
_cell_angle_beta     60.00000041221362
_cell_angle_gamma    59.99999990008512

_space_group_name_H-M_alt    "P 1"
_space_group_IT_number       1

loop_
  _space_group_symop_operation_xyz
  'x, y, z'

loop_
  _atom_site_type_symbol
  _atom_site_label
  _atom_site_symmetry_multiplicity
  _atom_site_fract_x
  _atom_site_fract_y
  _atom_site_fract_z
  _atom_site_occupancy
  V   V1        1.0  0.2499999581116935  0.2500000446329949  0.24999999770465703  1.0000
  V   V2        1.0  0.7500000230873978  0.749999981169598  0.7500000334726672  1.0000
  Hf  Hf1       1.0  2.8494379191808697e-08  0.9999999255933762  0.9999999941785012  1.0000
  S   S1        1.0  0.2700452943164225  0.27004542358283273  0.7299546073439286  1.0000
  S   S2        1.0  0.7299546965418161  0.7299546120101047  0.27004531018946354  1.0000
  S   S3        1.0  0.7299546747830792  0.27004533306023853  0.2700453885662873  1.0000
  S   S4        1.0  0.2700452690847976  0.7299546496648361  0.7299546524390252  1.0000
  S   S5        1.0  0.27004533553302584  0.7299546791647765  0.2700454238542987  1.0000
  S   S6        1.0  0.72995471732744  0.27004536426043635  0.7299545706748126  1.0000
