data_image0
_chemical_formula_structural       V2HfSe6
_chemical_formula_sum              "V2 Hf1 Se6"
_cell_length_a       6.641850316277681
_cell_length_b       6.641850358995732
_cell_length_c       6.641850409825231
_cell_angle_alpha    60.000000166324924
_cell_angle_beta     60.00000129936784
_cell_angle_gamma    60.00000164427065

_space_group_name_H-M_alt    "P 1"
_space_group_IT_number       1

loop_
  _space_group_symop_operation_xyz
  'x, y, z'

loop_
  _atom_site_type_symbol
  _atom_site_label
  _atom_site_symmetry_multiplicity
  _atom_site_fract_x
  _atom_site_fract_y
  _atom_site_fract_z
  _atom_site_occupancy
  V   V1        1.0  0.2500000603393885  0.25000012147736705  0.24999991699662513  1.0000
  V   V2        1.0  0.7499999348262381  0.749999720882583  0.7500000814346492  1.0000
  Hf  Hf1       1.0  1.3835805670338206e-08  1.2539073651471485e-07  0.9999999875997012  1.0000
  Se  Se1       1.0  0.2700473780823365  0.2700475235142801  0.7299525235747579  1.0000
  Se  Se2       1.0  0.7299524447736534  0.7299524811160323  0.2700475747292369  1.0000
  Se  Se3       1.0  0.7299524683462352  0.27004753225398  0.2700474932118064  1.0000
  Se  Se4       1.0  0.27004767053517215  0.7299524318087456  0.729952461340859  1.0000
  Se  Se5       1.0  0.2700475294238096  0.7299524290015954  0.27004750209354994  1.0000
  Se  Se6       1.0  0.729952503353454  0.2700476291041811  0.7299524569840562  1.0000
