data_image0
_chemical_formula_structural       V2IrO6
_chemical_formula_sum              "V2 Ir1 O6"
_cell_length_a       5.146428431507462
_cell_length_b       5.146428308972931
_cell_length_c       5.146428492940329
_cell_angle_alpha    59.999999156791326
_cell_angle_beta     60.000000005383036
_cell_angle_gamma    60.00000019910292

_space_group_name_H-M_alt    "P 1"
_space_group_IT_number       1

loop_
  _space_group_symop_operation_xyz
  'x, y, z'

loop_
  _atom_site_type_symbol
  _atom_site_label
  _atom_site_symmetry_multiplicity
  _atom_site_fract_x
  _atom_site_fract_y
  _atom_site_fract_z
  _atom_site_occupancy
  V   V1        1.0  0.2500001028103738  0.2500000753346443  0.24999985471777825  1.0000
  V   V2        1.0  0.7500002813086624  0.7499998833133285  0.7500000346948457  1.0000
  Ir  Ir1       1.0  0.9999999854723715  1.6658571053213127e-08  6.305666712443554e-08  1.0000
  O   O1        1.0  0.2563729193830569  0.2563731365899781  0.7436269301269347  1.0000
  O   O2        1.0  0.7436269920633223  0.7436269005912524  0.25637297564754313  1.0000
  O   O3        1.0  0.7436269173072797  0.25637309164456673  0.25637299483793446  1.0000
  O   O4        1.0  0.2563729715894185  0.7436269122195216  0.7436270029920931  1.0000
  O   O5        1.0  0.25637296057345715  0.7436270134136422  0.25637308981957435  1.0000
  O   O6        1.0  0.7436268593131704  0.2563729618928952  0.7436270792092552  1.0000
