data_image0
_chemical_formula_structural       V2IrS6
_chemical_formula_sum              "V2 Ir1 S6"
_cell_length_a       6.069210470808231
_cell_length_b       6.069210232135936
_cell_length_c       6.069210276058945
_cell_angle_alpha    60.00000008923616
_cell_angle_beta     60.000000994652304
_cell_angle_gamma    60.00000098546994

_space_group_name_H-M_alt    "P 1"
_space_group_IT_number       1

loop_
  _space_group_symop_operation_xyz
  'x, y, z'

loop_
  _atom_site_type_symbol
  _atom_site_label
  _atom_site_symmetry_multiplicity
  _atom_site_fract_x
  _atom_site_fract_y
  _atom_site_fract_z
  _atom_site_occupancy
  V   V1        1.0  0.25000005771985107  0.250000003778469  0.25000002609066396  1.0000
  V   V2        1.0  0.7499999387990915  0.7500000294970799  0.7500000446725553  1.0000
  Ir  Ir1       1.0  1.925636612652308e-08  0.9999999878922153  0.9999999898350659  1.0000
  S   S1        1.0  0.26590266875422  0.2659027360205261  0.7340973037311087  1.0000
  S   S2        1.0  0.7340974325404445  0.7340972568957411  0.26590268045108334  1.0000
  S   S3        1.0  0.7340972083310038  0.265902712385818  0.26590269753680196  1.0000
  S   S4        1.0  0.2659026925029561  0.7340973168538004  0.7340972599684524  1.0000
  S   S5        1.0  0.2659027283576279  0.7340973129733781  0.26590263862895225  1.0000
  S   S6        1.0  0.7340972647222347  0.26590266783510197  0.7340973035595632  1.0000
