data_image0
_chemical_formula_structural       V2IrO6
_chemical_formula_sum              "V2 Ir1 O6"
_cell_length_a       5.146488647061989
_cell_length_b       5.146488698675238
_cell_length_c       5.146488810511644
_cell_angle_alpha    59.99999921530091
_cell_angle_beta     59.9999985534507
_cell_angle_gamma    59.99999905181955

_space_group_name_H-M_alt    "P 1"
_space_group_IT_number       1

loop_
  _space_group_symop_operation_xyz
  'x, y, z'

loop_
  _atom_site_type_symbol
  _atom_site_label
  _atom_site_symmetry_multiplicity
  _atom_site_fract_x
  _atom_site_fract_y
  _atom_site_fract_z
  _atom_site_occupancy
  V   V1        1.0  0.2500001307382015  0.2500001492853062  0.24999967350259622  1.0000
  V   V2        1.0  0.7500003347699337  0.7500000480549053  0.7499997562725089  1.0000
  Ir  Ir1       1.0  0.9999999935412021  0.9999999857213924  2.3970209108813405e-08  1.0000
  O   O1        1.0  0.2563690888723058  0.25636939147638765  0.7436307899206313  1.0000
  O   O2        1.0  0.7436307565011443  0.7436307344707892  0.2563692634776787  1.0000
  O   O3        1.0  0.7436307443728031  0.2563691387633336  0.2563693854069269  1.0000
  O   O4        1.0  0.2563691740736031  0.7436306064209725  0.7436309015023059  1.0000
  O   O5        1.0  0.25636913790375004  0.7436307678799137  0.2563693578110956  1.0000
  O   O6        1.0  0.7436306467118995  0.2563692105216513  0.7436308522018737  1.0000
