data_image0
_chemical_formula_structural       V2IrS6
_chemical_formula_sum              "V2 Ir1 S6"
_cell_length_a       6.069123140630872
_cell_length_b       6.069123174004468
_cell_length_c       6.0691232209154515
_cell_angle_alpha    59.99999916315106
_cell_angle_beta     59.99999868479118
_cell_angle_gamma    59.999998465589684

_space_group_name_H-M_alt    "P 1"
_space_group_IT_number       1

loop_
  _space_group_symop_operation_xyz
  'x, y, z'

loop_
  _atom_site_type_symbol
  _atom_site_label
  _atom_site_symmetry_multiplicity
  _atom_site_fract_x
  _atom_site_fract_y
  _atom_site_fract_z
  _atom_site_occupancy
  V   V1        1.0  0.24999996192508583  0.25000000429696767  0.2500000140573752  1.0000
  V   V2        1.0  0.7499999739865041  0.7499999765670259  0.7500000211714939  1.0000
  Ir  Ir1       1.0  0.9999998950117467  1.8161939295064613e-08  4.835621102071345e-08  1.0000
  S   S1        1.0  0.26590705004288545  0.2659070350993753  0.7340929082113171  1.0000
  S   S2        1.0  0.7340929791908416  0.7340929740165213  0.26590700856157523  1.0000
  S   S3        1.0  0.734093046229511  0.2659070064070018  0.26590704034705587  1.0000
  S   S4        1.0  0.26590710603899637  0.7340929361151199  0.7340929272941872  1.0000
  S   S5        1.0  0.26590706957932564  0.7340929780068312  0.26590706369340494  1.0000
  S   S6        1.0  0.7340929417232838  0.2659070734869209  0.7340929413648702  1.0000
