data_image0
_chemical_formula_structural       V2IrSe6
_chemical_formula_sum              "V2 Ir1 Se6"
_cell_length_a       6.392051588102625
_cell_length_b       6.3920511710383545
_cell_length_c       6.392052095811821
_cell_angle_alpha    59.999999671142845
_cell_angle_beta     59.99999340659849
_cell_angle_gamma    59.9999965246705

_space_group_name_H-M_alt    "P 1"
_space_group_IT_number       1

loop_
  _space_group_symop_operation_xyz
  'x, y, z'

loop_
  _atom_site_type_symbol
  _atom_site_label
  _atom_site_symmetry_multiplicity
  _atom_site_fract_x
  _atom_site_fract_y
  _atom_site_fract_z
  _atom_site_occupancy
  V   V1        1.0  0.2500001677439613  0.25000016533305547  0.24999987069902876  1.0000
  V   V2        1.0  0.7499999448661153  0.7499996835966651  0.7500000362192597  1.0000
  Ir  Ir1       1.0  8.959692907831657e-08  0.9999997854031153  7.657995327201096e-08  1.0000
  Se  Se1       1.0  0.2710559918442045  0.27105565471362586  0.7289437857070251  1.0000
  Se  Se2       1.0  0.7289443954643526  0.7289438090912922  0.27105566954492993  1.0000
  Se  Se3       1.0  0.7289442888497325  0.271055802446824  0.271055800710336  1.0000
  Se  Se4       1.0  0.271055732413331  0.7289441633615842  0.728944492375041  1.0000
  Se  Se5       1.0  0.27105575712934776  0.7289444475957149  0.27105583259231053  1.0000
  Se  Se6       1.0  0.7289436602297428  0.27105646282221146  0.7289444403268543  1.0000
