data_image0
_chemical_formula_structural       V2MnTe6
_chemical_formula_sum              "V2 Mn1 Te6"
_cell_length_a       6.901554840783942
_cell_length_b       6.90155478351692
_cell_length_c       6.901554781898545
_cell_angle_alpha    59.99999921783181
_cell_angle_beta     60.000000313135594
_cell_angle_gamma    59.99999940485851

_space_group_name_H-M_alt    "P 1"
_space_group_IT_number       1

loop_
  _space_group_symop_operation_xyz
  'x, y, z'

loop_
  _atom_site_type_symbol
  _atom_site_label
  _atom_site_symmetry_multiplicity
  _atom_site_fract_x
  _atom_site_fract_y
  _atom_site_fract_z
  _atom_site_occupancy
  V   V1        1.0  0.24999999704431247  0.2500000792754988  0.24999994433001563  1.0000
  V   V2        1.0  0.7499999440716648  0.7499999272727705  0.7500000639597071  1.0000
  Mn  Mn1       1.0  2.690296043628511e-08  1.1002474858432954e-07  0.9999999040061163  1.0000
  Te  Te1       1.0  0.25510501496306187  0.25510498348724225  0.7448950164237648  1.0000
  Te  Te2       1.0  0.7448949930277455  0.7448949378805764  0.2551050502830304  1.0000
  Te  Te3       1.0  0.7448949836446376  0.2551050489333955  0.2551049963319239  1.0000
  Te  Te4       1.0  0.25510501545579267  0.7448949292213903  0.7448950073049564  1.0000
  Te  Te5       1.0  0.2551050476728654  0.7448949425374948  0.2551050333137667  1.0000
  Te  Te6       1.0  0.7448949807488889  0.25510504803943973  0.7448949798793032  1.0000
