data_image0
_chemical_formula_structural       V2MnO6
_chemical_formula_sum              "V2 Mn1 O6"
_cell_length_a       4.991045856570277
_cell_length_b       4.991045921195394
_cell_length_c       4.991045840682659
_cell_angle_alpha    59.99999998395894
_cell_angle_beta     59.99999924618972
_cell_angle_gamma    60.000000509047595

_space_group_name_H-M_alt    "P 1"
_space_group_IT_number       1

loop_
  _space_group_symop_operation_xyz
  'x, y, z'

loop_
  _atom_site_type_symbol
  _atom_site_label
  _atom_site_symmetry_multiplicity
  _atom_site_fract_x
  _atom_site_fract_y
  _atom_site_fract_z
  _atom_site_occupancy
  V   V1        1.0  0.249999960751405  0.25000005700606204  0.2499999342942951  1.0000
  V   V2        1.0  0.750000035910564  0.7499999182681154  0.7500000026988531  1.0000
  Mn  Mn1       1.0  4.743350711658443e-09  3.4354378772929495e-08  0.9999999383757852  1.0000
  O   O1        1.0  0.2526104294778459  0.25261038955406456  0.7473896637941183  1.0000
  O   O2        1.0  0.7473895701512101  0.7473896323439119  0.25261035259016745  1.0000
  O   O3        1.0  0.7473896550195699  0.2526104491354645  0.25261033469249333  1.0000
  O   O4        1.0  0.2526103683303658  0.7473895015998706  0.7473897374700826  1.0000
  O   O5        1.0  0.2526103045835043  0.7473895668776607  0.252610486257535  1.0000
  O   O6        1.0  0.7473896810239461  0.25261046238196844  0.7473895454782558  1.0000
