data_image0
_chemical_formula_structural       V2MnSe6
_chemical_formula_sum              "V2 Mn1 Se6"
_cell_length_a       6.48613723707717
_cell_length_b       6.486137359294611
_cell_length_c       6.486137425061795
_cell_angle_alpha    60.00000004902148
_cell_angle_beta     59.9999970447594
_cell_angle_gamma    59.999998034191876

_space_group_name_H-M_alt    "P 1"
_space_group_IT_number       1

loop_
  _space_group_symop_operation_xyz
  'x, y, z'

loop_
  _atom_site_type_symbol
  _atom_site_label
  _atom_site_symmetry_multiplicity
  _atom_site_fract_x
  _atom_site_fract_y
  _atom_site_fract_z
  _atom_site_occupancy
  V   V1        1.0  0.2500001278679438  0.2500002058770978  0.24999993453045236  1.0000
  V   V2        1.0  0.7499999904323089  0.7499997943543039  0.7499997504050236  1.0000
  Mn  Mn1       1.0  0.9999999331431445  0.9999998961462511  0.9999999481395856  1.0000
  Se  Se1       1.0  0.2543874378342855  0.2543874963582489  0.7456125197735806  1.0000
  Se  Se2       1.0  0.7456125310289909  0.7456126851451589  0.25438759789352666  1.0000
  Se  Se3       1.0  0.7456125014833536  0.25438753811799925  0.25438735609995733  1.0000
  Se  Se4       1.0  0.2543875319568062  0.7456125244256577  0.7456127132128504  1.0000
  Se  Se5       1.0  0.2543872450472036  0.7456124694844104  0.25438757372641374  1.0000
  Se  Se6       1.0  0.7456127255656367  0.254387402346  0.7456125884381853  1.0000
