data_image0
_chemical_formula_structural       V2MnS6
_chemical_formula_sum              "V2 Mn1 S6"
_cell_length_a       6.018599692731561
_cell_length_b       6.018599980561194
_cell_length_c       6.018600264105576
_cell_angle_alpha    60.000000304379526
_cell_angle_beta     59.99999851862693
_cell_angle_gamma    60.000005902308494

_space_group_name_H-M_alt    "P 1"
_space_group_IT_number       1

loop_
  _space_group_symop_operation_xyz
  'x, y, z'

loop_
  _atom_site_type_symbol
  _atom_site_label
  _atom_site_symmetry_multiplicity
  _atom_site_fract_x
  _atom_site_fract_y
  _atom_site_fract_z
  _atom_site_occupancy
  V   V1        1.0  0.24999978661075822  0.25000052591195815  0.24999965233127858  1.0000
  V   V2        1.0  0.7499998970282318  0.7499992294231134  0.7500003992218455  1.0000
  Mn  Mn1       1.0  0.999999904305087  0.9999999877903983  2.267499089589385e-07  1.0000
  S   S1        1.0  0.2576904084862255  0.2576902977246317  0.7423096347945357  1.0000
  S   S2        1.0  0.7423097836424776  0.7423097221517765  0.25769024624014  1.0000
  S   S3        1.0  0.7423096910400472  0.25769066256125434  0.2576902425228813  1.0000
  S   S4        1.0  0.25769045089705883  0.7423093064418251  0.742309825288559  1.0000
  S   S5        1.0  0.25769035571339677  0.742309665534067  0.25769038784639536  1.0000
  S   S6        1.0  0.7423096757953727  0.2576905944644377  0.7423094550987159  1.0000
