data_image0
_chemical_formula_structural       V2MoS6
_chemical_formula_sum              "V2 Mo1 S6"
_cell_length_a       6.284716367985748
_cell_length_b       6.284715669848449
_cell_length_c       6.284716939058048
_cell_angle_alpha    59.99999472836569
_cell_angle_beta     59.99999153656909
_cell_angle_gamma    59.99999622028148

_space_group_name_H-M_alt    "P 1"
_space_group_IT_number       1

loop_
  _space_group_symop_operation_xyz
  'x, y, z'

loop_
  _atom_site_type_symbol
  _atom_site_label
  _atom_site_symmetry_multiplicity
  _atom_site_fract_x
  _atom_site_fract_y
  _atom_site_fract_z
  _atom_site_occupancy
  V   V1        1.0  0.24999939243454278  0.2499999709551493  0.2500001452498075  1.0000
  V   V2        1.0  0.7499994775240562  0.7500002012831182  0.7500011514426419  1.0000
  Mo  Mo1       1.0  6.898043755137713e-08  1.4031126855076463e-07  1.6426044899816875e-07  1.0000
  S   S1        1.0  0.26080753349432734  0.26080712694871994  0.7391927908322405  1.0000
  S   S2        1.0  0.7391926410255115  0.7391923671184587  0.26080698974693406  1.0000
  S   S3        1.0  0.7391930543381304  0.2608073108412308  0.26080728291848354  1.0000
  S   S4        1.0  0.26080768029846446  0.7391924541046468  0.7391923192460155  1.0000
  S   S5        1.0  0.26080765640877895  0.7391927094259627  0.2608069812276351  1.0000
  S   S6        1.0  0.7391924799027602  0.2608076323550539  0.7391922323003021  1.0000
