data_image0
_chemical_formula_structural       V2MoO6
_chemical_formula_sum              "V2 Mo1 O6"
_cell_length_a       5.221182984269285
_cell_length_b       5.221182996929383
_cell_length_c       5.221182833497286
_cell_angle_alpha    59.99999938732074
_cell_angle_beta     60.00000058603049
_cell_angle_gamma    60.00000015127863

_space_group_name_H-M_alt    "P 1"
_space_group_IT_number       1

loop_
  _space_group_symop_operation_xyz
  'x, y, z'

loop_
  _atom_site_type_symbol
  _atom_site_label
  _atom_site_symmetry_multiplicity
  _atom_site_fract_x
  _atom_site_fract_y
  _atom_site_fract_z
  _atom_site_occupancy
  V   V1        1.0  0.250000141408339  0.25000004392210823  0.24999990797652963  1.0000
  V   V2        1.0  0.7499997677685336  0.7500001505321036  0.75000017684418  1.0000
  Mo  Mo1       1.0  2.093131770884995e-08  2.345723008686224e-08  0.9999999490766035  1.0000
  O   O1        1.0  0.2572580223059121  0.25725807274013374  0.7427419517155238  1.0000
  O   O2        1.0  0.7427419797377806  0.7427419293648005  0.2572579530134385  1.0000
  O   O3        1.0  0.7427419280380073  0.2572579872138439  0.25725808686977847  1.0000
  O   O4        1.0  0.2572580965468532  0.7427419539022915  0.7427419615758633  1.0000
  O   O5        1.0  0.2572580972762884  0.7427419106896636  0.25725800900646745  1.0000
  O   O6        1.0  0.7427419470134344  0.25725792486894006  0.7427420306530902  1.0000
