data_image0
_chemical_formula_structural       V2MoSe6
_chemical_formula_sum              "V2 Mo1 Se6"
_cell_length_a       6.808223634364107
_cell_length_b       6.808223619660805
_cell_length_c       6.808223866950352
_cell_angle_alpha    60.000000236079124
_cell_angle_beta     60.0000001735218
_cell_angle_gamma    60.00000282457833

_space_group_name_H-M_alt    "P 1"
_space_group_IT_number       1

loop_
  _space_group_symop_operation_xyz
  'x, y, z'

loop_
  _atom_site_type_symbol
  _atom_site_label
  _atom_site_symmetry_multiplicity
  _atom_site_fract_x
  _atom_site_fract_y
  _atom_site_fract_z
  _atom_site_occupancy
  V   V1        1.0  0.2500000819789463  0.249999983836977  0.2499999820424708  1.0000
  V   V2        1.0  0.7499998679554093  0.7500002357402558  0.7500000943514831  1.0000
  Mo  Mo1       1.0  0.999999955115263  0.9999999820108011  1.0634637252318422e-07  1.0000
  Se  Se1       1.0  0.25412403285950613  0.2541238820671202  0.7458760100601359  1.0000
  Se  Se2       1.0  0.7458760100190297  0.7458760586775359  0.2541238346705916  1.0000
  Se  Se3       1.0  0.745875960152414  0.2541239339733246  0.254124053434592  1.0000
  Se  Se4       1.0  0.25412396499698736  0.7458760139670094  0.7458760213514748  1.0000
  Se  Se5       1.0  0.25412409130479113  0.7458759921849986  0.2541239724698677  1.0000
  Se  Se6       1.0  0.7458760425778026  0.25412391977694376  0.745875921934841  1.0000
