data_image0
_chemical_formula_structural       V2MoO6
_chemical_formula_sum              "V2 Mo1 O6"
_cell_length_a       5.22122236408729
_cell_length_b       5.221222462279213
_cell_length_c       5.221222414514581
_cell_angle_alpha    60.0000000381495
_cell_angle_beta     59.9999998647126
_cell_angle_gamma    60.00000155750468

_space_group_name_H-M_alt    "P 1"
_space_group_IT_number       1

loop_
  _space_group_symop_operation_xyz
  'x, y, z'

loop_
  _atom_site_type_symbol
  _atom_site_label
  _atom_site_symmetry_multiplicity
  _atom_site_fract_x
  _atom_site_fract_y
  _atom_site_fract_z
  _atom_site_occupancy
  V   V1        1.0  0.24999965719783165  0.2500002267984724  0.25000014647746427  1.0000
  V   V2        1.0  0.7499998527881694  0.7499998547072048  0.7500000611865303  1.0000
  Mo  Mo1       1.0  0.9999999888311026  0.9999999671601272  1.8173864535152925e-08  1.0000
  O   O1        1.0  0.25725719188966917  0.25725706047892805  0.7427428000150914  1.0000
  O   O2        1.0  0.7427429436782015  0.7427428427531635  0.2572571820795021  1.0000
  O   O3        1.0  0.7427429848951996  0.2572572066513265  0.25725705184846004  1.0000
  O   O4        1.0  0.257257176448467  0.7427428912742957  0.742742873638758  1.0000
  O   O5        1.0  0.2572571854285826  0.7427427687453749  0.25725704822714723  1.0000
  O   O6        1.0  0.7427429886056963  0.2572572048578729  0.7427428392281977  1.0000
