data_image0
_chemical_formula_structural       V2MoS6
_chemical_formula_sum              "V2 Mo1 S6"
_cell_length_a       6.284733111757448
_cell_length_b       6.28473241186818
_cell_length_c       6.284732500997038
_cell_angle_alpha    60.000005392555664
_cell_angle_beta     60.000001865496486
_cell_angle_gamma    60.00000020846166

_space_group_name_H-M_alt    "P 1"
_space_group_IT_number       1

loop_
  _space_group_symop_operation_xyz
  'x, y, z'

loop_
  _atom_site_type_symbol
  _atom_site_label
  _atom_site_symmetry_multiplicity
  _atom_site_fract_x
  _atom_site_fract_y
  _atom_site_fract_z
  _atom_site_occupancy
  V   V1        1.0  0.2500002098588193  0.24999966192124093  0.2499997638717501  1.0000
  V   V2        1.0  0.7499996974989116  0.7500003323584128  0.750000234763706  1.0000
  Mo  Mo1       1.0  2.3081984769983127e-07  0.9999996823517773  2.750259489975605e-08  1.0000
  S   S1        1.0  0.26080752447008826  0.26080688508607625  0.7391929614821144  1.0000
  S   S2        1.0  0.739192653768259  0.7391932280680671  0.26080692183367205  1.0000
  S   S3        1.0  0.739192856945253  0.2608070323258375  0.26080755265763805  1.0000
  S   S4        1.0  0.26080718519229346  0.739192574150169  0.7391926870530638  1.0000
  S   S5        1.0  0.2608071570547377  0.7391929316238739  0.26080737719019603  1.0000
  S   S6        1.0  0.7391924905254114  0.26080774277374763  0.7391923969546812  1.0000
