data_image0
_chemical_formula_structural       V2MoSe6
_chemical_formula_sum              "V2 Mo1 Se6"
_cell_length_a       6.808267927290287
_cell_length_b       6.8082677856813225
_cell_length_c       6.808267793851862
_cell_angle_alpha    59.99999988294651
_cell_angle_beta     60.00000031496895
_cell_angle_gamma    59.999998259266505

_space_group_name_H-M_alt    "P 1"
_space_group_IT_number       1

loop_
  _space_group_symop_operation_xyz
  'x, y, z'

loop_
  _atom_site_type_symbol
  _atom_site_label
  _atom_site_symmetry_multiplicity
  _atom_site_fract_x
  _atom_site_fract_y
  _atom_site_fract_z
  _atom_site_occupancy
  V   V1        1.0  0.2500000385005412  0.24999999284111724  0.24999997372304955  1.0000
  V   V2        1.0  0.7500001982014808  0.749999643926423  0.7500001014633727  1.0000
  Mo  Mo1       1.0  0.9999999997412804  1.0253776805201257e-07  0.9999998093242487  1.0000
  Se  Se1       1.0  0.2541218918278263  0.25412208320155666  0.7458780228811458  1.0000
  Se  Se2       1.0  0.7458779674565016  0.745878075249371  0.2541219419835683  1.0000
  Se  Se3       1.0  0.7458780520380371  0.254122042974499  0.2541218924137054  1.0000
  Se  Se4       1.0  0.25412184234844787  0.7458781424600514  0.7458781001602143  1.0000
  Se  Se5       1.0  0.2541219298787083  0.7458779407940684  0.25412203491112056  1.0000
  Se  Se6       1.0  0.7458780793968398  0.25412197120643193  0.7458781177194238  1.0000
