data_image0
_chemical_formula_structural       V2NbS6
_chemical_formula_sum              "V2 Nb1 S6"
_cell_length_a       6.279058510864701
_cell_length_b       6.279058575587157
_cell_length_c       6.279058517360098
_cell_angle_alpha    60.000000120397054
_cell_angle_beta     60.00000059315259
_cell_angle_gamma    60.00000022573503

_space_group_name_H-M_alt    "P 1"
_space_group_IT_number       1

loop_
  _space_group_symop_operation_xyz
  'x, y, z'

loop_
  _atom_site_type_symbol
  _atom_site_label
  _atom_site_symmetry_multiplicity
  _atom_site_fract_x
  _atom_site_fract_y
  _atom_site_fract_z
  _atom_site_occupancy
  V   V1        1.0  0.250000004844042  0.2500000098415201  0.24999999688586438  1.0000
  V   V2        1.0  0.7499999508374607  0.7499999944151451  0.7499999890965791  1.0000
  Nb  Nb1       1.0  4.012598946569138e-09  0.999999982445292  6.888227698308107e-08  1.0000
  S   S1        1.0  0.264958983179666  0.26495899237441806  0.7350410007857214  1.0000
  S   S2        1.0  0.7350410731448881  0.7350409416634159  0.26495897157720766  1.0000
  S   S3        1.0  0.7350410446844166  0.26495896751817566  0.26495899312768195  1.0000
  S   S4        1.0  0.2649590495700715  0.7350410347879662  0.7350409229509356  1.0000
  S   S5        1.0  0.2649589817549218  0.7350410251923393  0.26495900401262085  1.0000
  S   S6        1.0  0.7350409279140327  0.2649590453821104  0.7350410323358308  1.0000
