data_image0
_chemical_formula_structural       V2NbTe6
_chemical_formula_sum              "V2 Nb1 Te6"
_cell_length_a       7.263688970117578
_cell_length_b       7.263688953843645
_cell_length_c       7.263688991343894
_cell_angle_alpha    60.00000013752367
_cell_angle_beta     59.99999970939055
_cell_angle_gamma    59.999999822074585

_space_group_name_H-M_alt    "P 1"
_space_group_IT_number       1

loop_
  _space_group_symop_operation_xyz
  'x, y, z'

loop_
  _atom_site_type_symbol
  _atom_site_label
  _atom_site_symmetry_multiplicity
  _atom_site_fract_x
  _atom_site_fract_y
  _atom_site_fract_z
  _atom_site_occupancy
  V   V1        1.0  0.25000002021593715  0.24999999483339763  0.25000000843107445  1.0000
  V   V2        1.0  0.749999982416969  0.7499999187415263  0.7500000408428298  1.0000
  Nb  Nb1       1.0  0.9999999818714967  0.9999999780804446  3.929798226249743e-08  1.0000
  Te  Te1       1.0  0.2622532624290531  0.26225331677262986  0.7377467035572529  1.0000
  Te  Te2       1.0  0.7377467030926755  0.7377467367502255  0.26225328741472004  1.0000
  Te  Te3       1.0  0.7377466989595173  0.2622533132124525  0.2622532447321905  1.0000
  Te  Te4       1.0  0.2622533283837604  0.7377467217630864  0.7377466998218694  1.0000
  Te  Te5       1.0  0.26225333569995174  0.7377466978332053  0.2622532537536822  1.0000
  Te  Te6       1.0  0.7377466898773201  0.2622533185950174  0.7377467257378355  1.0000
