data_image0
_chemical_formula_structural       V2NbO6
_chemical_formula_sum              "V2 Nb1 O6"
_cell_length_a       5.224523311600615
_cell_length_b       5.2245234235024185
_cell_length_c       5.22452318832416
_cell_angle_alpha    59.99999918942461
_cell_angle_beta     59.99999805988044
_cell_angle_gamma    59.999998850988014

_space_group_name_H-M_alt    "P 1"
_space_group_IT_number       1

loop_
  _space_group_symop_operation_xyz
  'x, y, z'

loop_
  _atom_site_type_symbol
  _atom_site_label
  _atom_site_symmetry_multiplicity
  _atom_site_fract_x
  _atom_site_fract_y
  _atom_site_fract_z
  _atom_site_occupancy
  V   V1        1.0  0.24999978488635843  0.25000026638644607  0.24999989134782524  1.0000
  V   V2        1.0  0.7500002250316011  0.7499997395704543  0.7500003237262326  1.0000
  Nb  Nb1       1.0  0.9999999923429939  0.9999999765577688  0.9999999906669658  1.0000
  O   O1        1.0  0.26482647307101304  0.26482637742917176  0.7351735994758299  1.0000
  O   O2        1.0  0.7351735979958867  0.7351735511683687  0.26482631745539537  1.0000
  O   O3        1.0  0.7351737190059163  0.2648264731250608  0.26482632597221806  1.0000
  O   O4        1.0  0.26482621199381406  0.7351735375202915  0.7351736199686874  1.0000
  O   O5        1.0  0.2648264444781281  0.7351735285368289  0.2648263642929131  1.0000
  O   O6        1.0  0.7351735809989849  0.26482655009099343  0.7351735482693195  1.0000
