data_image0
_chemical_formula_structural       V2NbSe6
_chemical_formula_sum              "V2 Nb1 Se6"
_cell_length_a       6.725897842695697
_cell_length_b       6.72589774751527
_cell_length_c       6.725897786570434
_cell_angle_alpha    60.00000106311218
_cell_angle_beta     60.00000095124093
_cell_angle_gamma    60.00000173371094

_space_group_name_H-M_alt    "P 1"
_space_group_IT_number       1

loop_
  _space_group_symop_operation_xyz
  'x, y, z'

loop_
  _atom_site_type_symbol
  _atom_site_label
  _atom_site_symmetry_multiplicity
  _atom_site_fract_x
  _atom_site_fract_y
  _atom_site_fract_z
  _atom_site_occupancy
  V   V1        1.0  0.2500000693681975  0.24999999530577888  0.2500000050179914  1.0000
  V   V2        1.0  0.7499997837758349  0.7500001206668057  0.7500001598436175  1.0000
  Nb  Nb1       1.0  0.9999999914160121  3.4445444292443714e-16  4.4435333458866365e-08  1.0000
  Se  Se1       1.0  0.26016543730554814  0.2601654343317982  0.7398344911736797  1.0000
  Se  Se2       1.0  0.7398345927758404  0.739834495905022  0.2601653718083178  1.0000
  Se  Se3       1.0  0.7398345314645831  0.2601654311948568  0.26016542769566686  1.0000
  Se  Se4       1.0  0.2601654757598637  0.7398345573120085  0.7398345915342516  1.0000
  Se  Se5       1.0  0.2601655450467116  0.7398345662780457  0.26016532275615634  1.0000
  Se  Se6       1.0  0.7398345681342149  0.26016538763098207  0.7398345909152946  1.0000
