data_image0
_chemical_formula_structural       V2NiO6
_chemical_formula_sum              "V2 Ni1 O6"
_cell_length_a       4.897312263175781
_cell_length_b       4.897312418959016
_cell_length_c       4.897312261121754
_cell_angle_alpha    60.000000136094975
_cell_angle_beta     60.00000040800544
_cell_angle_gamma    60.00000117533082

_space_group_name_H-M_alt    "P 1"
_space_group_IT_number       1

loop_
  _space_group_symop_operation_xyz
  'x, y, z'

loop_
  _atom_site_type_symbol
  _atom_site_label
  _atom_site_symmetry_multiplicity
  _atom_site_fract_x
  _atom_site_fract_y
  _atom_site_fract_z
  _atom_site_occupancy
  V   V1        1.0  0.2499997482735879  0.2500003034439502  0.25000000364320624  1.0000
  V   V2        1.0  0.7500001149773763  0.7499995023527463  0.7500002675892589  1.0000
  Ni  Ni1       1.0  2.5960614363306463e-08  0.9999999574855323  8.58705089265748e-08  1.0000
  O   O1        1.0  0.2532408511519239  0.25324111023551593  0.7467590466386667  1.0000
  O   O2        1.0  0.746759172308445  0.7467589081335189  0.25324080133830734  1.0000
  O   O3        1.0  0.7467590253523996  0.25324111107384034  0.25324094757033283  1.0000
  O   O4        1.0  0.25324096421572595  0.7467589948249775  0.7467589920201799  1.0000
  O   O5        1.0  0.25324108433798015  0.7467588832232516  0.2532408882123101  1.0000
  O   O6        1.0  0.7467590290997402  0.2532411976670574  0.7467589590669965  1.0000
