data_image0
_chemical_formula_structural       V2NO6
_chemical_formula_sum              "V2 N1 O6"
_cell_length_a       4.6419814252316325
_cell_length_b       4.641981030505677
_cell_length_c       4.64198160244743
_cell_angle_alpha    59.99999494913918
_cell_angle_beta     59.999996184973206
_cell_angle_gamma    59.999994977941135

_space_group_name_H-M_alt    "P 1"
_space_group_IT_number       1

loop_
  _space_group_symop_operation_xyz
  'x, y, z'

loop_
  _atom_site_type_symbol
  _atom_site_label
  _atom_site_symmetry_multiplicity
  _atom_site_fract_x
  _atom_site_fract_y
  _atom_site_fract_z
  _atom_site_occupancy
  V   V1        1.0  0.2499999375044992  0.2500010326241877  0.24999894574789117  1.0000
  V   V2        1.0  0.7499994034632829  0.7499996758547004  0.7499992504100493  1.0000
  N   N1        1.0  1.795279945759781e-07  2.1107280211645904e-08  0.99999950545417  1.0000
  O   O1        1.0  0.24515338756809976  0.2451533201748889  0.754846880342469  1.0000
  O   O2        1.0  0.7548467488968427  0.75484624059561  0.2451539391518033  1.0000
  O   O3        1.0  0.7548463746572844  0.24515356064273028  0.24515373830303014  1.0000
  O   O4        1.0  0.24515364903281323  0.7548464354654311  0.7548470879415198  1.0000
  O   O5        1.0  0.24515363906527168  0.7548461987271163  0.245153732812639  1.0000
  O   O6        1.0  0.7548466237326632  0.24515352034798638  0.7548469594425986  1.0000
