data_image0
_chemical_formula_structural       V2NO6
_chemical_formula_sum              "V2 N1 O6"
_cell_length_a       4.641932700384004
_cell_length_b       4.641933323188949
_cell_length_c       4.641932840225071
_cell_angle_alpha    59.99999663644485
_cell_angle_beta     59.99999683372875
_cell_angle_gamma    59.99999827709673

_space_group_name_H-M_alt    "P 1"
_space_group_IT_number       1

loop_
  _space_group_symop_operation_xyz
  'x, y, z'

loop_
  _atom_site_type_symbol
  _atom_site_label
  _atom_site_symmetry_multiplicity
  _atom_site_fract_x
  _atom_site_fract_y
  _atom_site_fract_z
  _atom_site_occupancy
  V   V1        1.0  0.24999999168884465  0.24999974448661844  0.2500002700386744  1.0000
  V   V2        1.0  0.7500002437381647  0.7499997110170318  0.7499994201837774  1.0000
  N   N1        1.0  0.9999999532670366  0.999999841693769  2.0592480747773826e-07  1.0000
  O   O1        1.0  0.24514672553648328  0.2451469013846466  0.7548531870971659  1.0000
  O   O2        1.0  0.7548532452405543  0.7548534749335012  0.24514688379946437  1.0000
  O   O3        1.0  0.7548531985339396  0.24514675855427703  0.24514678533045084  1.0000
  O   O4        1.0  0.2451468066463345  0.7548533354511144  0.7548532350246758  1.0000
  O   O5        1.0  0.2451465782524344  0.7548533600404288  0.24514679841417272  1.0000
  O   O6        1.0  0.754853253877566  0.24514689490963051  0.754853189216801  1.0000
