data_image0
_chemical_formula_structural       V2OsS6
_chemical_formula_sum              "V2 Os1 S6"
_cell_length_a       5.991225272321246
_cell_length_b       5.9912253369938115
_cell_length_c       5.991224917109832
_cell_angle_alpha    59.99999938338538
_cell_angle_beta     60.00000119500371
_cell_angle_gamma    59.99999938998529

_space_group_name_H-M_alt    "P 1"
_space_group_IT_number       1

loop_
  _space_group_symop_operation_xyz
  'x, y, z'

loop_
  _atom_site_type_symbol
  _atom_site_label
  _atom_site_symmetry_multiplicity
  _atom_site_fract_x
  _atom_site_fract_y
  _atom_site_fract_z
  _atom_site_occupancy
  V   V1        1.0  0.24999996720162027  0.25000002807905386  0.2499999638948733  1.0000
  V   V2        1.0  0.7499999855518629  0.7499999942909933  0.7499999531029762  1.0000
  Os  Os1       1.0  0.9999999616473149  5.7238469511263336e-08  0.9999999922262145  1.0000
  S   S1        1.0  0.27001429267363913  0.27001424485461917  0.7299856924524477  1.0000
  S   S2        1.0  0.7299856866147297  0.7299857672942711  0.27001426479266233  1.0000
  S   S3        1.0  0.7299857202010215  0.2700142442094523  0.2700142840955071  1.0000
  S   S4        1.0  0.27001427559822644  0.7299856432413411  0.7299858257205724  1.0000
  S   S5        1.0  0.270014243905757  0.7299858125749105  0.2700143223224308  1.0000
  S   S6        1.0  0.729985863013227  0.27001424454705697  0.7299857071860685  1.0000
