data_image0
_chemical_formula_structural       V2OsO6
_chemical_formula_sum              "V2 Os1 O6"
_cell_length_a       5.230237877810608
_cell_length_b       5.230237945464262
_cell_length_c       5.230238106379545
_cell_angle_alpha    59.999999997571464
_cell_angle_beta     60.00000012979721
_cell_angle_gamma    60.00000037113378

_space_group_name_H-M_alt    "P 1"
_space_group_IT_number       1

loop_
  _space_group_symop_operation_xyz
  'x, y, z'

loop_
  _atom_site_type_symbol
  _atom_site_label
  _atom_site_symmetry_multiplicity
  _atom_site_fract_x
  _atom_site_fract_y
  _atom_site_fract_z
  _atom_site_occupancy
  V   V1        1.0  0.24999995372147907  0.2499998223775956  0.2500000627006255  1.0000
  V   V2        1.0  0.7499997617393217  0.7500000502065879  0.7499997799371177  1.0000
  Os  Os1       1.0  5.468078934947312e-08  0.9999999882916907  0.9999999536582956  1.0000
  O   O1        1.0  0.24986930521766912  0.24986938522376395  0.750130771257438  1.0000
  O   O2        1.0  0.7501307609370244  0.750130620835149  0.24986940861952908  1.0000
  O   O3        1.0  0.7501305764687406  0.24986921366818404  0.2498694124028104  1.0000
  O   O4        1.0  0.2498694781575178  0.7501307408741674  0.7501306594236589  1.0000
  O   O5        1.0  0.2498693618688219  0.7501308341025029  0.24986928384632595  1.0000
  O   O6        1.0  0.7501307662785248  0.24986931713944432  0.7501306509578447  1.0000
