data_image0
_chemical_formula_structural       V2PbO6
_chemical_formula_sum              "V2 Pb1 O6"
_cell_length_a       5.397851897438552
_cell_length_b       5.397851856353666
_cell_length_c       5.397851845245595
_cell_angle_alpha    60.00000212883067
_cell_angle_beta     60.00000121234997
_cell_angle_gamma    59.99999942760091

_space_group_name_H-M_alt    "P 1"
_space_group_IT_number       1

loop_
  _space_group_symop_operation_xyz
  'x, y, z'

loop_
  _atom_site_type_symbol
  _atom_site_label
  _atom_site_symmetry_multiplicity
  _atom_site_fract_x
  _atom_site_fract_y
  _atom_site_fract_z
  _atom_site_occupancy
  V   V1        1.0  0.24999974094535185  0.2500001859761721  0.24999992862522277  1.0000
  V   V2        1.0  0.7499999807787264  0.7500004853221449  0.7499994172712792  1.0000
  Pb  Pb1       1.0  8.634599175863044e-08  0.999999959158921  0.9999998697973917  1.0000
  O   O1        1.0  0.2643907632959145  0.26439082307535783  0.7356093025204128  1.0000
  O   O2        1.0  0.7356094032642364  0.7356089565261569  0.2643909874634954  1.0000
  O   O3        1.0  0.7356091222949817  0.2643905664378379  0.26439104061930946  1.0000
  O   O4        1.0  0.2643909720964528  0.7356091087920408  0.7356092950252301  1.0000
  O   O5        1.0  0.26439062671540564  0.735609317192057  0.26439099314858566  1.0000
  O   O6        1.0  0.7356092913729316  0.2643905917395298  0.735609152621423  1.0000
