data_image0
_chemical_formula_structural       V2PbS6
_chemical_formula_sum              "V2 Pb1 S6"
_cell_length_a       6.439238146166339
_cell_length_b       6.439238112425886
_cell_length_c       6.439238162323104
_cell_angle_alpha    59.99999959908043
_cell_angle_beta     59.999999045419365
_cell_angle_gamma    59.99999907881774

_space_group_name_H-M_alt    "P 1"
_space_group_IT_number       1

loop_
  _space_group_symop_operation_xyz
  'x, y, z'

loop_
  _atom_site_type_symbol
  _atom_site_label
  _atom_site_symmetry_multiplicity
  _atom_site_fract_x
  _atom_site_fract_y
  _atom_site_fract_z
  _atom_site_occupancy
  V   V1        1.0  0.2500000239765611  0.2500000131697743  0.2500000243629086  1.0000
  V   V2        1.0  0.7500000467530779  0.7499999805472367  0.7500000095555172  1.0000
  Pb  Pb1       1.0  2.899927501239239e-08  1.5216022153410024e-08  2.4481713559079072e-08  1.0000
  S   S1        1.0  0.2741300373256012  0.27412999655991627  0.7258699433197469  1.0000
  S   S2        1.0  0.725869966420698  0.7258699990590977  0.27412994765274973  1.0000
  S   S3        1.0  0.725869976279549  0.27413000326396236  0.2741300441894298  1.0000
  S   S4        1.0  0.2741300489854543  0.7258699923550515  0.7258699400732904  1.0000
  S   S5        1.0  0.27412998437267866  0.7258699022135584  0.2741300869381235  1.0000
  S   S6        1.0  0.7258698893010563  0.2741301124254841  0.7258699822459624  1.0000
