data_image0
_chemical_formula_structural       V2PdSe6
_chemical_formula_sum              "V2 Pd1 Se6"
_cell_length_a       6.3148099474559585
_cell_length_b       6.31480494047466
_cell_length_c       6.31480432217431
_cell_angle_alpha    60.00000668525499
_cell_angle_beta     60.000002565598464
_cell_angle_gamma    59.999988001378476

_space_group_name_H-M_alt    "P 1"
_space_group_IT_number       1

loop_
  _space_group_symop_operation_xyz
  'x, y, z'

loop_
  _atom_site_type_symbol
  _atom_site_label
  _atom_site_symmetry_multiplicity
  _atom_site_fract_x
  _atom_site_fract_y
  _atom_site_fract_z
  _atom_site_occupancy
  V   V1        1.0  0.2500004333090619  0.24999875686656028  0.2500013137385868  1.0000
  V   V2        1.0  0.7499935730126527  0.7499993737693034  0.7499958283804641  1.0000
  Pd  Pd1       1.0  0.9999999439415792  1.1501125334452423e-06  0.9999982652877271  1.0000
  Se  Se1       1.0  0.2774813319570032  0.2774800032465586  0.7225190975867646  1.0000
  Se  Se2       1.0  0.722519408504545  0.7225190777366057  0.2774843530373788  1.0000
  Se  Se3       1.0  0.7225194023549233  0.2774798615666239  0.27748085476957113  1.0000
  Se  Se4       1.0  0.2774838303081659  0.7225211123506058  0.7225198157780042  1.0000
  Se  Se5       1.0  0.27748175157749355  0.7225194709841436  0.27747981283024686  1.0000
  Se  Se6       1.0  0.7225203405466575  0.2774814137167963  0.7225203229158422  1.0000
