data_image0
_chemical_formula_structural       V2PdO6
_chemical_formula_sum              "V2 Pd1 O6"
_cell_length_a       5.126747480666661
_cell_length_b       5.126747496499057
_cell_length_c       5.126747457485104
_cell_angle_alpha    59.999990623990335
_cell_angle_beta     59.99999475628191
_cell_angle_gamma    59.99998794499734

_space_group_name_H-M_alt    "P 1"
_space_group_IT_number       1

loop_
  _space_group_symop_operation_xyz
  'x, y, z'

loop_
  _atom_site_type_symbol
  _atom_site_label
  _atom_site_symmetry_multiplicity
  _atom_site_fract_x
  _atom_site_fract_y
  _atom_site_fract_z
  _atom_site_occupancy
  V   V1        1.0  0.24999946057258302  0.2499986420920415  0.2500013925668958  1.0000
  V   V2        1.0  0.7499995975929254  0.7500016167115896  0.7500012043812945  1.0000
  Pd  Pd1       1.0  0.9999999736982988  1.1944659109968736e-07  0.9999999748836462  1.0000
  O   O1        1.0  0.2631929354831615  0.2631914822695725  0.7368076095929992  1.0000
  O   O2        1.0  0.7368076913224965  0.7368081315226287  0.2631913909998344  1.0000
  O   O3        1.0  0.7368084637847832  0.2631921752774903  0.26319192668363955  1.0000
  O   O4        1.0  0.2631911702137319  0.7368084777000976  0.7368073803637367  1.0000
  O   O5        1.0  0.2631925525371004  0.7368078269490942  0.26319152246764077  1.0000
  O   O6        1.0  0.7368081039155694  0.26319161006214087  0.7368076550715666  1.0000
