data_image0
_chemical_formula_structural       V2PdS6
_chemical_formula_sum              "V2 Pd1 S6"
_cell_length_a       6.089255292582309
_cell_length_b       6.0892549999853705
_cell_length_c       6.089255267585847
_cell_angle_alpha    59.99999911974917
_cell_angle_beta     59.999998711917335
_cell_angle_gamma    59.99999940011062

_space_group_name_H-M_alt    "P 1"
_space_group_IT_number       1

loop_
  _space_group_symop_operation_xyz
  'x, y, z'

loop_
  _atom_site_type_symbol
  _atom_site_label
  _atom_site_symmetry_multiplicity
  _atom_site_fract_x
  _atom_site_fract_y
  _atom_site_fract_z
  _atom_site_occupancy
  V   V1        1.0  0.24999990188289475  0.25000004694414046  0.25000007919294187  1.0000
  V   V2        1.0  0.7500000824390163  0.749999971881426  0.7499999595820358  1.0000
  Pd  Pd1       1.0  0.9999999929307738  7.240756835274192e-08  0.9999998211717408  1.0000
  S   S1        1.0  0.2663258395433537  0.26632589247430644  0.7336740998312584  1.0000
  S   S2        1.0  0.7336740438939158  0.7336740137172595  0.26632591432408453  1.0000
  S   S3        1.0  0.7336741462955555  0.26632593643721464  0.2663259383956618  1.0000
  S   S4        1.0  0.26632584492134403  0.7336741185921385  0.7336742069244103  1.0000
  S   S5        1.0  0.2663259788270041  0.733673970235474  0.2663259991475444  1.0000
  S   S6        1.0  0.733674159689434  0.26632598422780956  0.7336740062069678  1.0000
