data_image0
_chemical_formula_structural       V2PO6
_chemical_formula_sum              "V2 P1 O6"
_cell_length_a       4.900381068270409
_cell_length_b       4.9003810220600075
_cell_length_c       4.900381154298607
_cell_angle_alpha    60.00000194677841
_cell_angle_beta     60.000001741391216
_cell_angle_gamma    60.00000215268867

_space_group_name_H-M_alt    "P 1"
_space_group_IT_number       1

loop_
  _space_group_symop_operation_xyz
  'x, y, z'

loop_
  _atom_site_type_symbol
  _atom_site_label
  _atom_site_symmetry_multiplicity
  _atom_site_fract_x
  _atom_site_fract_y
  _atom_site_fract_z
  _atom_site_occupancy
  V   V1        1.0  0.2500000744848678  0.24999978471168477  0.2500000970608422  1.0000
  V   V2        1.0  0.7500001742935918  0.7499999964512819  0.7500000537840017  1.0000
  P   P1        1.0  0.9999999837423844  6.997997443713444e-08  0.9999998282521328  1.0000
  O   O1        1.0  0.24174488181777593  0.2417450105983682  0.7582551664183811  1.0000
  O   O2        1.0  0.7582549941510471  0.7582551679508945  0.241744837454734  1.0000
  O   O3        1.0  0.7582550539804223  0.2417448557149171  0.2417448311557467  1.0000
  O   O4        1.0  0.2417448193952262  0.7582552528543663  0.7582551539061889  1.0000
  O   O5        1.0  0.24174468305226374  0.7582551307922732  0.24174500149934627  1.0000
  O   O6        1.0  0.7582552586371711  0.24174477283564796  0.758255102892814  1.0000
