data_image0
_chemical_formula_structural       V2PO6
_chemical_formula_sum              "V2 P1 O6"
_cell_length_a       4.900962692878662
_cell_length_b       4.900962844319719
_cell_length_c       4.900963020224555
_cell_angle_alpha    59.99999950510079
_cell_angle_beta     60.00000054132774
_cell_angle_gamma    59.99999879596308

_space_group_name_H-M_alt    "P 1"
_space_group_IT_number       1

loop_
  _space_group_symop_operation_xyz
  'x, y, z'

loop_
  _atom_site_type_symbol
  _atom_site_label
  _atom_site_symmetry_multiplicity
  _atom_site_fract_x
  _atom_site_fract_y
  _atom_site_fract_z
  _atom_site_occupancy
  V   V1        1.0  0.25000038053973533  0.2499999535560373  0.24999973129267428  1.0000
  V   V2        1.0  0.7499997733926954  0.7499994558320293  0.7500008272012937  1.0000
  P   P1        1.0  0.9999999962392552  3.248684812034994e-08  0.9999999346265657  1.0000
  O   O1        1.0  0.24173457453360006  0.24173464108350506  0.7582653943551905  1.0000
  O   O2        1.0  0.7582653005125495  0.7582655554858828  0.2417344223319958  1.0000
  O   O3        1.0  0.7582652704128916  0.24173485003059297  0.2417343394167276  1.0000
  O   O4        1.0  0.24173462985993832  0.7582653415408179  0.7582654671561072  1.0000
  O   O5        1.0  0.24173474251951374  0.758265497792868  0.241734387750623  1.0000
  O   O6        1.0  0.7582653447157528  0.24173469127955083  0.7582654510558278  1.0000
