data_image0
_chemical_formula_structural       V2PS6
_chemical_formula_sum              "V2 P1 S6"
_cell_length_a       6.2681539944494835
_cell_length_b       6.268153389432891
_cell_length_c       6.268153427000597
_cell_angle_alpha    60.000004013246816
_cell_angle_beta     60.00000468399518
_cell_angle_gamma    60.00000332973356

_space_group_name_H-M_alt    "P 1"
_space_group_IT_number       1

loop_
  _space_group_symop_operation_xyz
  'x, y, z'

loop_
  _atom_site_type_symbol
  _atom_site_label
  _atom_site_symmetry_multiplicity
  _atom_site_fract_x
  _atom_site_fract_y
  _atom_site_fract_z
  _atom_site_occupancy
  V   V1        1.0  0.2500002564493232  0.24999958547552964  0.2500001342982717  1.0000
  V   V2        1.0  0.750000001692212  0.7500004680573914  0.7499993182867234  1.0000
  P   P1        1.0  0.999999914832371  0.9999999902304146  2.6728845428116022e-08  1.0000
  S   S1        1.0  0.24335372840352487  0.24335342743578628  0.756646401504013  1.0000
  S   S2        1.0  0.7566464460614337  0.7566464736916744  0.24335384555725606  1.0000
  S   S3        1.0  0.7566463818511783  0.24335345271402617  0.2433537295874191  1.0000
  S   S4        1.0  0.24335356905662137  0.7566466438050671  0.7566462635350978  1.0000
  S   S5        1.0  0.24335334884767484  0.7566465874052132  0.2433537172442515  1.0000
  S   S6        1.0  0.7566463396930635  0.24335335670838912  0.7566465263394203  1.0000
