data_image0
_chemical_formula_structural       V2PSe6
_chemical_formula_sum              "V2 P1 Se6"
_cell_length_a       6.409538795551786
_cell_length_b       6.409538717520716
_cell_length_c       6.409538601060158
_cell_angle_alpha    60.00000039312056
_cell_angle_beta     60.00000075090156
_cell_angle_gamma    59.99999969249829

_space_group_name_H-M_alt    "P 1"
_space_group_IT_number       1

loop_
  _space_group_symop_operation_xyz
  'x, y, z'

loop_
  _atom_site_type_symbol
  _atom_site_label
  _atom_site_symmetry_multiplicity
  _atom_site_fract_x
  _atom_site_fract_y
  _atom_site_fract_z
  _atom_site_occupancy
  V   V1        1.0  0.2500001531597777  0.24999992881345823  0.2499999377777719  1.0000
  V   V2        1.0  0.749999735293523  0.7500000998141912  0.7500000483826326  1.0000
  P   P1        1.0  0.9999999939397077  3.439468681702064e-08  0.999999999874375  1.0000
  Se  Se1       1.0  0.2533416934298447  0.2533415209633982  0.7466583761539538  1.0000
  Se  Se2       1.0  0.7466583543609631  0.7466584025693742  0.25334159848688276  1.0000
  Se  Se3       1.0  0.7466583585199228  0.25334161445721914  0.25334160310785325  1.0000
  Se  Se4       1.0  0.2533416230667648  0.7466584428326686  0.7466584344873172  1.0000
  Se  Se5       1.0  0.25334169968597453  0.7466583842888325  0.2533415290544661  1.0000
  Se  Se6       1.0  0.7466583958720133  0.25334158510352184  0.7466584705410256  1.0000
