data_image0
_chemical_formula_structural       V2PS6
_chemical_formula_sum              "V2 P1 S6"
_cell_length_a       6.271860529599666
_cell_length_b       6.271860969616539
_cell_length_c       6.2718612438665415
_cell_angle_alpha    59.99999220260627
_cell_angle_beta     59.999994742920954
_cell_angle_gamma    59.99999682164894

_space_group_name_H-M_alt    "P 1"
_space_group_IT_number       1

loop_
  _space_group_symop_operation_xyz
  'x, y, z'

loop_
  _atom_site_type_symbol
  _atom_site_label
  _atom_site_symmetry_multiplicity
  _atom_site_fract_x
  _atom_site_fract_y
  _atom_site_fract_z
  _atom_site_occupancy
  V   V1        1.0  0.2500000955561624  0.25000041951463386  0.24999996012802447  1.0000
  V   V2        1.0  0.7500001104677302  0.7499999423825757  0.7500001976653852  1.0000
  P   P1        1.0  0.9999999668222129  6.639389653127803e-08  0.9999999754198273  1.0000
  S   S1        1.0  0.24330647109659037  0.24330616704032018  0.7566936834362837  1.0000
  S   S2        1.0  0.7566938200002564  0.7566935309179617  0.24330626154688978  1.0000
  S   S3        1.0  0.756693396469109  0.2433068505532293  0.24330624154611122  1.0000
  S   S4        1.0  0.24330643471760743  0.756693536729915  0.7566935632188999  1.0000
  S   S5        1.0  0.24330627668174715  0.7566932993674559  0.24330639872972  1.0000
  S   S6        1.0  0.7566933843951689  0.24330628923618927  0.7566936305390274  1.0000
