data_image0
_chemical_formula_structural       V2PSe6
_chemical_formula_sum              "V2 P1 Se6"
_cell_length_a       6.411672048146667
_cell_length_b       6.4116721165441195
_cell_length_c       6.411671958515633
_cell_angle_alpha    60.00000070785796
_cell_angle_beta     60.000000216173035
_cell_angle_gamma    60.00000031401181

_space_group_name_H-M_alt    "P 1"
_space_group_IT_number       1

loop_
  _space_group_symop_operation_xyz
  'x, y, z'

loop_
  _atom_site_type_symbol
  _atom_site_label
  _atom_site_symmetry_multiplicity
  _atom_site_fract_x
  _atom_site_fract_y
  _atom_site_fract_z
  _atom_site_occupancy
  V   V1        1.0  0.25000013933649434  0.24999980030265287  0.25000005770167494  1.0000
  V   V2        1.0  0.7500000205019138  0.7500000045248778  0.7500000185817157  1.0000
  P   P1        1.0  0.999999981244677  7.640720533600052e-09  8.676612406641677e-09  1.0000
  Se  Se1       1.0  0.253216170435461  0.2532162798672196  0.7467837681646428  1.0000
  Se  Se2       1.0  0.7467837638083753  0.746783801936429  0.25321621068381783  1.0000
  Se  Se3       1.0  0.7467837341275726  0.25321619447811383  0.2532161829075797  1.0000
  Se  Se4       1.0  0.25321616335158986  0.7467838949662554  0.7467837496762896  1.0000
  Se  Se5       1.0  0.2532162300181848  0.74678386072497  0.25321618501834053  1.0000
  Se  Se6       1.0  0.746783799185218  0.253216152312194  0.7467838400004916  1.0000
