data_image0
_chemical_formula_structural       V2PtS6
_chemical_formula_sum              "V2 Pt1 S6"
_cell_length_a       6.145187046939577
_cell_length_b       6.14518695976582
_cell_length_c       6.145186992290713
_cell_angle_alpha    60.00000002012474
_cell_angle_beta     60.000000144992704
_cell_angle_gamma    60.00000061006112

_space_group_name_H-M_alt    "P 1"
_space_group_IT_number       1

loop_
  _space_group_symop_operation_xyz
  'x, y, z'

loop_
  _atom_site_type_symbol
  _atom_site_label
  _atom_site_symmetry_multiplicity
  _atom_site_fract_x
  _atom_site_fract_y
  _atom_site_fract_z
  _atom_site_occupancy
  V   V1        1.0  0.25000000262727795  0.2500000520901735  0.24999996847362232  1.0000
  V   V2        1.0  0.7499998590052585  0.7499999489969774  0.7500000883777953  1.0000
  Pt  Pt1       1.0  1.0837820667796686e-08  0.999999990034926  2.3972973339118793e-08  1.0000
  S   S1        1.0  0.26193085803601385  0.26193086612197924  0.7380691229937348  1.0000
  S   S2        1.0  0.7380691588918702  0.738069136958188  0.26193085521350057  1.0000
  S   S3        1.0  0.7380691646020602  0.2619308399402944  0.2619308703182014  1.0000
  S   S4        1.0  0.2619309227423242  0.7380691491887699  0.7380691398660572  1.0000
  S   S5        1.0  0.26193091562388565  0.7380691219575098  0.2619308192375676  1.0000
  S   S6        1.0  0.7380691040557777  0.2619309010528056  0.7380691085737493  1.0000
