data_image0
_chemical_formula_structural       V2PtSe6
_chemical_formula_sum              "V2 Pt1 Se6"
_cell_length_a       6.52344081376646
_cell_length_b       6.523440873830387
_cell_length_c       6.523440953922777
_cell_angle_alpha    59.99999884855242
_cell_angle_beta     59.99999839881349
_cell_angle_gamma    59.99999874785614

_space_group_name_H-M_alt    "P 1"
_space_group_IT_number       1

loop_
  _space_group_symop_operation_xyz
  'x, y, z'

loop_
  _atom_site_type_symbol
  _atom_site_label
  _atom_site_symmetry_multiplicity
  _atom_site_fract_x
  _atom_site_fract_y
  _atom_site_fract_z
  _atom_site_occupancy
  V   V1        1.0  0.24999984958110974  0.25000004348695254  0.250000050841178  1.0000
  V   V2        1.0  0.7499999408081972  0.7500000534853124  0.7499999796495374  1.0000
  Pt  Pt1       1.0  2.2511004933872936e-08  0.9999999643284065  5.103536059220995e-08  1.0000
  Se  Se1       1.0  0.26205978396390517  0.26205981608236895  0.7379401838723828  1.0000
  Se  Se2       1.0  0.7379402430454374  0.737940187017281  0.2620597967056876  1.0000
  Se  Se3       1.0  0.737940284619044  0.26205973728556203  0.2620597981405047  1.0000
  Se  Se4       1.0  0.2620597717668727  0.7379402414072079  0.7379402366712513  1.0000
  Se  Se5       1.0  0.2620597933607223  0.7379402212972194  0.2620597241063039  1.0000
  Se  Se6       1.0  0.7379403328098896  0.2620597179690531  0.737940171358754  1.0000
