data_image0
_chemical_formula_structural       V2PtO6
_chemical_formula_sum              "V2 Pt1 O6"
_cell_length_a       5.135579598091775
_cell_length_b       5.135579699440059
_cell_length_c       5.13557968745885
_cell_angle_alpha    59.99999917287328
_cell_angle_beta     59.99999977824573
_cell_angle_gamma    59.99999921814686

_space_group_name_H-M_alt    "P 1"
_space_group_IT_number       1

loop_
  _space_group_symop_operation_xyz
  'x, y, z'

loop_
  _atom_site_type_symbol
  _atom_site_label
  _atom_site_symmetry_multiplicity
  _atom_site_fract_x
  _atom_site_fract_y
  _atom_site_fract_z
  _atom_site_occupancy
  V   V1        1.0  0.25000034176350133  0.2499997856102255  0.25000002801259597  1.0000
  V   V2        1.0  0.7500001536814839  0.7500000627383077  0.7499999312772935  1.0000
  Pt  Pt1       1.0  0.9999999332055677  4.769646636635103e-09  2.7117992917197834e-08  1.0000
  O   O1        1.0  0.26280569521388736  0.2628056570425798  0.7371942473325743  1.0000
  O   O2        1.0  0.737194187199877  0.7371944250186185  0.2628057361046023  1.0000
  O   O3        1.0  0.7371942288158954  0.26280570156580324  0.26280563598946594  1.0000
  O   O4        1.0  0.2628055331138304  0.7371943709561044  0.7371943404129805  1.0000
  O   O5        1.0  0.26280564519107213  0.7371943669143217  0.26280568602957516  1.0000
  O   O6        1.0  0.7371942660899494  0.26280565552629964  0.7371943536754587  1.0000
