data_image0
_chemical_formula_structural       V2ReO6
_chemical_formula_sum              "V2 Re1 O6"
_cell_length_a       5.2449749109706225
_cell_length_b       5.244974630650864
_cell_length_c       5.244974585390089
_cell_angle_alpha    60.00000129033131
_cell_angle_beta     60.00000186882486
_cell_angle_gamma    59.999998173166674

_space_group_name_H-M_alt    "P 1"
_space_group_IT_number       1

loop_
  _space_group_symop_operation_xyz
  'x, y, z'

loop_
  _atom_site_type_symbol
  _atom_site_label
  _atom_site_symmetry_multiplicity
  _atom_site_fract_x
  _atom_site_fract_y
  _atom_site_fract_z
  _atom_site_occupancy
  V   V1        1.0  0.24999972757315667  0.25000000964009683  0.2500003593132069  1.0000
  V   V2        1.0  0.7499995518680397  0.7499999121661438  0.7500000232345724  1.0000
  Re  Re1       1.0  2.8463517907105282e-08  4.6701650310701735e-08  0.9999999566976554  1.0000
  O   O1        1.0  0.25208636547309426  0.2520863325049673  0.7479136229472536  1.0000
  O   O2        1.0  0.7479138867573583  0.7479136430081517  0.25208629592371756  1.0000
  O   O3        1.0  0.7479135904658519  0.25208626045418064  0.2520863640630165  1.0000
  O   O4        1.0  0.2520865453921298  0.7479138528288121  0.7479136032134495  1.0000
  O   O5        1.0  0.25208646487923014  0.7479136810438831  0.252086201952793  1.0000
  O   O6        1.0  0.7479138646721026  0.25208628045873754  0.747913574680945  1.0000
