data_image0
_chemical_formula_structural       V2ReS6
_chemical_formula_sum              "V2 Re1 S6"
_cell_length_a       6.1634509053145115
_cell_length_b       6.163451194044598
_cell_length_c       6.163450645624469
_cell_angle_alpha    60.00000070206313
_cell_angle_beta     59.99999947043467
_cell_angle_gamma    60.00000055397636

_space_group_name_H-M_alt    "P 1"
_space_group_IT_number       1

loop_
  _space_group_symop_operation_xyz
  'x, y, z'

loop_
  _atom_site_type_symbol
  _atom_site_label
  _atom_site_symmetry_multiplicity
  _atom_site_fract_x
  _atom_site_fract_y
  _atom_site_fract_z
  _atom_site_occupancy
  V   V1        1.0  0.2500000107644047  0.2500000248137127  0.2499998262414329  1.0000
  V   V2        1.0  0.7499999414026118  0.750000026750517  0.7500000201530324  1.0000
  Re  Re1       1.0  8.514040049075426e-08  0.9999998907090084  1.791894760385324e-07  1.0000
  S   S1        1.0  0.2658218774915458  0.2658216785478061  0.7341782743548975  1.0000
  S   S2        1.0  0.7341781032710079  0.7341782816094131  0.2658217348651949  1.0000
  S   S3        1.0  0.7341781754898178  0.2658218113774507  0.26582183558084477  1.0000
  S   S4        1.0  0.2658219385744863  0.7341780355145621  0.7341781555086366  1.0000
  S   S5        1.0  0.2658217759381213  0.7341783202190023  0.26582180739224476  1.0000
  S   S6        1.0  0.7341781337040941  0.2658218982623704  0.7341781341854208  1.0000
