data_image0
_chemical_formula_structural       V2ReTe6
_chemical_formula_sum              "V2 Re1 Te6"
_cell_length_a       7.178838267674963
_cell_length_b       7.178838325552668
_cell_length_c       7.178838304449782
_cell_angle_alpha    60.00000010241606
_cell_angle_beta     60.000000022369
_cell_angle_gamma    59.999999984896455

_space_group_name_H-M_alt    "P 1"
_space_group_IT_number       1

loop_
  _space_group_symop_operation_xyz
  'x, y, z'

loop_
  _atom_site_type_symbol
  _atom_site_label
  _atom_site_symmetry_multiplicity
  _atom_site_fract_x
  _atom_site_fract_y
  _atom_site_fract_z
  _atom_site_occupancy
  V   V1        1.0  0.2500000275411141  0.25000002315050573  0.2499999691445425  1.0000
  V   V2        1.0  0.7500000275309306  0.7499999500280994  0.7500000072283894  1.0000
  Re  Re1       1.0  0.9999999776597048  1.8766537136211368e-08  3.179862013367189e-09  1.0000
  Te  Te1       1.0  0.2585930249719173  0.2585930836451981  0.7414069440636138  1.0000
  Te  Te2       1.0  0.7414069425593067  0.7414069253604327  0.2585930637381477  1.0000
  Te  Te3       1.0  0.741406962804454  0.2585930536899861  0.25859302544920487  1.0000
  Te  Te4       1.0  0.25859304570255104  0.7414069433733026  0.7414069692288203  1.0000
  Te  Te5       1.0  0.2585930472127767  0.7414069505191477  0.25859306061607873  1.0000
  Te  Te6       1.0  0.741406942366031  0.25859305507438524  0.7414069601556686  1.0000
