data_image0
_chemical_formula_structural       V2RhO6
_chemical_formula_sum              "V2 Rh1 O6"
_cell_length_a       5.122569477968484
_cell_length_b       5.122569355026187
_cell_length_c       5.122569420675319
_cell_angle_alpha    60.00000011858404
_cell_angle_beta     60.00000006042552
_cell_angle_gamma    60.000000182059765

_space_group_name_H-M_alt    "P 1"
_space_group_IT_number       1

loop_
  _space_group_symop_operation_xyz
  'x, y, z'

loop_
  _atom_site_type_symbol
  _atom_site_label
  _atom_site_symmetry_multiplicity
  _atom_site_fract_x
  _atom_site_fract_y
  _atom_site_fract_z
  _atom_site_occupancy
  V   V1        1.0  0.2499998470733125  0.2499999139666524  0.25000015694502914  1.0000
  V   V2        1.0  0.7500000138828736  0.7499998184081201  0.7500001337808864  1.0000
  Rh  Rh1       1.0  6.375679991643851e-09  0.9999999808729598  0.9999999966149533  1.0000
  O   O1        1.0  0.26121850274860525  0.26121868225376516  0.7387814195397737  1.0000
  O   O2        1.0  0.7387814595696199  0.7387814087530099  0.2612185396775646  1.0000
  O   O3        1.0  0.7387814610960876  0.2612186115386688  0.26121858590263847  1.0000
  O   O4        1.0  0.26121856618208167  0.7387815009860265  0.7387813066500238  1.0000
  O   O5        1.0  0.26121868505235935  0.7387813922915959  0.2612185065853762  1.0000
  O   O6        1.0  0.7387814463266089  0.26121869871517994  0.7387813524844272  1.0000
