data_image0
_chemical_formula_structural       V2RhSe6
_chemical_formula_sum              "V2 Rh1 Se6"
_cell_length_a       6.29160129596142
_cell_length_b       6.291601128967778
_cell_length_c       6.291601878656168
_cell_angle_alpha    59.99999680016068
_cell_angle_beta     59.999998285509946
_cell_angle_gamma    59.99999892383435

_space_group_name_H-M_alt    "P 1"
_space_group_IT_number       1

loop_
  _space_group_symop_operation_xyz
  'x, y, z'

loop_
  _atom_site_type_symbol
  _atom_site_label
  _atom_site_symmetry_multiplicity
  _atom_site_fract_x
  _atom_site_fract_y
  _atom_site_fract_z
  _atom_site_occupancy
  V   V1        1.0  0.24999970553111067  0.25000070976363875  0.249999492830862  1.0000
  V   V2        1.0  0.7499993445542865  0.7499992210186732  0.7500011982650718  1.0000
  Rh  Rh1       1.0  6.345963054032096e-08  0.9999998481624931  0.999999829617192  1.0000
  Se  Se1       1.0  0.27351889597734214  0.27351897116747537  0.7264809740089341  1.0000
  Se  Se2       1.0  0.7264815014634708  0.7264809148422556  0.27351851903499874  1.0000
  Se  Se3       1.0  0.7264812240284791  0.27351910335969454  0.2735188303737035  1.0000
  Se  Se4       1.0  0.27351899783048844  0.7264810396058177  0.7264813626531397  1.0000
  Se  Se5       1.0  0.27351929575784073  0.7264810303192956  0.27351850629782276  1.0000
  Se  Se6       1.0  0.7264809947485045  0.2735191379524677  0.7264813314046608  1.0000
