data_image0
_chemical_formula_structural       V2RhS6
_chemical_formula_sum              "V2 Rh1 S6"
_cell_length_a       6.033068505314173
_cell_length_b       6.033068666982589
_cell_length_c       6.033068249639056
_cell_angle_alpha    60.000002057605776
_cell_angle_beta     60.000002731137265
_cell_angle_gamma    60.00000132706904

_space_group_name_H-M_alt    "P 1"
_space_group_IT_number       1

loop_
  _space_group_symop_operation_xyz
  'x, y, z'

loop_
  _atom_site_type_symbol
  _atom_site_label
  _atom_site_symmetry_multiplicity
  _atom_site_fract_x
  _atom_site_fract_y
  _atom_site_fract_z
  _atom_site_occupancy
  V   V1        1.0  0.2500000192040306  0.2499999862390761  0.2500000184455158  1.0000
  V   V2        1.0  0.7499999380381643  0.7499999729276001  0.7500000135390346  1.0000
  Rh  Rh1       1.0  0.9999999903904002  6.902179776185415e-08  2.4992436675082003e-08  1.0000
  S   S1        1.0  0.2662071490257042  0.2662070962875861  0.7337929309967545  1.0000
  S   S2        1.0  0.7337928241848756  0.7337928953599351  0.26620721765334915  1.0000
  S   S3        1.0  0.733792830401173  0.2662072106052446  0.2662070503266742  1.0000
  S   S4        1.0  0.2662071731605981  0.7337928622443938  0.733792790602004  1.0000
  S   S5        1.0  0.26620717046372927  0.7337928170947239  0.2662070731955989  1.0000
  S   S6        1.0  0.7337929003982518  0.2662071055310001  0.7337928506332174  1.0000
