data_image0
_chemical_formula_structural       V2RhS6
_chemical_formula_sum              "V2 Rh1 S6"
_cell_length_a       6.0333077403817095
_cell_length_b       6.033307538188904
_cell_length_c       6.033307633060188
_cell_angle_alpha    59.9999985905515
_cell_angle_beta     59.999998812936724
_cell_angle_gamma    59.99999913845669

_space_group_name_H-M_alt    "P 1"
_space_group_IT_number       1

loop_
  _space_group_symop_operation_xyz
  'x, y, z'

loop_
  _atom_site_type_symbol
  _atom_site_label
  _atom_site_symmetry_multiplicity
  _atom_site_fract_x
  _atom_site_fract_y
  _atom_site_fract_z
  _atom_site_occupancy
  V   V1        1.0  0.24999999489905558  0.2500000255931329  0.25000003667570875  1.0000
  V   V2        1.0  0.7500000467738065  0.7499999996404411  0.7500000065080882  1.0000
  Rh  Rh1       1.0  0.9999999789274407  3.450953398660394e-08  0.9999999518448721  1.0000
  S   S1        1.0  0.2661906467552646  0.2661906651707199  0.7338094193847876  1.0000
  S   S2        1.0  0.7338093763393942  0.733809364122799  0.2661906459753292  1.0000
  S   S3        1.0  0.7338093353244414  0.26619068535472973  0.26619056387700474  1.0000
  S   S4        1.0  0.2661906326559303  0.733809256649968  0.7338094152254333  1.0000
  S   S5        1.0  0.266190628761136  0.7338093049161479  0.2661906917256485  1.0000
  S   S6        1.0  0.7338093840112277  0.2661906634781937  0.7338092650456957  1.0000
