data_image0
_chemical_formula_structural       V2RhO6
_chemical_formula_sum              "V2 Rh1 O6"
_cell_length_a       5.122582446687498
_cell_length_b       5.122582597053286
_cell_length_c       5.122582561510682
_cell_angle_alpha    60.00000042371213
_cell_angle_beta     59.99999986238209
_cell_angle_gamma    60.00000031762144

_space_group_name_H-M_alt    "P 1"
_space_group_IT_number       1

loop_
  _space_group_symop_operation_xyz
  'x, y, z'

loop_
  _atom_site_type_symbol
  _atom_site_label
  _atom_site_symmetry_multiplicity
  _atom_site_fract_x
  _atom_site_fract_y
  _atom_site_fract_z
  _atom_site_occupancy
  V   V1        1.0  0.24999964420009324  0.2500000559388458  0.2500001220088023  1.0000
  V   V2        1.0  0.7499999264953048  0.7500000195823561  0.7500001540271447  1.0000
  Rh  Rh1       1.0  0.9999999990663057  9.563495287580039e-09  0.9999999722594156  1.0000
  O   O1        1.0  0.2612166330000181  0.2612165702132819  0.7387833860089439  1.0000
  O   O2        1.0  0.7387834196277078  0.7387833714189841  0.2612165442169603  1.0000
  O   O3        1.0  0.7387835948821423  0.2612165874278282  0.261216572981156  1.0000
  O   O4        1.0  0.26121654684065565  0.7387833709405541  0.7387834546439596  1.0000
  O   O5        1.0  0.26121667186076114  0.7387833996694663  0.2612165058597191  1.0000
  O   O6        1.0  0.73878357471261  0.2612166160798873  0.7387832708134163  1.0000
