data_image0
_chemical_formula_structural       V2RuO6
_chemical_formula_sum              "V2 Ru1 O6"
_cell_length_a       5.161931386658841
_cell_length_b       5.161931354451571
_cell_length_c       5.1619313863120375
_cell_angle_alpha    60.00000100015841
_cell_angle_beta     60.00000111314734
_cell_angle_gamma    60.00000137114474

_space_group_name_H-M_alt    "P 1"
_space_group_IT_number       1

loop_
  _space_group_symop_operation_xyz
  'x, y, z'

loop_
  _atom_site_type_symbol
  _atom_site_label
  _atom_site_symmetry_multiplicity
  _atom_site_fract_x
  _atom_site_fract_y
  _atom_site_fract_z
  _atom_site_occupancy
  V   V1        1.0  0.2499997060938787  0.250000424961373  0.250000071906259  1.0000
  V   V2        1.0  0.7500001370504211  0.7499996211481363  0.7500001612485683  1.0000
  Ru  Ru1       1.0  0.999999981336763  0.9999999620376243  3.799910270315665e-08  1.0000
  O   O1        1.0  0.25439836930120335  0.2543984231428443  0.7456015837594083  1.0000
  O   O2        1.0  0.7456016939253539  0.7456014995889438  0.2543983608229885  1.0000
  O   O3        1.0  0.7456016161846952  0.2543985723169747  0.25439821964225734  1.0000
  O   O4        1.0  0.25439847103574137  0.7456014998916681  0.7456016672636645  1.0000
  O   O5        1.0  0.25439833406576856  0.7456014715209968  0.25439843275631563  1.0000
  O   O6        1.0  0.7456017080783409  0.25439850103640926  0.7456014877681995  1.0000
