data_image0
_chemical_formula_structural       V2RuSe6
_chemical_formula_sum              "V2 Ru1 Se6"
_cell_length_a       6.2870166974958375
_cell_length_b       6.2870146416121955
_cell_length_c       6.2870149483967355
_cell_angle_alpha    59.99999439960461
_cell_angle_beta     60.00000673160299
_cell_angle_gamma    59.99999629584919

_space_group_name_H-M_alt    "P 1"
_space_group_IT_number       1

loop_
  _space_group_symop_operation_xyz
  'x, y, z'

loop_
  _atom_site_type_symbol
  _atom_site_label
  _atom_site_symmetry_multiplicity
  _atom_site_fract_x
  _atom_site_fract_y
  _atom_site_fract_z
  _atom_site_occupancy
  V   V1        1.0  0.2500002560370809  0.24999731671560252  0.25000190379134946  1.0000
  V   V2        1.0  0.7500015431721864  0.7500007495110683  0.7499992317840867  1.0000
  Ru  Ru1       1.0  0.9999999818405799  0.9999998285711632  1.281963131487105e-07  1.0000
  Se  Se1       1.0  0.27118208804991806  0.2711834802095007  0.7288176275754008  1.0000
  Se  Se2       1.0  0.7288169644723153  0.7288176522555571  0.2711829458075874  1.0000
  Se  Se3       1.0  0.7288165844344318  0.27118345141615047  0.2711823592201549  1.0000
  Se  Se4       1.0  0.27118240707049257  0.7288187622194647  0.7288158256112419  1.0000
  Se  Se5       1.0  0.27118246369696797  0.7288168578433712  0.2711831040096146  1.0000
  Se  Se6       1.0  0.7288175216758193  0.27118193890389347  0.7288168887995962  1.0000
