data_image0
_chemical_formula_structural       V2RuS6
_chemical_formula_sum              "V2 Ru1 S6"
_cell_length_a       5.97073635781694
_cell_length_b       5.970736283155217
_cell_length_c       5.970736513617366
_cell_angle_alpha    59.99999844256926
_cell_angle_beta     59.99999951738937
_cell_angle_gamma    59.99999945712721

_space_group_name_H-M_alt    "P 1"
_space_group_IT_number       1

loop_
  _space_group_symop_operation_xyz
  'x, y, z'

loop_
  _atom_site_type_symbol
  _atom_site_label
  _atom_site_symmetry_multiplicity
  _atom_site_fract_x
  _atom_site_fract_y
  _atom_site_fract_z
  _atom_site_occupancy
  V   V1        1.0  0.2500000124124565  0.2500000053408046  0.2500000270182903  1.0000
  V   V2        1.0  0.7500000239747174  0.7499999339725743  0.7500000248713311  1.0000
  Ru  Ru1       1.0  4.239932391205457e-09  0.9999999466676041  1.44972203747699e-08  1.0000
  S   S1        1.0  0.26732639279614806  0.2673263611817074  0.7326736443800599  1.0000
  S   S2        1.0  0.7326736279619916  0.7326736540277735  0.2673263807256981  1.0000
  S   S3        1.0  0.7326735775502969  0.26732639373339484  0.267326341478492  1.0000
  S   S4        1.0  0.26732634795573573  0.7326736809622197  0.7326736378665127  1.0000
  S   S5        1.0  0.2673263477204357  0.7326736995216405  0.26732631122306705  1.0000
  S   S6        1.0  0.7326736656337811  0.26732633209780865  0.7326736088895531  1.0000
