data_image0
_chemical_formula_structural       V2RuS6
_chemical_formula_sum              "V2 Ru1 S6"
_cell_length_a       5.970789381968983
_cell_length_b       5.9707893480740735
_cell_length_c       5.970789312304527
_cell_angle_alpha    60.000000429040576
_cell_angle_beta     60.000000235583784
_cell_angle_gamma    60.000001538346574

_space_group_name_H-M_alt    "P 1"
_space_group_IT_number       1

loop_
  _space_group_symop_operation_xyz
  'x, y, z'

loop_
  _atom_site_type_symbol
  _atom_site_label
  _atom_site_symmetry_multiplicity
  _atom_site_fract_x
  _atom_site_fract_y
  _atom_site_fract_z
  _atom_site_occupancy
  V   V1        1.0  0.2500000550003615  0.24999995768823396  0.24999997602918403  1.0000
  V   V2        1.0  0.7500000035274341  0.749999957165036  0.7500000320922078  1.0000
  Ru  Ru1       1.0  0.9999999053352991  2.8717186483421527e-08  9.526271123362412e-09  1.0000
  S   S1        1.0  0.26732572846872377  0.2673256872825935  0.7326742533801238  1.0000
  S   S2        1.0  0.732674238420895  0.7326743342345163  0.2673256902845418  1.0000
  S   S3        1.0  0.7326742823481184  0.26732574919635477  0.2673257125651752  1.0000
  S   S4        1.0  0.2673257412116231  0.7326742415523403  0.7326743035644788  1.0000
  S   S5        1.0  0.2673257524122533  0.7326742564798379  0.2673257872005067  1.0000
  S   S6        1.0  0.7326743028509446  0.26732579580568927  0.7326742091061303  1.0000
