data_image0
_chemical_formula_structural       V2RuSe6
_chemical_formula_sum              "V2 Ru1 Se6"
_cell_length_a       6.287236780408886
_cell_length_b       6.287238359689925
_cell_length_c       6.287240054549655
_cell_angle_alpha    60.000005690862295
_cell_angle_beta     59.99998688980094
_cell_angle_gamma    60.00000910340345

_space_group_name_H-M_alt    "P 1"
_space_group_IT_number       1

loop_
  _space_group_symop_operation_xyz
  'x, y, z'

loop_
  _atom_site_type_symbol
  _atom_site_label
  _atom_site_symmetry_multiplicity
  _atom_site_fract_x
  _atom_site_fract_y
  _atom_site_fract_z
  _atom_site_occupancy
  V   V1        1.0  0.24999946734689416  0.25000143691252225  0.24999970615194747  1.0000
  V   V2        1.0  0.7500005309614881  0.75000037580742  0.7499987569943488  1.0000
  Ru  Ru1       1.0  0.9999995593612812  0.9999993824886617  4.2728147382030667e-07  1.0000
  Se  Se1       1.0  0.27122200604180163  0.27122184081059  0.72877818580464  1.0000
  Se  Se2       1.0  0.7287783319293917  0.7287773440775369  0.27122258091715595  1.0000
  Se  Se3       1.0  0.7287781936688987  0.2712219417098494  0.2712218832359158  1.0000
  Se  Se4       1.0  0.27122146495883825  0.7287780360081428  0.7287783654910678  1.0000
  Se  Se5       1.0  0.2712221907547952  0.7287777686585127  0.2712216957565639  1.0000
  Se  Se6       1.0  0.7287783840521804  0.2712219343936126  0.7287782226705941  1.0000
