data_image0
_chemical_formula_structural       V2RuO6
_chemical_formula_sum              "V2 Ru1 O6"
_cell_length_a       5.161990349779357
_cell_length_b       5.161990426478298
_cell_length_c       5.161990527397154
_cell_angle_alpha    59.99999921383766
_cell_angle_beta     59.99999987957895
_cell_angle_gamma    59.999998973337604

_space_group_name_H-M_alt    "P 1"
_space_group_IT_number       1

loop_
  _space_group_symop_operation_xyz
  'x, y, z'

loop_
  _atom_site_type_symbol
  _atom_site_label
  _atom_site_symmetry_multiplicity
  _atom_site_fract_x
  _atom_site_fract_y
  _atom_site_fract_z
  _atom_site_occupancy
  V   V1        1.0  0.2500000321946372  0.2499998470832771  0.25000002062213256  1.0000
  V   V2        1.0  0.7500002803180386  0.7500001510135252  0.7499993939042822  1.0000
  Ru  Ru1       1.0  3.118131219343108e-08  7.117863819367627e-09  0.9999999827876495  1.0000
  O   O1        1.0  0.2543944185324061  0.2543942736585049  0.7456057335870089  1.0000
  O   O2        1.0  0.7456054419383824  0.7456058122252893  0.2543944907316979  1.0000
  O   O3        1.0  0.7456056693603548  0.25439421800886464  0.25439448566456435  1.0000
  O   O4        1.0  0.2543942953235209  0.7456056424758982  0.7456057120714422  1.0000
  O   O5        1.0  0.254394091372603  0.7456056285332536  0.25439460771935757  1.0000
  O   O6        1.0  0.7456057429335005  0.25439442176122057  0.7456055757985758  1.0000
