data_image0
_chemical_formula_structural       V2SbTe6
_chemical_formula_sum              "V2 Sb1 Te6"
_cell_length_a       7.414510381225081
_cell_length_b       7.414510381043184
_cell_length_c       7.414510565167633
_cell_angle_alpha    59.99999902676466
_cell_angle_beta     60.00000025623978
_cell_angle_gamma    60.00000088837836

_space_group_name_H-M_alt    "P 1"
_space_group_IT_number       1

loop_
  _space_group_symop_operation_xyz
  'x, y, z'

loop_
  _atom_site_type_symbol
  _atom_site_label
  _atom_site_symmetry_multiplicity
  _atom_site_fract_x
  _atom_site_fract_y
  _atom_site_fract_z
  _atom_site_occupancy
  V   V1        1.0  0.25000008555567776  0.24999985481568868  0.2500000946029686  1.0000
  V   V2        1.0  0.7499999256173525  0.7500001557992136  0.7499999702335594  1.0000
  Sb  Sb1       1.0  0.9999999700486366  0.9999999917408912  4.6079369700011844e-08  1.0000
  Te  Te1       1.0  0.2727058087511386  0.27270573158402606  0.727294217555058  1.0000
  Te  Te2       1.0  0.7272942176337456  0.7272942707717686  0.2727057736723492  1.0000
  Te  Te3       1.0  0.7272941822252885  0.2727057298568953  0.2727058269250692  1.0000
  Te  Te4       1.0  0.2727058175118742  0.7272942543288613  0.727294127368123  1.0000
  Te  Te5       1.0  0.2727058065733763  0.7272942536571898  0.2727057459323304  1.0000
  Te  Te6       1.0  0.7272941859114236  0.2727057569577131  0.7272941960750566  1.0000
