data_image0
_chemical_formula_structural       V2SbS6
_chemical_formula_sum              "V2 Sb1 S6"
_cell_length_a       6.546385010826887
_cell_length_b       6.546384621388175
_cell_length_c       6.546384832316442
_cell_angle_alpha    60.000000677159576
_cell_angle_beta     60.0000010572199
_cell_angle_gamma    59.99999967348846

_space_group_name_H-M_alt    "P 1"
_space_group_IT_number       1

loop_
  _space_group_symop_operation_xyz
  'x, y, z'

loop_
  _atom_site_type_symbol
  _atom_site_label
  _atom_site_symmetry_multiplicity
  _atom_site_fract_x
  _atom_site_fract_y
  _atom_site_fract_z
  _atom_site_occupancy
  V   V1        1.0  0.2499999112504799  0.24999996051314566  0.2500001049528903  1.0000
  V   V2        1.0  0.7499999609152567  0.7499999937917633  0.7499999633708813  1.0000
  Sb  Sb1       1.0  3.497486864656009e-08  0.9999999850330219  0.9999999426416738  1.0000
  S   S1        1.0  0.26338650235651334  0.2633864570332484  0.7366136276038232  1.0000
  S   S2        1.0  0.7366135111148625  0.73661351785126  0.26338664543117507  1.0000
  S   S3        1.0  0.7366135272930798  0.2633865692560331  0.26338636214518646  1.0000
  S   S4        1.0  0.26338641512187305  0.7366135552982408  0.7366135110788241  1.0000
  S   S5        1.0  0.2633864994188177  0.7366134695194101  0.26338641482617287  1.0000
  S   S6        1.0  0.7366136521698  0.26338647730200915  0.7366134396223092  1.0000
