data_image0
_chemical_formula_structural       V2SbO6
_chemical_formula_sum              "V2 Sb1 O6"
_cell_length_a       5.254135406799827
_cell_length_b       5.254135372378833
_cell_length_c       5.254135438510725
_cell_angle_alpha    60.00000097263266
_cell_angle_beta     60.0000015757685
_cell_angle_gamma    60.00000076318376

_space_group_name_H-M_alt    "P 1"
_space_group_IT_number       1

loop_
  _space_group_symop_operation_xyz
  'x, y, z'

loop_
  _atom_site_type_symbol
  _atom_site_label
  _atom_site_symmetry_multiplicity
  _atom_site_fract_x
  _atom_site_fract_y
  _atom_site_fract_z
  _atom_site_occupancy
  V   V1        1.0  0.24999947831222508  0.250000109496969  0.2500002445713489  1.0000
  V   V2        1.0  0.7499996390774073  0.7500002235953986  0.7499997006627241  1.0000
  Sb  Sb1       1.0  7.101578759577071e-08  0.9999999254076407  3.795027729012757e-08  1.0000
  O   O1        1.0  0.2631347408660756  0.2631343693583036  0.7368654343347701  1.0000
  O   O2        1.0  0.7368656308421531  0.7368653786502496  0.26313470348569046  1.0000
  O   O3        1.0  0.7368656105026676  0.2631344168273351  0.2631346282538347  1.0000
  O   O4        1.0  0.26313459087053137  0.7368654663798689  0.7368654471977809  1.0000
  O   O5        1.0  0.2631346532384353  0.7368654714227443  0.2631344487829031  1.0000
  O   O6        1.0  0.7368655768571022  0.2631345959343464  0.7368653793911625  1.0000
