data_image0
_chemical_formula_structural       V2SbSe6
_chemical_formula_sum              "V2 Sb1 Se6"
_cell_length_a       6.541252217248564
_cell_length_b       6.541252075118652
_cell_length_c       6.541251866864596
_cell_angle_alpha    60.000001189754755
_cell_angle_beta     59.999999631599515
_cell_angle_gamma    59.999998601675685

_space_group_name_H-M_alt    "P 1"
_space_group_IT_number       1

loop_
  _space_group_symop_operation_xyz
  'x, y, z'

loop_
  _atom_site_type_symbol
  _atom_site_label
  _atom_site_symmetry_multiplicity
  _atom_site_fract_x
  _atom_site_fract_y
  _atom_site_fract_z
  _atom_site_occupancy
  V   V1        1.0  0.2499999894558366  0.2499999094318922  0.250000032486788  1.0000
  V   V2        1.0  0.749999757545787  0.7500001383381658  0.7500000742879525  1.0000
  Sb  Sb1       1.0  9.397184359357814e-08  0.9999998240000276  3.795654394721306e-08  1.0000
  Se  Se1       1.0  0.2878711273383181  0.2878710012096662  0.7121289471336418  1.0000
  Se  Se2       1.0  0.7121288276610185  0.7121290315816672  0.2878710463152481  1.0000
  Se  Se3       1.0  0.7121290477589453  0.28787102904980993  0.28787105286200987  1.0000
  Se  Se4       1.0  0.2878710546655124  0.712129048677684  0.7121288933265364  1.0000
  Se  Se5       1.0  0.28787114613254466  0.7121289341213746  0.2878709911745676  1.0000
  Se  Se6       1.0  0.7121289543492388  0.2878710911805956  0.7121289241052219  1.0000
