data_image0
_chemical_formula_structural       V2SeO6
_chemical_formula_sum              "V2 Se1 O6"
_cell_length_a       5.080276774568166
_cell_length_b       5.080276846132694
_cell_length_c       5.080276763614796
_cell_angle_alpha    60.00000053722222
_cell_angle_beta     60.00000053161117
_cell_angle_gamma    60.00000025690744

_space_group_name_H-M_alt    "P 1"
_space_group_IT_number       1

loop_
  _space_group_symop_operation_xyz
  'x, y, z'

loop_
  _atom_site_type_symbol
  _atom_site_label
  _atom_site_symmetry_multiplicity
  _atom_site_fract_x
  _atom_site_fract_y
  _atom_site_fract_z
  _atom_site_occupancy
  V   V1        1.0  0.2500000574333325  0.2499999415560993  0.2500000600709159  1.0000
  V   V2        1.0  0.7500001262666659  0.7499998945810261  0.7499998493927843  1.0000
  Se  Se1       1.0  0.9999999668241832  3.134018834471525e-08  0.999999975328657  1.0000
  O   O1        1.0  0.24716286234957713  0.24716300516603837  0.7528370467063207  1.0000
  O   O2        1.0  0.7528370732093447  0.7528370503524051  0.24716298539907608  1.0000
  O   O3        1.0  0.75283703893214  0.24716294824740714  0.24716292684191046  1.0000
  O   O4        1.0  0.24716292847115914  0.7528370662877131  0.7528371295169263  1.0000
  O   O5        1.0  0.24716289414956535  0.7528370599353786  0.2471629554086077  1.0000
  O   O6        1.0  0.7528370420750758  0.2471630004046323  0.7528370818267325  1.0000
