data_image0
_chemical_formula_structural       V2SeS6
_chemical_formula_sum              "V2 Se1 S6"
_cell_length_a       6.091095320214297
_cell_length_b       6.091095076569973
_cell_length_c       6.091095342703197
_cell_angle_alpha    60.00000024278219
_cell_angle_beta     60.00000166755344
_cell_angle_gamma    59.99999966814104

_space_group_name_H-M_alt    "P 1"
_space_group_IT_number       1

loop_
  _space_group_symop_operation_xyz
  'x, y, z'

loop_
  _atom_site_type_symbol
  _atom_site_label
  _atom_site_symmetry_multiplicity
  _atom_site_fract_x
  _atom_site_fract_y
  _atom_site_fract_z
  _atom_site_occupancy
  V   V1        1.0  0.2499999487248142  0.249999963704895  0.2500000370001774  1.0000
  V   V2        1.0  0.7499999756188477  0.7499999293182467  0.7500000321017737  1.0000
  Se  Se1       1.0  0.9999999507113049  0.9999999999999993  0.9999999671834178  1.0000
  S   S1        1.0  0.25547199941287374  0.25547192032054544  0.7445280102858763  1.0000
  S   S2        1.0  0.7445279723992971  0.7445280350347233  0.2554720203331664  1.0000
  S   S3        1.0  0.7445281021816088  0.2554719390268457  0.2554718514135689  1.0000
  S   S4        1.0  0.2554719270934485  0.7445281510462468  0.7445281569934591  1.0000
  S   S5        1.0  0.2554719892070939  0.7445281429839359  0.25547177927898773  1.0000
  S   S6        1.0  0.7445281488139146  0.2554719108963078  0.744528130465338  1.0000
