data_image0
_chemical_formula_structural       V2SiTe6
_chemical_formula_sum              "V2 Si1 Te6"
_cell_length_a       7.127006422631426
_cell_length_b       7.1270063744079915
_cell_length_c       7.127006391514674
_cell_angle_alpha    60.00000009726207
_cell_angle_beta     60.00000008496088
_cell_angle_gamma    59.999999862409744

_space_group_name_H-M_alt    "P 1"
_space_group_IT_number       1

loop_
  _space_group_symop_operation_xyz
  'x, y, z'

loop_
  _atom_site_type_symbol
  _atom_site_label
  _atom_site_symmetry_multiplicity
  _atom_site_fract_x
  _atom_site_fract_y
  _atom_site_fract_z
  _atom_site_occupancy
  V   V1        1.0  0.250000050630642  0.24999991941327998  0.25000006911307865  1.0000
  V   V2        1.0  0.7500000450051039  0.7500000108529098  0.7500000110021107  1.0000
  Si  Si1       1.0  3.8606247770103884e-08  0.9999999862523501  5.912949755378013e-08  1.0000
  Te  Te1       1.0  0.2572067187799521  0.2572066913029985  0.7427932935706951  1.0000
  Te  Te2       1.0  0.7427932358498875  0.7427933266044604  0.25720673745867556  1.0000
  Te  Te3       1.0  0.7427933107465702  0.2572066988674921  0.2572066656532928  1.0000
  Te  Te4       1.0  0.2572066822115392  0.7427932915446664  0.7427932420980459  1.0000
  Te  Te5       1.0  0.25720666577676254  0.7427933368613931  0.2572066826358176  1.0000
  Te  Te6       1.0  0.7427932483149504  0.2572067394735785  0.7427932342153358  1.0000
