data_image0
_chemical_formula_structural       V2SiSe6
_chemical_formula_sum              "V2 Si1 Se6"
_cell_length_a       6.28380373219307
_cell_length_b       6.283804100991277
_cell_length_c       6.2838041240558535
_cell_angle_alpha    60.00000055123218
_cell_angle_beta     60.00000050537597
_cell_angle_gamma    60.00000084127637

_space_group_name_H-M_alt    "P 1"
_space_group_IT_number       1

loop_
  _space_group_symop_operation_xyz
  'x, y, z'

loop_
  _atom_site_type_symbol
  _atom_site_label
  _atom_site_symmetry_multiplicity
  _atom_site_fract_x
  _atom_site_fract_y
  _atom_site_fract_z
  _atom_site_occupancy
  V   V1        1.0  0.24999984364135763  0.24999996538363536  0.2500003336313934  1.0000
  V   V2        1.0  0.7499997920486751  0.7499997577683543  0.7500000594829972  1.0000
  Si  Si1       1.0  3.359884256690776e-09  0.9999999844075997  0.9999999886109383  1.0000
  Se  Se1       1.0  0.26094424980049963  0.26094414917629577  0.7390556375698712  1.0000
  Se  Se2       1.0  0.7390557358229688  0.7390558858236977  0.2609440602248802  1.0000
  Se  Se3       1.0  0.7390559793985014  0.26094424642295877  0.26094412310867593  1.0000
  Se  Se4       1.0  0.26094443727649924  0.739055829507082  0.739055760414359  1.0000
  Se  Se5       1.0  0.26094410888037095  0.7390557466921432  0.2609443125234605  1.0000
  Se  Se6       1.0  0.7390558519054239  0.2609444344866018  0.7390557192661413  1.0000
