data_image0
_chemical_formula_structural       V2SiO6
_chemical_formula_sum              "V2 Si1 O6"
_cell_length_a       4.962853600654254
_cell_length_b       4.96285386411982
_cell_length_c       4.962853692886342
_cell_angle_alpha    60.000000800592176
_cell_angle_beta     59.999999953911406
_cell_angle_gamma    59.999999781037886

_space_group_name_H-M_alt    "P 1"
_space_group_IT_number       1

loop_
  _space_group_symop_operation_xyz
  'x, y, z'

loop_
  _atom_site_type_symbol
  _atom_site_label
  _atom_site_symmetry_multiplicity
  _atom_site_fract_x
  _atom_site_fract_y
  _atom_site_fract_z
  _atom_site_occupancy
  V   V1        1.0  0.25000019215542874  0.2500000487432432  0.24999979606925765  1.0000
  V   V2        1.0  0.7500003118210732  0.7499995860337447  0.7499998550325552  1.0000
  Si  Si1       1.0  7.983931791318796e-10  3.948517962682295e-08  1.6127668763590862e-08  1.0000
  O   O1        1.0  0.24819994312518634  0.2482003211410799  0.7517999281618999  1.0000
  O   O2        1.0  0.7517998187468776  0.7517998368145514  0.2482002092021465  1.0000
  O   O3        1.0  0.7517998996101721  0.24820009698212966  0.24820021324457933  1.0000
  O   O4        1.0  0.24820001779913425  0.751799957324902  0.7517998780254493  1.0000
  O   O5        1.0  0.24820016055802419  0.7517998344934445  0.24820010376031268  1.0000
  O   O6        1.0  0.7517996766148374  0.24820027904135816  0.7518000403284169  1.0000
