data_image0
_chemical_formula_structural       V2SiS6
_chemical_formula_sum              "V2 Si1 S6"
_cell_length_a       5.925324484559164
_cell_length_b       5.925324196215944
_cell_length_c       5.925324618425094
_cell_angle_alpha    60.00000283855719
_cell_angle_beta     59.99999907134921
_cell_angle_gamma    59.99999939851718

_space_group_name_H-M_alt    "P 1"
_space_group_IT_number       1

loop_
  _space_group_symop_operation_xyz
  'x, y, z'

loop_
  _atom_site_type_symbol
  _atom_site_label
  _atom_site_symmetry_multiplicity
  _atom_site_fract_x
  _atom_site_fract_y
  _atom_site_fract_z
  _atom_site_occupancy
  V   V1        1.0  0.2500000657893254  0.24999998649920627  0.24999980794479365  1.0000
  V   V2        1.0  0.7499997176566963  0.7500001124531778  0.749999747541017  1.0000
  Si  Si1       1.0  4.0933660447248904e-09  5.7875077963538744e-08  9.390345269493513e-08  1.0000
  S   S1        1.0  0.25795475240671983  0.2579548867706738  0.7420450740032115  1.0000
  S   S2        1.0  0.742045039877937  0.742045191512068  0.25795492450495516  1.0000
  S   S3        1.0  0.7420452994951917  0.25795441592670376  0.2579552625919512  1.0000
  S   S4        1.0  0.2579547648149177  0.7420452613644976  0.7420451885636306  1.0000
  S   S5        1.0  0.25795515416294257  0.7420450547611348  0.2579547486084312  1.0000
  S   S6        1.0  0.7420452070602317  0.25795499458407684  0.7420451824197897  1.0000
