data_image0
_chemical_formula_structural       V2SnSe6
_chemical_formula_sum              "V2 Sn1 Se6"
_cell_length_a       6.599212216398256
_cell_length_b       6.599212448049946
_cell_length_c       6.599212326311305
_cell_angle_alpha    59.99999967220018
_cell_angle_beta     60.00000100193522
_cell_angle_gamma    59.999998630290676

_space_group_name_H-M_alt    "P 1"
_space_group_IT_number       1

loop_
  _space_group_symop_operation_xyz
  'x, y, z'

loop_
  _atom_site_type_symbol
  _atom_site_label
  _atom_site_symmetry_multiplicity
  _atom_site_fract_x
  _atom_site_fract_y
  _atom_site_fract_z
  _atom_site_occupancy
  V   V1        1.0  0.25000016902557415  0.25000007169115  0.24999987426381892  1.0000
  V   V2        1.0  0.7499997596857143  0.7500001055756278  0.7500002421677413  1.0000
  Sn  Sn1       1.0  1.8398181564377654e-08  4.45414924747114e-08  0.9999999427695128  1.0000
  Se  Se1       1.0  0.2790809082292016  0.2790805926318438  0.720919266578591  1.0000
  Se  Se2       1.0  0.720919231714428  0.7209191819056033  0.27908084104353664  1.0000
  Se  Se3       1.0  0.7209191711972377  0.2790808908601299  0.27908066656897274  1.0000
  Se  Se4       1.0  0.27908079779483574  0.7209192233062036  0.7209192021505845  1.0000
  Se  Se5       1.0  0.2790808873921212  0.7209191804881581  0.2790805750272065  1.0000
  Se  Se6       1.0  0.7209190759656735  0.2790807091148182  0.7209193769691905  1.0000
