data_image0
_chemical_formula_structural       V2SnO6
_chemical_formula_sum              "V2 Sn1 O6"
_cell_length_a       5.236296404961283
_cell_length_b       5.236296368633889
_cell_length_c       5.236296564747907
_cell_angle_alpha    59.999999688458814
_cell_angle_beta     59.99999900070046
_cell_angle_gamma    59.99999910337618

_space_group_name_H-M_alt    "P 1"
_space_group_IT_number       1

loop_
  _space_group_symop_operation_xyz
  'x, y, z'

loop_
  _atom_site_type_symbol
  _atom_site_label
  _atom_site_symmetry_multiplicity
  _atom_site_fract_x
  _atom_site_fract_y
  _atom_site_fract_z
  _atom_site_occupancy
  V   V1        1.0  0.24999986249079204  0.24999985068309716  0.2500003490739164  1.0000
  V   V2        1.0  0.7499999497568867  0.7500002513960969  0.7499998537239969  1.0000
  Sn  Sn1       1.0  1.3475696461007298e-08  2.5728478682263242e-08  4.150980649180585e-08  1.0000
  O   O1        1.0  0.2690484130880051  0.2690483322136574  0.7309516264389876  1.0000
  O   O2        1.0  0.7309516796005361  0.7309515570208512  0.26904841460780776  1.0000
  O   O3        1.0  0.7309515518645207  0.2690482572195592  0.2690484315048045  1.0000
  O   O4        1.0  0.2690484294716535  0.7309517279120037  0.7309515122335803  1.0000
  O   O5        1.0  0.26904833817488244  0.7309516973451824  0.2690482852036023  1.0000
  O   O6        1.0  0.73095179246803  0.2690482831084737  0.7309514907330328  1.0000
