data_image0
_chemical_formula_structural       V2SnS6
_chemical_formula_sum              "V2 Sn1 S6"
_cell_length_a       6.399555692043894
_cell_length_b       6.399555696299808
_cell_length_c       6.399555283662005
_cell_angle_alpha    60.000001929706094
_cell_angle_beta     60.00000061769827
_cell_angle_gamma    60.00000140841317

_space_group_name_H-M_alt    "P 1"
_space_group_IT_number       1

loop_
  _space_group_symop_operation_xyz
  'x, y, z'

loop_
  _atom_site_type_symbol
  _atom_site_label
  _atom_site_symmetry_multiplicity
  _atom_site_fract_x
  _atom_site_fract_y
  _atom_site_fract_z
  _atom_site_occupancy
  V   V1        1.0  0.2500002177413664  0.24999979100128686  0.2499999546346238  1.0000
  V   V2        1.0  0.7499999960074459  0.7500003107642311  0.7499997892615792  1.0000
  Sn  Sn1       1.0  0.9999999230135468  6.315529010676766e-08  2.2277565902301093e-09  1.0000
  S   S1        1.0  0.2687895207887755  0.2687890562078073  0.7312108387423684  1.0000
  S   S2        1.0  0.7312106436267887  0.7312108254710933  0.26878929925679257  1.0000
  S   S3        1.0  0.7312105777371555  0.26878916242256906  0.26878954675816846  1.0000
  S   S4        1.0  0.26878927086494964  0.731210627394089  0.7312105481866913  1.0000
  S   S5        1.0  0.26878922708414116  0.731210790436771  0.26878942508669884  1.0000
  S   S6        1.0  0.7312105957034349  0.26878940701857995  0.7312105805156365  1.0000
