data_image0
_chemical_formula_structural       V2SnTe6
_chemical_formula_sum              "V2 Sn1 Te6"
_cell_length_a       7.380666194931368
_cell_length_b       7.380666266104991
_cell_length_c       7.3806662655089585
_cell_angle_alpha    60.000000159203694
_cell_angle_beta     59.99999981221984
_cell_angle_gamma    60.00000035336114

_space_group_name_H-M_alt    "P 1"
_space_group_IT_number       1

loop_
  _space_group_symop_operation_xyz
  'x, y, z'

loop_
  _atom_site_type_symbol
  _atom_site_label
  _atom_site_symmetry_multiplicity
  _atom_site_fract_x
  _atom_site_fract_y
  _atom_site_fract_z
  _atom_site_occupancy
  V   V1        1.0  0.24999994771052725  0.2500000129164532  0.2500000252714902  1.0000
  V   V2        1.0  0.7500000747580545  0.7499998977006933  0.750000029170676  1.0000
  Sn  Sn1       1.0  2.592137781039979e-09  0.9999999734496627  1.4688882175597987e-08  1.0000
  Te  Te1       1.0  0.2708711913079589  0.270871238705264  0.7291287888952422  1.0000
  Te  Te2       1.0  0.7291287767964447  0.729128788069608  0.27087121839145567  1.0000
  Te  Te3       1.0  0.7291288041296199  0.27087123750674036  0.2708711746701136  1.0000
  Te  Te4       1.0  0.2708711967179652  0.7291288224560531  0.729128754939622  1.0000
  Te  Te5       1.0  0.27087119817044486  0.7291288069309088  0.27087119709921964  1.0000
  Te  Te6       1.0  0.7291288012238317  0.27087121984396323  0.7291287945425419  1.0000
