data_image0
_chemical_formula_structural       V2SO6
_chemical_formula_sum              "V2 S1 O6"
_cell_length_a       4.87990282437084
_cell_length_b       4.879905833211697
_cell_length_c       4.879904716896711
_cell_angle_alpha    59.99999867352914
_cell_angle_beta     59.99999260701683
_cell_angle_gamma    60.00000923954433

_space_group_name_H-M_alt    "P 1"
_space_group_IT_number       1

loop_
  _space_group_symop_operation_xyz
  'x, y, z'

loop_
  _atom_site_type_symbol
  _atom_site_label
  _atom_site_symmetry_multiplicity
  _atom_site_fract_x
  _atom_site_fract_y
  _atom_site_fract_z
  _atom_site_occupancy
  V   V1        1.0  0.2500016132909886  0.24999961529891104  0.24999919915884175  1.0000
  V   V2        1.0  0.7499998421833375  0.7500006353636418  0.7499992261782035  1.0000
  S   S1        1.0  0.9999999248545595  0.9999999698827389  8.746809554040175e-08  1.0000
  O   O1        1.0  0.23855611759255435  0.2385549444853787  0.7614452031317595  1.0000
  O   O2        1.0  0.7614435501346385  0.7614450401411947  0.23855588437461753  1.0000
  O   O3        1.0  0.7614441273754265  0.23855572215074297  0.23855557037368666  1.0000
  O   O4        1.0  0.23855546035066397  0.7614444456892728  0.7614443487014197  1.0000
  O   O5        1.0  0.2385552385461181  0.7614439745670744  0.238556026628948  1.0000
  O   O6        1.0  0.7614442833192032  0.23855551061511865  0.7614444142493619  1.0000
