data_image0
_chemical_formula_structural       V2TaO6
_chemical_formula_sum              "V2 Ta1 O6"
_cell_length_a       5.185790866352267
_cell_length_b       5.185790919887296
_cell_length_c       5.18579110473797
_cell_angle_alpha    60.00000167466465
_cell_angle_beta     60.00000047009731
_cell_angle_gamma    60.00000007441528

_space_group_name_H-M_alt    "P 1"
_space_group_IT_number       1

loop_
  _space_group_symop_operation_xyz
  'x, y, z'

loop_
  _atom_site_type_symbol
  _atom_site_label
  _atom_site_symmetry_multiplicity
  _atom_site_fract_x
  _atom_site_fract_y
  _atom_site_fract_z
  _atom_site_occupancy
  V   V1        1.0  0.2499996775360299  0.2500003128729728  0.2500002217532277  1.0000
  V   V2        1.0  0.7500004546547976  0.7499998120727003  0.7499995822615819  1.0000
  Ta  Ta1       1.0  0.9999999808823526  0.9999999905530725  3.16374017199848e-08  1.0000
  O   O1        1.0  0.26427070278138787  0.2642710696632882  0.7357290993995329  1.0000
  O   O2        1.0  0.7357292525152546  0.7357289513661827  0.2642710455684589  1.0000
  O   O3        1.0  0.7357290499004228  0.26427087418649203  0.2642709595789345  1.0000
  O   O4        1.0  0.2642709264935627  0.7357291303108503  0.7357290153403403  1.0000
  O   O5        1.0  0.2642707783892857  0.735728965092433  0.26427105295669234  1.0000
  O   O6        1.0  0.7357291658667404  0.2642708953392553  0.7357289927092705  1.0000
