data_image0
_chemical_formula_structural       V2TaTe6
_chemical_formula_sum              "V2 Ta1 Te6"
_cell_length_a       7.250525900381349
_cell_length_b       7.250525990059874
_cell_length_c       7.250525889967183
_cell_angle_alpha    60.000000411697904
_cell_angle_beta     60.000000332974935
_cell_angle_gamma    60.00000031150574

_space_group_name_H-M_alt    "P 1"
_space_group_IT_number       1

loop_
  _space_group_symop_operation_xyz
  'x, y, z'

loop_
  _atom_site_type_symbol
  _atom_site_label
  _atom_site_symmetry_multiplicity
  _atom_site_fract_x
  _atom_site_fract_y
  _atom_site_fract_z
  _atom_site_occupancy
  V   V1        1.0  0.2499999571330177  0.24999994675592174  0.2500000781652044  1.0000
  V   V2        1.0  0.7500000628750424  0.7500000159425592  0.74999995023787  1.0000
  Ta  Ta1       1.0  0.9999999983273942  0.99999997635147  2.0935829718320704e-08  1.0000
  Te  Te1       1.0  0.26300716658818424  0.2630071559954103  0.7369928364323391  1.0000
  Te  Te2       1.0  0.7369928355785851  0.7369928793378412  0.26300714940268216  1.0000
  Te  Te3       1.0  0.7369928323021482  0.26300715723133816  0.2630071656566445  1.0000
  Te  Te4       1.0  0.263007138479578  0.7369928814802748  0.7369928217688247  1.0000
  Te  Te5       1.0  0.2630071193634514  0.7369928535170843  0.26300715073212  1.0000
  Te  Te6       1.0  0.736992888450495  0.26300713620828803  0.7369928233614155  1.0000
