data_image0
_chemical_formula_structural       V2TaS6
_chemical_formula_sum              "V2 Ta1 S6"
_cell_length_a       6.275212662330307
_cell_length_b       6.27521268922714
_cell_length_c       6.2752125047866185
_cell_angle_alpha    60.00000134227112
_cell_angle_beta     60.000000822285486
_cell_angle_gamma    59.99999985689137

_space_group_name_H-M_alt    "P 1"
_space_group_IT_number       1

loop_
  _space_group_symop_operation_xyz
  'x, y, z'

loop_
  _atom_site_type_symbol
  _atom_site_label
  _atom_site_symmetry_multiplicity
  _atom_site_fract_x
  _atom_site_fract_y
  _atom_site_fract_z
  _atom_site_occupancy
  V   V1        1.0  0.2500000767534835  0.24999998550689034  0.24999996598483434  1.0000
  V   V2        1.0  0.7499999764735833  0.7500000775272201  0.7500000249003809  1.0000
  Ta  Ta1       1.0  6.505728611926236e-09  0.9999999804828148  0.9999999300142948  1.0000
  S   S1        1.0  0.26617188542684145  0.26617189944592523  0.7338281107157507  1.0000
  S   S2        1.0  0.7338281111303566  0.7338280796642909  0.26617188831705596  1.0000
  S   S3        1.0  0.7338281515213302  0.2661718130183814  0.2661718932989137  1.0000
  S   S4        1.0  0.26617178853178675  0.7338281699952726  0.7338281798413608  1.0000
  S   S5        1.0  0.26617183696004626  0.7338281738744132  0.26617184758463913  1.0000
  S   S6        1.0  0.733828177235937  0.2661718130426766  0.7338281530674822  1.0000
