data_image0
_chemical_formula_structural       V2TaO6
_chemical_formula_sum              "V2 Ta1 O6"
_cell_length_a       5.18584531112562
_cell_length_b       5.185845363368385
_cell_length_c       5.185845359369843
_cell_angle_alpha    60.00000183093424
_cell_angle_beta     60.00000131466992
_cell_angle_gamma    60.00000167322459

_space_group_name_H-M_alt    "P 1"
_space_group_IT_number       1

loop_
  _space_group_symop_operation_xyz
  'x, y, z'

loop_
  _atom_site_type_symbol
  _atom_site_label
  _atom_site_symmetry_multiplicity
  _atom_site_fract_x
  _atom_site_fract_y
  _atom_site_fract_z
  _atom_site_occupancy
  V   V1        1.0  0.24999980140498457  0.25000042739185696  0.24999972823111127  1.0000
  V   V2        1.0  0.7499999246856935  0.7499999879600162  0.7499996506270924  1.0000
  Ta  Ta1       1.0  1.0886232355927308e-08  0.9999999740212211  3.839948772570834e-08  1.0000
  O   O1        1.0  0.2642715284194699  0.26427155355325743  0.7357285084045124  1.0000
  O   O2        1.0  0.7357286035140759  0.7357282855420664  0.2642717269908954  1.0000
  O   O3        1.0  0.7357285017441417  0.26427146241724714  0.2642716401573381  1.0000
  O   O4        1.0  0.2642716585067162  0.735728331805639  0.7357285649491141  1.0000
  O   O5        1.0  0.2642715593517963  0.7357284124299566  0.2642715791494692  1.0000
  O   O6        1.0  0.7357284072006709  0.26427157545291985  0.7357285469148208  1.0000
