data_image0
_chemical_formula_structural       V2TaSe6
_chemical_formula_sum              "V2 Ta1 Se6"
_cell_length_a       6.65465253124613
_cell_length_b       6.654652370089511
_cell_length_c       6.654652408409433
_cell_angle_alpha    59.99999882195722
_cell_angle_beta     59.99999948571308
_cell_angle_gamma    60.000000069238816

_space_group_name_H-M_alt    "P 1"
_space_group_IT_number       1

loop_
  _space_group_symop_operation_xyz
  'x, y, z'

loop_
  _atom_site_type_symbol
  _atom_site_label
  _atom_site_symmetry_multiplicity
  _atom_site_fract_x
  _atom_site_fract_y
  _atom_site_fract_z
  _atom_site_occupancy
  V   V1        1.0  0.24999997139246477  0.2500001320319201  0.24999996921077866  1.0000
  V   V2        1.0  0.7500000796420611  0.7499998476464156  0.7499998391561783  1.0000
  Ta  Ta1       1.0  1.6440590336775823e-08  0.9999999871169616  2.9778093845023266e-08  1.0000
  Se  Se1       1.0  0.26405760660650945  0.2640577413518031  0.7359423130279625  1.0000
  Se  Se2       1.0  0.7359423254705587  0.7359423193056279  0.2640577442425136  1.0000
  Se  Se3       1.0  0.7359422736432046  0.2640577049423958  0.26405771999110583  1.0000
  Se  Se4       1.0  0.2640577887496913  0.7359422250442188  0.7359423539866535  1.0000
  Se  Se5       1.0  0.26405765212304394  0.7359422761725009  0.2640577441232197  1.0000
  Se  Se6       1.0  0.7359422832319268  0.26405776424015576  0.735942297587363  1.0000
