data_image0
_chemical_formula_structural       V2TaTe6
_chemical_formula_sum              "V2 Ta1 Te6"
_cell_length_a       7.250685311616867
_cell_length_b       7.25068540256058
_cell_length_c       7.25068532940262
_cell_angle_alpha    59.999999980014344
_cell_angle_beta     60.0000010094156
_cell_angle_gamma    59.999999874511936

_space_group_name_H-M_alt    "P 1"
_space_group_IT_number       1

loop_
  _space_group_symop_operation_xyz
  'x, y, z'

loop_
  _atom_site_type_symbol
  _atom_site_label
  _atom_site_symmetry_multiplicity
  _atom_site_fract_x
  _atom_site_fract_y
  _atom_site_fract_z
  _atom_site_occupancy
  V   V1        1.0  0.2500000709989482  0.25000003888243383  0.24999992373613644  1.0000
  V   V2        1.0  0.750000016714299  0.7499999984072508  0.7500000001870647  1.0000
  Ta  Ta1       1.0  0.9999999737465322  4.053944627988626e-08  0.9999999818235706  1.0000
  Te  Te1       1.0  0.26303134211906853  0.2630313991356734  0.736968625402964  1.0000
  Te  Te2       1.0  0.7369685801798161  0.7369685993037101  0.26303136617306844  1.0000
  Te  Te3       1.0  0.7369685930544587  0.2630313916669483  0.26303138020582095  1.0000
  Te  Te4       1.0  0.26303136748195766  0.7369685780569936  0.7369686590180058  1.0000
  Te  Te5       1.0  0.263031377717743  0.7369686511655521  0.2630313722601861  1.0000
  Te  Te6       1.0  0.736968675942241  0.26303130673438374  0.7369686897561396  1.0000
