data_image0
_chemical_formula_structural       V2TaS6
_chemical_formula_sum              "V2 Ta1 S6"
_cell_length_a       6.275253572723721
_cell_length_b       6.275253482215691
_cell_length_c       6.275253534610501
_cell_angle_alpha    60.00000003469616
_cell_angle_beta     60.00000124914006
_cell_angle_gamma    59.99999914128185

_space_group_name_H-M_alt    "P 1"
_space_group_IT_number       1

loop_
  _space_group_symop_operation_xyz
  'x, y, z'

loop_
  _atom_site_type_symbol
  _atom_site_label
  _atom_site_symmetry_multiplicity
  _atom_site_fract_x
  _atom_site_fract_y
  _atom_site_fract_z
  _atom_site_occupancy
  V   V1        1.0  0.24999996490420684  0.2500000471033398  0.2499999794643678  1.0000
  V   V2        1.0  0.7499999523708373  0.7500000124974342  0.7500000345256103  1.0000
  Ta  Ta1       1.0  0.9999999445550327  4.488923456987032e-08  0.9999999861551326  1.0000
  S   S1        1.0  0.26617209457558944  0.2661720880965519  0.7338279058825357  1.0000
  S   S2        1.0  0.7338279346864371  0.7338278563535773  0.26617206506956265  1.0000
  S   S3        1.0  0.7338279123084986  0.26617209737713354  0.2661721145603696  1.0000
  S   S4        1.0  0.26617215992607174  0.7338278451212894  0.7338279028108773  1.0000
  S   S5        1.0  0.2661720407563998  0.7338279780414784  0.26617202453310074  1.0000
  S   S6        1.0  0.7338280032996312  0.2661720269115313  0.7338279709194391  1.0000
