data_image0
_chemical_formula_structural       V2TeO6
_chemical_formula_sum              "V2 Te1 O6"
_cell_length_a       5.223961485788729
_cell_length_b       5.223961364944567
_cell_length_c       5.223961402390874
_cell_angle_alpha    60.000000653542735
_cell_angle_beta     60.00000005256608
_cell_angle_gamma    59.99999991352185

_space_group_name_H-M_alt    "P 1"
_space_group_IT_number       1

loop_
  _space_group_symop_operation_xyz
  'x, y, z'

loop_
  _atom_site_type_symbol
  _atom_site_label
  _atom_site_symmetry_multiplicity
  _atom_site_fract_x
  _atom_site_fract_y
  _atom_site_fract_z
  _atom_site_occupancy
  V   V1        1.0  0.25000012623185536  0.24999997466976434  0.24999993670489518  1.0000
  V   V2        1.0  0.75000006289666  0.7500001021894177  0.7499996932412363  1.0000
  Te  Te1       1.0  0.9999999851516558  4.4545032063692804e-08  1.577975407333644e-08  1.0000
  O   O1        1.0  0.2571666549859495  0.2571665705257086  0.7428334124786451  1.0000
  O   O2        1.0  0.742833351128243  0.7428334055210374  0.25716669628994004  1.0000
  O   O3        1.0  0.7428333829269455  0.25716655335374716  0.257166670435223  1.0000
  O   O4        1.0  0.2571665528799406  0.7428333617366392  0.7428334580230487  1.0000
  O   O5        1.0  0.25716652632121006  0.7428333489268308  0.25716669065203235  1.0000
  O   O6        1.0  0.7428333680896164  0.2571666505646685  0.74283342778925  1.0000
