data_image0
_chemical_formula_structural       V2TeS6
_chemical_formula_sum              "V2 Te1 S6"
_cell_length_a       6.549965626783234
_cell_length_b       6.549965207476712
_cell_length_c       6.549964658022903
_cell_angle_alpha    59.999999981471255
_cell_angle_beta     59.99999887676091
_cell_angle_gamma    59.999998696686625

_space_group_name_H-M_alt    "P 1"
_space_group_IT_number       1

loop_
  _space_group_symop_operation_xyz
  'x, y, z'

loop_
  _atom_site_type_symbol
  _atom_site_label
  _atom_site_symmetry_multiplicity
  _atom_site_fract_x
  _atom_site_fract_y
  _atom_site_fract_z
  _atom_site_occupancy
  V   V1        1.0  0.25000002763307405  0.2500000122353656  0.2500002047953001  1.0000
  V   V2        1.0  0.7500001009377947  0.7500000460553531  0.7499995945796861  1.0000
  Te  Te1       1.0  1.4531040247039555e-08  0.9999999775618065  2.0747560176094444e-08  1.0000
  S   S1        1.0  0.2567727804062011  0.2567732325884047  0.7432269400681325  1.0000
  S   S2        1.0  0.7432269156953109  0.7432270706525907  0.25677301566216576  1.0000
  S   S3        1.0  0.7432270845094752  0.2567727053294939  0.25677323622936754  1.0000
  S   S4        1.0  0.25677312462373925  0.7432271958938695  0.7432268181931858  1.0000
  S   S5        1.0  0.2567728155444292  0.7432268206609803  0.2567731951210782  1.0000
  S   S6        1.0  0.7432271286908629  0.2567729814603636  0.7432269405375577  1.0000
