data_image0
_chemical_formula_structural       V2TeSe6
_chemical_formula_sum              "V2 Te1 Se6"
_cell_length_a       6.508974684084192
_cell_length_b       6.508974748687681
_cell_length_c       6.508974824921059
_cell_angle_alpha    60.00000040796532
_cell_angle_beta     59.999999619945214
_cell_angle_gamma    60.000000746932834

_space_group_name_H-M_alt    "P 1"
_space_group_IT_number       1

loop_
  _space_group_symop_operation_xyz
  'x, y, z'

loop_
  _atom_site_type_symbol
  _atom_site_label
  _atom_site_symmetry_multiplicity
  _atom_site_fract_x
  _atom_site_fract_y
  _atom_site_fract_z
  _atom_site_occupancy
  V   V1        1.0  0.249999855394076  0.24999998676984725  0.250000182075543  1.0000
  V   V2        1.0  0.7500001049657349  0.7499997702654304  0.7499998049473798  1.0000
  Te  Te1       1.0  0.9999999972052571  0.9999999604858784  4.727221619773066e-08  1.0000
  Se  Se1       1.0  0.2954008252389636  0.2954010525917035  0.7045990474903919  1.0000
  Se  Se2       1.0  0.7045991434649846  0.7045990732420465  0.295401039793195  1.0000
  Se  Se3       1.0  0.7045991304719298  0.2954009420414867  0.29540090359197896  1.0000
  Se  Se4       1.0  0.29540100178250867  0.704599134870017  0.7045989957885649  1.0000
  Se  Se5       1.0  0.29540084851497633  0.7045990583160678  0.29540096788235165  1.0000
  Se  Se6       1.0  0.7045990835803708  0.2954010336484336  0.7045990056151556  1.0000
