data_image0
_chemical_formula_structural       V2TiSe6
_chemical_formula_sum              "V2 Ti1 Se6"
_cell_length_a       6.53431102817042
_cell_length_b       6.534310868926017
_cell_length_c       6.534310812736964
_cell_angle_alpha    60.000002057469864
_cell_angle_beta     60.00000039570181
_cell_angle_gamma    60.000000252781206

_space_group_name_H-M_alt    "P 1"
_space_group_IT_number       1

loop_
  _space_group_symop_operation_xyz
  'x, y, z'

loop_
  _atom_site_type_symbol
  _atom_site_label
  _atom_site_symmetry_multiplicity
  _atom_site_fract_x
  _atom_site_fract_y
  _atom_site_fract_z
  _atom_site_occupancy
  V   V1        1.0  0.24999987690740436  0.2500000410511781  0.25000000994495614  1.0000
  V   V2        1.0  0.7500000741872792  0.7499999113543616  0.7500003027192692  1.0000
  Ti  Ti1       1.0  0.999999979881572  9.746510636003311e-08  0.9999998373656167  1.0000
  Se  Se1       1.0  0.26158845448217777  0.2615885619833049  0.7384115990761817  1.0000
  Se  Se2       1.0  0.7384115119991361  0.7384113866735719  0.26158849198501755  1.0000
  Se  Se3       1.0  0.738411488400251  0.2615885673136498  0.26158837682425334  1.0000
  Se  Se4       1.0  0.26158843520427766  0.7384114675623599  0.7384115992123936  1.0000
  Se  Se5       1.0  0.26158862590039805  0.7384115204536086  0.2615883618229949  1.0000
  Se  Se6       1.0  0.7384115475316331  0.2615884488208821  0.7384114272168948  1.0000
