data_image0
_chemical_formula_structural       V2TiTe6
_chemical_formula_sum              "V2 Ti1 Te6"
_cell_length_a       7.146114452839298
_cell_length_b       7.146114575265898
_cell_length_c       7.146114610904091
_cell_angle_alpha    60.00000055424908
_cell_angle_beta     60.00000007635175
_cell_angle_gamma    60.000001696739254

_space_group_name_H-M_alt    "P 1"
_space_group_IT_number       1

loop_
  _space_group_symop_operation_xyz
  'x, y, z'

loop_
  _atom_site_type_symbol
  _atom_site_label
  _atom_site_symmetry_multiplicity
  _atom_site_fract_x
  _atom_site_fract_y
  _atom_site_fract_z
  _atom_site_occupancy
  V   V1        1.0  0.2499999303412729  0.25000013123205944  0.2499998803774468  1.0000
  V   V2        1.0  0.7499999563861967  0.7499999412368235  0.7500001583104352  1.0000
  Ti  Ti1       1.0  2.7959432706329976e-08  0.9999999742920825  6.04461628054384e-08  1.0000
  Te  Te1       1.0  0.26082113974324345  0.26082109539141707  0.739178925898118  1.0000
  Te  Te2       1.0  0.7391789010467472  0.7391788348269872  0.26082107050033565  1.0000
  Te  Te3       1.0  0.7391788677838471  0.2608211619632957  0.2608211345790977  1.0000
  Te  Te4       1.0  0.2608211663131003  0.7391788368095571  0.73917882808993  1.0000
  Te  Te5       1.0  0.26082115513528914  0.7391788635056353  0.2608211090251389  1.0000
  Te  Te6       1.0  0.7391788564210447  0.26082115926127386  0.7391788361248253  1.0000
