data_image0
_chemical_formula_structural       V2TiO6
_chemical_formula_sum              "V2 Ti1 O6"
_cell_length_a       5.0473141438058935
_cell_length_b       5.047314306150506
_cell_length_c       5.047314261147025
_cell_angle_alpha    60.00000030734907
_cell_angle_beta     60.000000415482724
_cell_angle_gamma    60.000000854572114

_space_group_name_H-M_alt    "P 1"
_space_group_IT_number       1

loop_
  _space_group_symop_operation_xyz
  'x, y, z'

loop_
  _atom_site_type_symbol
  _atom_site_label
  _atom_site_symmetry_multiplicity
  _atom_site_fract_x
  _atom_site_fract_y
  _atom_site_fract_z
  _atom_site_occupancy
  V   V1        1.0  0.25000007813055874  0.24999997238362975  0.2500001710533912  1.0000
  V   V2        1.0  0.7499997403085652  0.7499997933979724  0.7500001425088472  1.0000
  Ti  Ti1       1.0  0.999999951794614  4.853055634667796e-08  3.9462448555151723e-08  1.0000
  O   O1        1.0  0.26302704806531824  0.26302696201523224  0.7369729376742037  1.0000
  O   O2        1.0  0.7369729110090143  0.7369730270069312  0.2630270037499874  1.0000
  O   O3        1.0  0.7369729732598278  0.26302713343498224  0.26302686634919265  1.0000
  O   O4        1.0  0.2630271301252228  0.7369730060319065  0.7369729950598358  1.0000
  O   O5        1.0  0.26302707696560124  0.736972983821407  0.2630269584110238  1.0000
  O   O6        1.0  0.73697308809761  0.26302708042311895  0.7369729315638753  1.0000
