data_image0
_chemical_formula_structural       V2TiS6
_chemical_formula_sum              "V2 Ti1 S6"
_cell_length_a       6.121968634874269
_cell_length_b       6.121968481657598
_cell_length_c       6.121968633196272
_cell_angle_alpha    59.99999904049782
_cell_angle_beta     59.99999908893428
_cell_angle_gamma    59.999998469221836

_space_group_name_H-M_alt    "P 1"
_space_group_IT_number       1

loop_
  _space_group_symop_operation_xyz
  'x, y, z'

loop_
  _atom_site_type_symbol
  _atom_site_label
  _atom_site_symmetry_multiplicity
  _atom_site_fract_x
  _atom_site_fract_y
  _atom_site_fract_z
  _atom_site_occupancy
  V   V1        1.0  0.24999988982149823  0.24999995453384605  0.2500001008756778  1.0000
  V   V2        1.0  0.7499999395806104  0.7500001396807017  0.7499999658243933  1.0000
  Ti  Ti1       1.0  6.559716428695785e-08  0.999999955987379  0.9999999140684994  1.0000
  S   S1        1.0  0.2639232058015082  0.2639232318690042  0.7360768324309971  1.0000
  S   S2        1.0  0.7360768854334407  0.7360768803507051  0.26392309925045593  1.0000
  S   S3        1.0  0.7360768402118828  0.263923010764926  0.263923346118534  1.0000
  S   S4        1.0  0.26392313452261457  0.7360769134008598  0.7360767362066462  1.0000
  S   S5        1.0  0.2639232313340339  0.736076828488046  0.2639231415691776  1.0000
  S   S6        1.0  0.736076817627518  0.26392309367716577  0.736076896475454  1.0000
