data_image0
_chemical_formula_structural       V2WO6
_chemical_formula_sum              "V2 W1 O6"
_cell_length_a       5.279055389559576
_cell_length_b       5.279055351094661
_cell_length_c       5.279055223942401
_cell_angle_alpha    59.999999666664074
_cell_angle_beta     60.00000039061328
_cell_angle_gamma    59.99999958717504

_space_group_name_H-M_alt    "P 1"
_space_group_IT_number       1

loop_
  _space_group_symop_operation_xyz
  'x, y, z'

loop_
  _atom_site_type_symbol
  _atom_site_label
  _atom_site_symmetry_multiplicity
  _atom_site_fract_x
  _atom_site_fract_y
  _atom_site_fract_z
  _atom_site_occupancy
  V   V1        1.0  0.24999981767238696  0.2500001741203896  0.2500000117379314  1.0000
  V   V2        1.0  0.7499999334629535  0.750000065319661  0.7500000310887666  1.0000
  W   W1        1.0  5.417513503235972e-08  0.9999999883999621  0.9999999370383277  1.0000
  O   O1        1.0  0.2567751803180717  0.25677490445474205  0.7432248928009356  1.0000
  O   O2        1.0  0.7432249491866317  0.7432249545040548  0.2567750468964003  1.0000
  O   O3        1.0  0.7432251012522437  0.2567750613645542  0.2567749304614236  1.0000
  O   O4        1.0  0.2567750119896406  0.7432248857545319  0.7432250983095473  1.0000
  O   O5        1.0  0.2567749577138736  0.7432249859171721  0.2567750495445921  1.0000
  O   O6        1.0  0.7432250344290816  0.25677500296205236  0.7432249734330941  1.0000
