data_image0
_chemical_formula_structural       V2WS6
_chemical_formula_sum              "V2 W1 S6"
_cell_length_a       6.342478252397916
_cell_length_b       6.342478363784512
_cell_length_c       6.342478091036486
_cell_angle_alpha    60.00000206153133
_cell_angle_beta     60.000000805158365
_cell_angle_gamma    60.00000124102721

_space_group_name_H-M_alt    "P 1"
_space_group_IT_number       1

loop_
  _space_group_symop_operation_xyz
  'x, y, z'

loop_
  _atom_site_type_symbol
  _atom_site_label
  _atom_site_symmetry_multiplicity
  _atom_site_fract_x
  _atom_site_fract_y
  _atom_site_fract_z
  _atom_site_occupancy
  V   V1        1.0  0.2500000598479212  0.2499997046641665  0.25000006913556794  1.0000
  V   V2        1.0  0.7500000504144873  0.7499999983993617  0.7500000095083865  1.0000
  W   W1        1.0  0.9999999548167463  0.9999999826208261  4.231790931267136e-08  1.0000
  S   S1        1.0  0.25752645811536673  0.2575265745774996  0.7424734925462291  1.0000
  S   S2        1.0  0.7424734873320767  0.7424734973107242  0.2575264998595698  1.0000
  S   S3        1.0  0.7424735020415042  0.2575264750580442  0.2575264857444228  1.0000
  S   S4        1.0  0.2575264559101961  0.7424736412436241  0.7424734230190477  1.0000
  S   S5        1.0  0.25752654406363623  0.7424735739403775  0.2575264020009098  1.0000
  S   S6        1.0  0.7424734885319486  0.25752654236129136  0.7424735624641953  1.0000
