data_image0
_chemical_formula_structural       V2WTe6
_chemical_formula_sum              "V2 W1 Te6"
_cell_length_a       7.172983142379981
_cell_length_b       7.1729832940779366
_cell_length_c       7.172983506651845
_cell_angle_alpha    60.00000042264706
_cell_angle_beta     59.99999934021814
_cell_angle_gamma    60.00000101760306

_space_group_name_H-M_alt    "P 1"
_space_group_IT_number       1

loop_
  _space_group_symop_operation_xyz
  'x, y, z'

loop_
  _atom_site_type_symbol
  _atom_site_label
  _atom_site_symmetry_multiplicity
  _atom_site_fract_x
  _atom_site_fract_y
  _atom_site_fract_z
  _atom_site_occupancy
  V   V1        1.0  0.24999997935741916  0.25000005733323766  0.24999991885140194  1.0000
  V   V2        1.0  0.7499999762553765  0.7499999705216317  0.75000005707853  1.0000
  W   W1        1.0  2.4244518710489918e-08  0.9999999948776759  0.9999999862565427  1.0000
  Te  Te1       1.0  0.26123687931882206  0.2612368035341651  0.7387631233947398  1.0000
  Te  Te2       1.0  0.7387630951902323  0.7387631338263103  0.2612368729989386  1.0000
  Te  Te3       1.0  0.7387631181615322  0.26123697959000813  0.261236801266064  1.0000
  Te  Te4       1.0  0.26123685702820193  0.7387630909508964  0.7387631728089026  1.0000
  Te  Te5       1.0  0.261236954787503  0.7387630920266355  0.2612368922459234  1.0000
  Te  Te6       1.0  0.7387631200810025  0.26123687265290463  0.7387631755381414  1.0000
