data_image0
_chemical_formula_structural       V2ZrSe6
_chemical_formula_sum              "V2 Zr1 Se6"
_cell_length_a       6.677329015763444
_cell_length_b       6.677329002142979
_cell_length_c       6.677328983008278
_cell_angle_alpha    60.00000053608281
_cell_angle_beta     59.999999814232154
_cell_angle_gamma    59.99999894454711

_space_group_name_H-M_alt    "P 1"
_space_group_IT_number       1

loop_
  _space_group_symop_operation_xyz
  'x, y, z'

loop_
  _atom_site_type_symbol
  _atom_site_label
  _atom_site_symmetry_multiplicity
  _atom_site_fract_x
  _atom_site_fract_y
  _atom_site_fract_z
  _atom_site_occupancy
  V   V1        1.0  0.24999991669879093  0.24999982593705494  0.250000197522823  1.0000
  V   V2        1.0  0.7499999428049461  0.7500001032678366  0.7499998689888381  1.0000
  Zr  Zr1       1.0  0.999999991563372  0.9999999889948975  3.518014699491869e-08  1.0000
  Se  Se1       1.0  0.2701338624225405  0.27013381664310876  0.7298661572118191  1.0000
  Se  Se2       1.0  0.7298660836472588  0.7298662886434271  0.2701338453682052  1.0000
  Se  Se3       1.0  0.7298662546746548  0.2701337536049838  0.2701338931539409  1.0000
  Se  Se4       1.0  0.27013379938110743  0.7298662508014415  0.7298661403180673  1.0000
  Se  Se5       1.0  0.2701338593786691  0.729866169027084  0.27013382592915036  1.0000
  Se  Se6       1.0  0.7298662899106706  0.27013379869566306  0.7298660389906606  1.0000
