data_image0
_chemical_formula_structural       V2ZrS6
_chemical_formula_sum              "V2 Zr1 S6"
_cell_length_a       6.310427693727818
_cell_length_b       6.310427533628857
_cell_length_c       6.310427603456109
_cell_angle_alpha    60.00000001945152
_cell_angle_beta     60.00000028795013
_cell_angle_gamma    59.99999961857108

_space_group_name_H-M_alt    "P 1"
_space_group_IT_number       1

loop_
  _space_group_symop_operation_xyz
  'x, y, z'

loop_
  _atom_site_type_symbol
  _atom_site_label
  _atom_site_symmetry_multiplicity
  _atom_site_fract_x
  _atom_site_fract_y
  _atom_site_fract_z
  _atom_site_occupancy
  V   V1        1.0  0.25000002502346597  0.2499998895261304  0.2500000253982048  1.0000
  V   V2        1.0  0.7499999686388562  0.7500000043414793  0.7499999821296649  1.0000
  Zr  Zr1       1.0  4.160399294277324e-08  8.927804655775728e-08  0.9999999488210884  1.0000
  S   S1        1.0  0.27071767460866614  0.270717602200794  0.7292823503644974  1.0000
  S   S2        1.0  0.7292823281837576  0.7292823246608765  0.2707177089965098  1.0000
  S   S3        1.0  0.7292824021127524  0.2707176339308974  0.27071759481789753  1.0000
  S   S4        1.0  0.2707176271090857  0.7292823783271652  0.7292823484124175  1.0000
  S   S5        1.0  0.27071755316213686  0.7292824051146123  0.2707176594495271  1.0000
  S   S6        1.0  0.7292823744201103  0.27071765954578236  0.7292823892180296  1.0000
