data_image0
_chemical_formula_structural       V2ZrTe6
_chemical_formula_sum              "V2 Zr1 Te6"
_cell_length_a       7.327680194827264
_cell_length_b       7.327679977611947
_cell_length_c       7.3276799206804455
_cell_angle_alpha    60.00000002377978
_cell_angle_beta     60.000000868004
_cell_angle_gamma    59.99999926472849

_space_group_name_H-M_alt    "P 1"
_space_group_IT_number       1

loop_
  _space_group_symop_operation_xyz
  'x, y, z'

loop_
  _atom_site_type_symbol
  _atom_site_label
  _atom_site_symmetry_multiplicity
  _atom_site_fract_x
  _atom_site_fract_y
  _atom_site_fract_z
  _atom_site_occupancy
  V   V1        1.0  0.2500000311507298  0.2499999191948691  0.2500000154536864  1.0000
  V   V2        1.0  0.7500000119825665  0.7500000634499204  0.749999976468555  1.0000
  Zr  Zr1       1.0  7.130722865462778e-09  1.1699766099405099e-08  0.9999999346325299  1.0000
  Te  Te1       1.0  0.2667224906888568  0.26672250945386067  0.7332774863384475  1.0000
  Te  Te2       1.0  0.73327746622023  0.7332775049474372  0.2667224959710571  1.0000
  Te  Te3       1.0  0.7332774875286373  0.2667224992641501  0.2667225002663606  1.0000
  Te  Te4       1.0  0.2667224550862019  0.7332775485650508  0.7332775570869988  1.0000
  Te  Te5       1.0  0.2667224926985541  0.7332775307616601  0.2667224660371974  1.0000
  Te  Te6       1.0  0.7332775632487718  0.26672241344104064  0.7332775646281537  1.0000
