data_image0
_chemical_formula_structural       V2ZrO6
_chemical_formula_sum              "V2 Zr1 O6"
_cell_length_a       5.2763595379091806
_cell_length_b       5.27635974649932
_cell_length_c       5.276359772635142
_cell_angle_alpha    60.0000018514338
_cell_angle_beta     59.99999978147532
_cell_angle_gamma    60.00000165196721

_space_group_name_H-M_alt    "P 1"
_space_group_IT_number       1

loop_
  _space_group_symop_operation_xyz
  'x, y, z'

loop_
  _atom_site_type_symbol
  _atom_site_label
  _atom_site_symmetry_multiplicity
  _atom_site_fract_x
  _atom_site_fract_y
  _atom_site_fract_z
  _atom_site_occupancy
  V   V1        1.0  0.2499998435745565  0.2500000646413264  0.2499999921172555  1.0000
  V   V2        1.0  0.7499999914723188  0.7499999409139594  0.7499997379199829  1.0000
  Zr  Zr1       1.0  0.9999999649849323  0.0  1.9402779567271948e-08  1.0000
  O   O1        1.0  0.2703199498379102  0.27031982356986467  0.7296802407695092  1.0000
  O   O2        1.0  0.7296801153064039  0.7296800891377179  0.27031994373077106  1.0000
  O   O3        1.0  0.7296801587919122  0.2703198617582205  0.27031990029347797  1.0000
  O   O4        1.0  0.27032002912508935  0.7296801159427596  0.7296800993519517  1.0000
  O   O5        1.0  0.270319743921739  0.7296801006598084  0.27032002124783466  1.0000
  O   O6        1.0  0.7296802053867868  0.2703199954220057  0.7296800441971534  1.0000
