data_image0
_chemical_formula_structural       W2AsN6
_chemical_formula_sum              "W2 As1 N6"
_cell_length_a       4.790081771195745
_cell_length_b       4.79008209272516
_cell_length_c       4.790082112772198
_cell_angle_alpha    60.00000081269983
_cell_angle_beta     59.99999885133471
_cell_angle_gamma    60.00000170306292

_space_group_name_H-M_alt    "P 1"
_space_group_IT_number       1

loop_
  _space_group_symop_operation_xyz
  'x, y, z'

loop_
  _atom_site_type_symbol
  _atom_site_label
  _atom_site_symmetry_multiplicity
  _atom_site_fract_x
  _atom_site_fract_y
  _atom_site_fract_z
  _atom_site_occupancy
  W   W1        1.0  0.24999999683937044  0.25000025914545565  0.24999996661448376  1.0000
  W   W2        1.0  0.7500003046912398  0.7499998927715352  0.7499999637987296  1.0000
  As  As1       1.0  0.9999999743355986  0.9999999974431647  0.9999999493935646  1.0000
  N   N1        1.0  0.2732313635788015  0.27323150457884776  0.7267686178214141  1.0000
  N   N2        1.0  0.7267685114456517  0.726768596201445  0.27323142615440926  1.0000
  N   N3        1.0  0.7267685478019357  0.2732312724419379  0.2732315218346805  1.0000
  N   N4        1.0  0.27323126428365774  0.7267685470865294  0.7267686608341327  1.0000
  N   N5        1.0  0.27323145400233595  0.7267684675653546  0.27323134502594  1.0000
  N   N6        1.0  0.7267685945650407  0.2732314235544867  0.7267685792239532  1.0000
