data_image0
_chemical_formula_structural       W2GaN6
_chemical_formula_sum              "W2 Ga1 N6"
_cell_length_a       4.839620917281288
_cell_length_b       4.839621030923196
_cell_length_c       4.839620893680255
_cell_angle_alpha    60.000001369325524
_cell_angle_beta     60.0000010876876
_cell_angle_gamma    59.99999993682531

_space_group_name_H-M_alt    "P 1"
_space_group_IT_number       1

loop_
  _space_group_symop_operation_xyz
  'x, y, z'

loop_
  _atom_site_type_symbol
  _atom_site_label
  _atom_site_symmetry_multiplicity
  _atom_site_fract_x
  _atom_site_fract_y
  _atom_site_fract_z
  _atom_site_occupancy
  W   W1        1.0  0.24999973762205713  0.24999992150935435  0.2500000414104873  1.0000
  W   W2        1.0  0.7499997237202035  0.749999792365346  0.7500001627611631  1.0000
  Ga  Ga1       1.0  4.3645595212742693e-08  5.0613248205390765e-09  0.999999985977928  1.0000
  N   N1        1.0  0.2793452472645408  0.2793450565583538  0.7206549245802292  1.0000
  N   N2        1.0  0.7206548761095781  0.7206548901373083  0.27934514830548174  1.0000
  N   N3        1.0  0.7206549908615199  0.27934519137797414  0.27934502116970034  1.0000
  N   N4        1.0  0.2793451590678807  0.7206549476480546  0.7206548782185832  1.0000
  N   N5        1.0  0.27934521055827166  0.7206550027100231  0.2793449750760712  1.0000
  N   N6        1.0  0.7206550017898835  0.27934519958257303  0.7206548346079438  1.0000
