data_image0
_chemical_formula_structural       Y2AsS6
_chemical_formula_sum              "Y2 As1 S6"
_cell_length_a       6.3951842125818645
_cell_length_b       6.395184452512568
_cell_length_c       6.395184145944701
_cell_angle_alpha    59.999998918909625
_cell_angle_beta     59.99999888658323
_cell_angle_gamma    59.99999997749004

_space_group_name_H-M_alt    "P 1"
_space_group_IT_number       1

loop_
  _space_group_symop_operation_xyz
  'x, y, z'

loop_
  _atom_site_type_symbol
  _atom_site_label
  _atom_site_symmetry_multiplicity
  _atom_site_fract_x
  _atom_site_fract_y
  _atom_site_fract_z
  _atom_site_occupancy
  Y   Y1        1.0  0.2500000217848567  0.2500001176545456  0.249999870420618  1.0000
  Y   Y2        1.0  0.7499999310910616  0.7500000082447583  0.750000036830575  1.0000
  As  As1       1.0  0.9999999621735921  2.6811468225971133e-08  0.9999999929980566  1.0000
  S   S1        1.0  0.2560055769275198  0.2560055600432355  0.7439943913307417  1.0000
  S   S2        1.0  0.7439944076853422  0.7439944164778906  0.2560055497222448  1.0000
  S   S3        1.0  0.7439944679549922  0.25600556270464947  0.25600558892434633  1.0000
  S   S4        1.0  0.2560055895569495  0.7439943467878031  0.7439944977427173  1.0000
  S   S5        1.0  0.25600567415678466  0.7439943799181059  0.2560056102871611  1.0000
  S   S6        1.0  0.7439943791775762  0.2560055908577017  0.7439944556453976  1.0000
