data_image0
_chemical_formula_structural       Y2AsO6
_chemical_formula_sum              "Y2 As1 O6"
_cell_length_a       5.253094176776178
_cell_length_b       5.253094262394665
_cell_length_c       5.253093454055823
_cell_angle_alpha    60.00000272021797
_cell_angle_beta     60.000002766926464
_cell_angle_gamma    59.99999996636559

_space_group_name_H-M_alt    "P 1"
_space_group_IT_number       1

loop_
  _space_group_symop_operation_xyz
  'x, y, z'

loop_
  _atom_site_type_symbol
  _atom_site_label
  _atom_site_symmetry_multiplicity
  _atom_site_fract_x
  _atom_site_fract_y
  _atom_site_fract_z
  _atom_site_occupancy
  Y   Y1        1.0  0.249999897693495  0.24999994683675067  0.25000006854812895  1.0000
  Y   Y2        1.0  0.7500001103677614  0.7500000130392559  0.7500000192437307  1.0000
  As  As1       1.0  5.3619959226186824e-08  6.994419671624945e-08  0.9999998278067871  1.0000
  O   O1        1.0  0.24754551270881833  0.24754552039588268  0.7524544216018112  1.0000
  O   O2        1.0  0.7524544286959658  0.7524545537223153  0.24754548058776868  1.0000
  O   O3        1.0  0.7524543488575952  0.24754554129430806  0.24754553412697886  1.0000
  O   O4        1.0  0.24754552234023697  0.7524545258294688  0.752454562761787  1.0000
  O   O5        1.0  0.24754562042088096  0.7524544170858541  0.24754547153947398  1.0000
  O   O6        1.0  0.7524545160884037  0.2475454541941686  0.7524545658681195  1.0000
