data_image0
_chemical_formula_structural       Y2AsS6
_chemical_formula_sum              "Y2 As1 S6"
_cell_length_a       6.395295515811495
_cell_length_b       6.395295231350168
_cell_length_c       6.395295332168067
_cell_angle_alpha    59.99999771226513
_cell_angle_beta     59.99999838691378
_cell_angle_gamma    59.99999734925121

_space_group_name_H-M_alt    "P 1"
_space_group_IT_number       1

loop_
  _space_group_symop_operation_xyz
  'x, y, z'

loop_
  _atom_site_type_symbol
  _atom_site_label
  _atom_site_symmetry_multiplicity
  _atom_site_fract_x
  _atom_site_fract_y
  _atom_site_fract_z
  _atom_site_occupancy
  Y   Y1        1.0  0.24999986107107092  0.24999996053218038  0.2500000800674985  1.0000
  Y   Y2        1.0  0.7500000641425904  0.7500000367173476  0.7499999987962148  1.0000
  As  As1       1.0  2.2304920598727857e-08  0.9999999980849288  0.9999999319500454  1.0000
  S   S1        1.0  0.25599758487676433  0.2559976631491308  0.7440023907270038  1.0000
  S   S2        1.0  0.7440024113727903  0.7440023647415451  0.25599756380666316  1.0000
  S   S3        1.0  0.7440023950347809  0.25599764565689515  0.255997617740353  1.0000
  S   S4        1.0  0.25599760757955264  0.7440023956392822  0.7440023972723988  1.0000
  S   S5        1.0  0.2559976019415838  0.7440023853636074  0.25599767864500317  1.0000
  S   S6        1.0  0.7440024653095061  0.25599754868855296  0.7440023263983903  1.0000
