data_image0
_chemical_formula_structural       Y2AsO6
_chemical_formula_sum              "Y2 As1 O6"
_cell_length_a       5.253067550965554
_cell_length_b       5.2530670552788665
_cell_length_c       5.253067111970122
_cell_angle_alpha    60.000000568499665
_cell_angle_beta     60.00000211960337
_cell_angle_gamma    59.999999688410036

_space_group_name_H-M_alt    "P 1"
_space_group_IT_number       1

loop_
  _space_group_symop_operation_xyz
  'x, y, z'

loop_
  _atom_site_type_symbol
  _atom_site_label
  _atom_site_symmetry_multiplicity
  _atom_site_fract_x
  _atom_site_fract_y
  _atom_site_fract_z
  _atom_site_occupancy
  Y   Y1        1.0  0.2500000237315928  0.24999999971491596  0.24999997243845243  1.0000
  Y   Y2        1.0  0.7500000659108649  0.7499999688354388  0.7499999598594156  1.0000
  As  As1       1.0  0.9999999725555374  5.5955647293856434e-08  0.9999999495750626  1.0000
  O   O1        1.0  0.2475675408521129  0.24756766543845676  0.7524323912938166  1.0000
  O   O2        1.0  0.7524324010917179  0.7524323637305164  0.24756764546084944  1.0000
  O   O3        1.0  0.7524323530562089  0.24756758873635348  0.2475675560605091  1.0000
  O   O4        1.0  0.24756764468705017  0.7524323191953823  0.7524324772437146  1.0000
  O   O5        1.0  0.2475676470346711  0.7524323219942369  0.24756758841065615  1.0000
  O   O6        1.0  0.7524323968238787  0.2475676652080009  0.7524324183700172  1.0000
