data_image0
_chemical_formula_structural       Y2AsN6
_chemical_formula_sum              "Y2 As1 N6"
_cell_length_a       5.280473193735669
_cell_length_b       5.28047388331574
_cell_length_c       5.280474110767385
_cell_angle_alpha    59.999999723876684
_cell_angle_beta     59.999996183182446
_cell_angle_gamma    60.00000156062772

_space_group_name_H-M_alt    "P 1"
_space_group_IT_number       1

loop_
  _space_group_symop_operation_xyz
  'x, y, z'

loop_
  _atom_site_type_symbol
  _atom_site_label
  _atom_site_symmetry_multiplicity
  _atom_site_fract_x
  _atom_site_fract_y
  _atom_site_fract_z
  _atom_site_occupancy
  Y   Y1        1.0  0.25000000552191987  0.2499999736838721  0.25000003412832617  1.0000
  Y   Y2        1.0  0.7500000928134996  0.7499999743974559  0.7499999125994136  1.0000
  As  As1       1.0  1.7184255974358608e-07  2.388965905490673e-07  1.714905291605155e-07  1.0000
  N   N1        1.0  0.257541926196795  0.2575419673653184  0.7424580287617525  1.0000
  N   N2        1.0  0.7424580283029518  0.742457802123414  0.25754200911065206  1.0000
  N   N3        1.0  0.7424579722605535  0.2575419878100348  0.25754189878469913  1.0000
  N   N4        1.0  0.2575419550886827  0.742458020575285  0.7424579423137398  1.0000
  N   N5        1.0  0.2575420067212035  0.7424579226984204  0.25754194344865805  1.0000
  N   N6        1.0  0.7424579371290192  0.25754202306352236  0.7424579907804417  1.0000
