data_image0
_chemical_formula_structural       Y2BiS6
_chemical_formula_sum              "Y2 Bi1 S6"
_cell_length_a       6.665538208694983
_cell_length_b       6.665538295093186
_cell_length_c       6.665538205962503
_cell_angle_alpha    60.00000055950362
_cell_angle_beta     60.00000004880021
_cell_angle_gamma    60.000000593187465

_space_group_name_H-M_alt    "P 1"
_space_group_IT_number       1

loop_
  _space_group_symop_operation_xyz
  'x, y, z'

loop_
  _atom_site_type_symbol
  _atom_site_label
  _atom_site_symmetry_multiplicity
  _atom_site_fract_x
  _atom_site_fract_y
  _atom_site_fract_z
  _atom_site_occupancy
  Y   Y1        1.0  0.24999997462395476  0.2500000563060685  0.25000000387897725  1.0000
  Y   Y2        1.0  0.7500000005874563  0.7500000219239424  0.7499999447589988  1.0000
  Bi  Bi1       1.0  2.2520472490269334e-08  3.217452152669963e-17  0.9999999962410335  1.0000
  S   S1        1.0  0.26425885906339003  0.2642587833910578  0.7357411871841473  1.0000
  S   S2        1.0  0.735741178497469  0.7357411441698337  0.26425885812255273  1.0000
  S   S3        1.0  0.7357411377378542  0.2642588717918102  0.26425884657726817  1.0000
  S   S4        1.0  0.2642588263979911  0.7357411513153521  0.7357411831680414  1.0000
  S   S5        1.0  0.2642588448616947  0.735741152589331  0.26425884540724004  1.0000
  S   S6        1.0  0.7357411577190017  0.26425882274469575  0.7357411424943394  1.0000
