data_image0
_chemical_formula_structural       Y2BiO6
_chemical_formula_sum              "Y2 Bi1 O6"
_cell_length_a       5.543571563763056
_cell_length_b       5.543571604609664
_cell_length_c       5.543571555557926
_cell_angle_alpha    59.99999937040133
_cell_angle_beta     59.99999884587357
_cell_angle_gamma    60.00000016079248

_space_group_name_H-M_alt    "P 1"
_space_group_IT_number       1

loop_
  _space_group_symop_operation_xyz
  'x, y, z'

loop_
  _atom_site_type_symbol
  _atom_site_label
  _atom_site_symmetry_multiplicity
  _atom_site_fract_x
  _atom_site_fract_y
  _atom_site_fract_z
  _atom_site_occupancy
  Y   Y1        1.0  0.25000000503770364  0.25000000913826737  0.2500000055320308  1.0000
  Y   Y2        1.0  0.7500000026370639  0.7499999898565914  0.7500000632599163  1.0000
  Bi  Bi1       1.0  3.025517310609589e-08  1.5465146019586932e-08  0.9999999140036477  1.0000
  O   O1        1.0  0.2632127673590891  0.2632128211957898  0.7367872239426695  1.0000
  O   O2        1.0  0.7367871953317973  0.7367872065200537  0.26321276639394803  1.0000
  O   O3        1.0  0.7367872661942451  0.2632127371544087  0.26321281884937914  1.0000
  O   O4        1.0  0.26321272336569695  0.736787228700853  0.7367872124335871  1.0000
  O   O5        1.0  0.26321283787756034  0.7367871585922189  0.26321281968598176  1.0000
  O   O6        1.0  0.7367871701762645  0.2632128205188816  0.736787226388274  1.0000
