data_image0
_chemical_formula_structural       Y2BiS6
_chemical_formula_sum              "Y2 Bi1 S6"
_cell_length_a       6.666067448669345
_cell_length_b       6.666067474280566
_cell_length_c       6.666067613668374
_cell_angle_alpha    59.99999926757586
_cell_angle_beta     59.99999999420897
_cell_angle_gamma    60.00000077038946

_space_group_name_H-M_alt    "P 1"
_space_group_IT_number       1

loop_
  _space_group_symop_operation_xyz
  'x, y, z'

loop_
  _atom_site_type_symbol
  _atom_site_label
  _atom_site_symmetry_multiplicity
  _atom_site_fract_x
  _atom_site_fract_y
  _atom_site_fract_z
  _atom_site_occupancy
  Y   Y1        1.0  0.2500000516889956  0.25000000676420153  0.249999950205413  1.0000
  Y   Y2        1.0  0.7499999739028088  0.7500000129434725  0.7500000288804416  1.0000
  Bi  Bi1       1.0  1.3455376809920948e-08  0.9999999908135877  5.487064017986428e-08  1.0000
  S   S1        1.0  0.26424231304964774  0.26424227328948907  0.7357577138229087  1.0000
  S   S2        1.0  0.7357576796482611  0.7357577151843828  0.2642422943265249  1.0000
  S   S3        1.0  0.7357576308174976  0.26424231477184196  0.2642423653939019  1.0000
  S   S4        1.0  0.2642423715922022  0.7357576185835569  0.7357576414567163  1.0000
  S   S5        1.0  0.2642423502181309  0.7357576919038126  0.2642423365873892  1.0000
  S   S6        1.0  0.7357576158481971  0.26424236087494485  0.7357576362239091  1.0000
