data_image0
_chemical_formula_structural       Y2BiN6
_chemical_formula_sum              "Y2 Bi1 N6"
_cell_length_a       5.661544888444255
_cell_length_b       5.661545056802302
_cell_length_c       5.661544920926717
_cell_angle_alpha    59.99999875866169
_cell_angle_beta     59.999998954118304
_cell_angle_gamma    59.9999996719579

_space_group_name_H-M_alt    "P 1"
_space_group_IT_number       1

loop_
  _space_group_symop_operation_xyz
  'x, y, z'

loop_
  _atom_site_type_symbol
  _atom_site_label
  _atom_site_symmetry_multiplicity
  _atom_site_fract_x
  _atom_site_fract_y
  _atom_site_fract_z
  _atom_site_occupancy
  Y   Y1        1.0  0.2500000416180058  0.24999999328635053  0.2500000176281205  1.0000
  Y   Y2        1.0  0.7499999424680063  0.7500000252877167  0.7500000383468256  1.0000
  Bi  Bi1       1.0  0.999999994849878  0.9999999848571136  0.9999999377281088  1.0000
  N   N1        1.0  0.2652631211971452  0.2652630559749123  0.7347368754268165  1.0000
  N   N2        1.0  0.7347369480763282  0.7347369517828087  0.26526302855292005  1.0000
  N   N3        1.0  0.7347368496170481  0.26526313405001356  0.26526313519257816  1.0000
  N   N4        1.0  0.2652630223749645  0.7347369515854137  0.7347369591954084  1.0000
  N   N5        1.0  0.2652631293171448  0.7347368570614521  0.2652631314194245  1.0000
  N   N6        1.0  0.7347369786477441  0.2652630468593217  0.7347369058123124  1.0000
