data_image0
_chemical_formula_structural       Y2BiSe6
_chemical_formula_sum              "Y2 Bi1 Se6"
_cell_length_a       7.002786417466566
_cell_length_b       7.002786448214154
_cell_length_c       7.00278640310503
_cell_angle_alpha    59.99999960686996
_cell_angle_beta     59.99999943993242
_cell_angle_gamma    59.99999886359482

_space_group_name_H-M_alt    "P 1"
_space_group_IT_number       1

loop_
  _space_group_symop_operation_xyz
  'x, y, z'

loop_
  _atom_site_type_symbol
  _atom_site_label
  _atom_site_symmetry_multiplicity
  _atom_site_fract_x
  _atom_site_fract_y
  _atom_site_fract_z
  _atom_site_occupancy
  Y   Y1        1.0  0.24999993701847864  0.25000020703967  0.2499999254175012  1.0000
  Y   Y2        1.0  0.7500000122864376  0.7499998393431178  0.7499999965528047  1.0000
  Bi  Bi1       1.0  6.284168750110035e-08  1.923833203519876e-08  3.7207687865822214e-10  1.0000
  Se  Se1       1.0  0.2710858404955898  0.27108581790975333  0.7289141521175067  1.0000
  Se  Se2       1.0  0.7289141246498041  0.7289141760048532  0.2710859109749093  1.0000
  Se  Se3       1.0  0.7289142173939066  0.27108585264614643  0.2710857708651594  1.0000
  Se  Se4       1.0  0.27108583314650164  0.7289140730598247  0.7289142636420248  1.0000
  Se  Se5       1.0  0.27108583495652183  0.7289140961070998  0.2710858290044078  1.0000
  Se  Se6       1.0  0.7289141414312128  0.271085913547961  0.7289141506244635  1.0000
