data_image0
_chemical_formula_structural       Y2BiTe6
_chemical_formula_sum              "Y2 Bi1 Te6"
_cell_length_a       7.495212172226679
_cell_length_b       7.495212233496736
_cell_length_c       7.495212236300024
_cell_angle_alpha    59.999998967000195
_cell_angle_beta     59.999999739639144
_cell_angle_gamma    59.9999986307239

_space_group_name_H-M_alt    "P 1"
_space_group_IT_number       1

loop_
  _space_group_symop_operation_xyz
  'x, y, z'

loop_
  _atom_site_type_symbol
  _atom_site_label
  _atom_site_symmetry_multiplicity
  _atom_site_fract_x
  _atom_site_fract_y
  _atom_site_fract_z
  _atom_site_occupancy
  Y   Y1        1.0  0.2499999683757819  0.24999997855689757  0.25000001688939116  1.0000
  Y   Y2        1.0  0.749999998339331  0.750000002666179  0.7500000706283149  1.0000
  Bi  Bi1       1.0  7.49998255736527e-09  3.758283487733165e-08  0.999999977458591  1.0000
  Te  Te1       1.0  0.2734239757905867  0.2734239466025043  0.7265760318976695  1.0000
  Te  Te2       1.0  0.7265760469142014  0.726576060765154  0.27342389981299486  1.0000
  Te  Te3       1.0  0.7265760260246297  0.27342398524172107  0.27342391918111786  1.0000
  Te  Te4       1.0  0.27342389615234286  0.7265760695129905  0.7265760764571082  1.0000
  Te  Te5       1.0  0.2734239699970806  0.7265760094329429  0.2734239475373692  1.0000
  Te  Te6       1.0  0.7265761051356731  0.27342391459886267  0.7265760556630108  1.0000
