data_image0
_chemical_formula_structural       Y2BO6
_chemical_formula_sum              "Y2 B1 O6"
_cell_length_a       4.910443243908736
_cell_length_b       4.91044307658123
_cell_length_c       4.91044317831102
_cell_angle_alpha    60.00000141519938
_cell_angle_beta     59.999999994181906
_cell_angle_gamma    60.00000111442628

_space_group_name_H-M_alt    "P 1"
_space_group_IT_number       1

loop_
  _space_group_symop_operation_xyz
  'x, y, z'

loop_
  _atom_site_type_symbol
  _atom_site_label
  _atom_site_symmetry_multiplicity
  _atom_site_fract_x
  _atom_site_fract_y
  _atom_site_fract_z
  _atom_site_occupancy
  Y   Y1        1.0  0.25000000768240493  0.25000000273105716  0.2499999980879848  1.0000
  Y   Y2        1.0  0.749999980434569  0.7500000231581515  0.7499999592123622  1.0000
  B   B1        1.0  3.6353124643944393e-09  0.9999999326575815  9.452315233069598e-09  1.0000
  O   O1        1.0  0.22810725683986258  0.22810723708826275  0.7718927480832659  1.0000
  O   O2        1.0  0.7718927352914063  0.7718927838126197  0.22810725450656996  1.0000
  O   O3        1.0  0.7718928807703802  0.22810716630561226  0.228107178831827  1.0000
  O   O4        1.0  0.2281071189860231  0.7718928246653063  0.7718928145456627  1.0000
  O   O5        1.0  0.22810717444562265  0.7718928631741612  0.2281071899593662  1.0000
  O   O6        1.0  0.7718928138139941  0.2281071552325581  0.771892832105186  1.0000
