data_image0
_chemical_formula_structural       Y2BSe6
_chemical_formula_sum              "Y2 B1 Se6"
_cell_length_a       6.488448474614603
_cell_length_b       6.488448621551475
_cell_length_c       6.488448301883299
_cell_angle_alpha    59.999998422903964
_cell_angle_beta     59.999998972870266
_cell_angle_gamma    59.99999921863567

_space_group_name_H-M_alt    "P 1"
_space_group_IT_number       1

loop_
  _space_group_symop_operation_xyz
  'x, y, z'

loop_
  _atom_site_type_symbol
  _atom_site_label
  _atom_site_symmetry_multiplicity
  _atom_site_fract_x
  _atom_site_fract_y
  _atom_site_fract_z
  _atom_site_occupancy
  Y   Y1        1.0  0.24999996692762583  0.24999995286640844  0.2500000040940518  1.0000
  Y   Y2        1.0  0.7499999932492923  0.7499999869544806  0.750000134592597  1.0000
  B   B1        1.0  3.1619963262444886e-08  0.9999999905621129  0.9999999935325633  1.0000
  Se  Se1       1.0  0.23903203314128732  0.2390320472217488  0.7609679163823707  1.0000
  Se  Se2       1.0  0.7609679396533479  0.7609679775401272  0.23903200861646645  1.0000
  Se  Se3       1.0  0.7609679821387093  0.2390320631046434  0.2390320337532844  1.0000
  Se  Se4       1.0  0.23903205013921877  0.7609679220181059  0.7609679275594858  1.0000
  Se  Se5       1.0  0.23903205413070802  0.7609679881943285  0.23903204550015963  1.0000
  Se  Se6       1.0  0.7609679510919436  0.23903207809424729  0.7609679349933501  1.0000
