data_image0
_chemical_formula_structural       Y2BS6
_chemical_formula_sum              "Y2 B1 S6"
_cell_length_a       6.137000396921866
_cell_length_b       6.137000191929689
_cell_length_c       6.1370003807125535
_cell_angle_alpha    59.99999852292634
_cell_angle_beta     59.99999875449969
_cell_angle_gamma    59.99999869848409

_space_group_name_H-M_alt    "P 1"
_space_group_IT_number       1

loop_
  _space_group_symop_operation_xyz
  'x, y, z'

loop_
  _atom_site_type_symbol
  _atom_site_label
  _atom_site_symmetry_multiplicity
  _atom_site_fract_x
  _atom_site_fract_y
  _atom_site_fract_z
  _atom_site_occupancy
  Y   Y1        1.0  0.2500000170159833  0.25000000742577316  0.24999998596407746  1.0000
  Y   Y2        1.0  0.7500000207542223  0.7499999663984601  0.7500000107552897  1.0000
  B   B1        1.0  0.9999999908205743  0.9999999880259587  0.9999999975410493  1.0000
  S   S1        1.0  0.2353001476122909  0.23530014537449195  0.764699851832632  1.0000
  S   S2        1.0  0.7646998393759452  0.764699794523291  0.23530015465173487  1.0000
  S   S3        1.0  0.7646998047125598  0.23530023840385203  0.23530013124843416  1.0000
  S   S4        1.0  0.23530017565923397  0.7646998511694469  0.764699852590212  1.0000
  S   S5        1.0  0.23530018851746926  0.7646998113472163  0.23530015473916654  1.0000
  S   S6        1.0  0.7646998019664097  0.23530020837750845  0.7646998410436578  1.0000
