data_image0
_chemical_formula_structural       Y2BTe6
_chemical_formula_sum              "Y2 B1 Te6"
_cell_length_a       7.017082347130223
_cell_length_b       7.017082245043412
_cell_length_c       7.0170825578251215
_cell_angle_alpha    59.99999902001362
_cell_angle_beta     59.99999865495325
_cell_angle_gamma    60.00000021512213

_space_group_name_H-M_alt    "P 1"
_space_group_IT_number       1

loop_
  _space_group_symop_operation_xyz
  'x, y, z'

loop_
  _atom_site_type_symbol
  _atom_site_label
  _atom_site_symmetry_multiplicity
  _atom_site_fract_x
  _atom_site_fract_y
  _atom_site_fract_z
  _atom_site_occupancy
  Y   Y1        1.0  0.24999998343951702  0.25000002676206234  0.2500000052994979  1.0000
  Y   Y2        1.0  0.7500000002185974  0.7499999947627503  0.7499999482045678  1.0000
  B   B1        1.0  1.2117813482185482e-08  0.9999999685832276  4.242663391977405e-08  1.0000
  Te  Te1       1.0  0.23807867767656693  0.23807865289572436  0.7619213281551289  1.0000
  Te  Te2       1.0  0.7619213523565883  0.7619213529207027  0.23807866274407508  1.0000
  Te  Te3       1.0  0.7619213003221073  0.23807867373504202  0.23807872864130375  1.0000
  Te  Te4       1.0  0.23807868867195492  0.7619213268452559  0.7619212882456989  1.0000
  Te  Te5       1.0  0.23807868148445172  0.7619213144853415  0.23807868968343077  1.0000
  Te  Te6       1.0  0.7619213034370662  0.2380786983125899  0.7619213046048094  1.0000
