data_image0
_chemical_formula_structural       Y2CN6
_chemical_formula_sum              "Y2 C1 N6"
_cell_length_a       5.138340337803554
_cell_length_b       5.138340307614271
_cell_length_c       5.138340150877636
_cell_angle_alpha    60.00000071234748
_cell_angle_beta     59.999998905396744
_cell_angle_gamma    60.00000022393626

_space_group_name_H-M_alt    "P 1"
_space_group_IT_number       1

loop_
  _space_group_symop_operation_xyz
  'x, y, z'

loop_
  _atom_site_type_symbol
  _atom_site_label
  _atom_site_symmetry_multiplicity
  _atom_site_fract_x
  _atom_site_fract_y
  _atom_site_fract_z
  _atom_site_occupancy
  Y   Y1        1.0  0.2500000172541279  0.2499999737762992  0.2500000510701103  1.0000
  Y   Y2        1.0  0.7500000355994736  0.7499999833009825  0.7500000524595933  1.0000
  C   C1        1.0  0.9999992236831426  1.7161499133853806e-07  0.9999979183125912  1.0000
  N   N1        1.0  0.22551364873122465  0.22551367571280082  0.7744863390234599  1.0000
  N   N2        1.0  0.7744866334248317  0.7744865912249069  0.2255133956709567  1.0000
  N   N3        1.0  0.77448606233245  0.2255139588111057  0.22551392560686345  1.0000
  N   N4        1.0  0.22551303198388417  0.7744869659841253  0.7744869712555549  1.0000
  N   N5        1.0  0.22551421424644658  0.7744857832103492  0.22551423767642442  1.0000
  N   N6        1.0  0.7744871754104984  0.22551285338481714  0.774487124638742  1.0000
