data_image0
_chemical_formula_structural       Y2CoS6
_chemical_formula_sum              "Y2 Co1 S6"
_cell_length_a       6.169729390000566
_cell_length_b       6.1697293841500915
_cell_length_c       6.169729378710354
_cell_angle_alpha    59.99999940707117
_cell_angle_beta     60.000000200403385
_cell_angle_gamma    59.99999997212811

_space_group_name_H-M_alt    "P 1"
_space_group_IT_number       1

loop_
  _space_group_symop_operation_xyz
  'x, y, z'

loop_
  _atom_site_type_symbol
  _atom_site_label
  _atom_site_symmetry_multiplicity
  _atom_site_fract_x
  _atom_site_fract_y
  _atom_site_fract_z
  _atom_site_occupancy
  Y   Y1        1.0  0.2500000331736068  0.24999999114132462  0.25000000648574455  1.0000
  Y   Y2        1.0  0.7499999981161103  0.7499999912897558  0.7500000093605653  1.0000
  Co  Co1       1.0  0.9999999878818995  1.3895607843527213e-08  2.6665129033649124e-08  1.0000
  S   S1        1.0  0.24984323441860345  0.24984332032458467  0.7501567089603683  1.0000
  S   S2        1.0  0.7501567165822276  0.7501567176889283  0.24984327223548553  1.0000
  S   S3        1.0  0.750156688381908  0.24984327004650453  0.24984327543633053  1.0000
  S   S4        1.0  0.24984332398465098  0.7501566905486206  0.7501567186483036  1.0000
  S   S5        1.0  0.2498432809350277  0.7501567221325882  0.24984327941035248  1.0000
  S   S6        1.0  0.7501567351551686  0.2498432722090136  0.7501567089057577  1.0000
