data_image0
_chemical_formula_structural       Y2CO6
_chemical_formula_sum              "Y2 C1 O6"
_cell_length_a       4.85954662669474
_cell_length_b       4.85954621107621
_cell_length_c       4.859546347311917
_cell_angle_alpha    59.99999950669178
_cell_angle_beta     60.00000016812048
_cell_angle_gamma    59.999998297317504

_space_group_name_H-M_alt    "P 1"
_space_group_IT_number       1

loop_
  _space_group_symop_operation_xyz
  'x, y, z'

loop_
  _atom_site_type_symbol
  _atom_site_label
  _atom_site_symmetry_multiplicity
  _atom_site_fract_x
  _atom_site_fract_y
  _atom_site_fract_z
  _atom_site_occupancy
  Y   Y1        1.0  0.25000001117102  0.24999999043537083  0.25000000216243845  1.0000
  Y   Y2        1.0  0.749999978692771  0.7500000217118432  0.7499999922321533  1.0000
  C   C1        1.0  0.9999999799119019  0.9999999319522637  6.670377502177931e-08  1.0000
  O   O1        1.0  0.22835463682851997  0.22835465131230376  0.7716453521820784  1.0000
  O   O2        1.0  0.771645421943583  0.7716453608349102  0.22835460981616157  1.0000
  O   O3        1.0  0.7716454191523742  0.2283546376870976  0.2283545568733052  1.0000
  O   O4        1.0  0.22835460409690506  0.7716454097441278  0.7716453826084839  1.0000
  O   O5        1.0  0.22835459876899997  0.771645375788403  0.22835461926179795  1.0000
  O   O6        1.0  0.7716454331942418  0.22835458847336645  0.7716453553899322  1.0000
