data_image0
_chemical_formula_structural       Y2CoN6
_chemical_formula_sum              "Y2 Co1 N6"
_cell_length_a       5.112441786172595
_cell_length_b       5.112441948045638
_cell_length_c       5.112441565741715
_cell_angle_alpha    59.99999829822281
_cell_angle_beta     59.999999147648225
_cell_angle_gamma    59.999999571180005

_space_group_name_H-M_alt    "P 1"
_space_group_IT_number       1

loop_
  _space_group_symop_operation_xyz
  'x, y, z'

loop_
  _atom_site_type_symbol
  _atom_site_label
  _atom_site_symmetry_multiplicity
  _atom_site_fract_x
  _atom_site_fract_y
  _atom_site_fract_z
  _atom_site_occupancy
  Y   Y1        1.0  0.24999997895582354  0.2500000099864182  0.2500000279813763  1.0000
  Y   Y2        1.0  0.749999992146634  0.7500000131899446  0.7499999747126234  1.0000
  Co  Co1       1.0  9.12039871734614e-10  3.1143011017915564e-08  0.999999982016461  1.0000
  N   N1        1.0  0.2527026457784248  0.2527026362145846  0.7472973709825604  1.0000
  N   N2        1.0  0.7472973972119947  0.7472973677968474  0.25270263077808625  1.0000
  N   N3        1.0  0.7472973835296988  0.2527026196657353  0.2527026599301994  1.0000
  N   N4        1.0  0.2527026343655164  0.7472973579939183  0.74729736755394  1.0000
  N   N5        1.0  0.2527026388132514  0.7472973651682967  0.252702644622991  1.0000
  N   N6        1.0  0.7472973470504196  0.25270263405190413  0.7472973548444329  1.0000
