data_image0
_chemical_formula_structural       Y2CoO6
_chemical_formula_sum              "Y2 Co1 O6"
_cell_length_a       5.163118150934514
_cell_length_b       5.163118675678085
_cell_length_c       5.163118261553032
_cell_angle_alpha    59.99999932605691
_cell_angle_beta     59.999999910572136
_cell_angle_gamma    60.00000066626829

_space_group_name_H-M_alt    "P 1"
_space_group_IT_number       1

loop_
  _space_group_symop_operation_xyz
  'x, y, z'

loop_
  _atom_site_type_symbol
  _atom_site_label
  _atom_site_symmetry_multiplicity
  _atom_site_fract_x
  _atom_site_fract_y
  _atom_site_fract_z
  _atom_site_occupancy
  Y   Y1        1.0  0.25000000998948785  0.2500000375799199  0.24999993608597787  1.0000
  Y   Y2        1.0  0.7499999699024538  0.7500000178556392  0.7500000329308689  1.0000
  Co  Co1       1.0  3.2984664474352212e-09  0.9999999833952801  8.426850304788846e-10  1.0000
  O   O1        1.0  0.24873359539498896  0.24873355894889382  0.7512664077528455  1.0000
  O   O2        1.0  0.7512663658147293  0.7512664988587682  0.2487335713558755  1.0000
  O   O3        1.0  0.7512665029098166  0.24873345374918968  0.24873361831271296  1.0000
  O   O4        1.0  0.24873355998245325  0.751266392941314  0.751266448439156  1.0000
  O   O5        1.0  0.24873360640766926  0.7512664723744784  0.2487335519467925  1.0000
  O   O6        1.0  0.7512663881006033  0.24873355934005092  0.7512664429273589  1.0000
