data_image0
_chemical_formula_structural       Y2CrTe6
_chemical_formula_sum              "Y2 Cr1 Te6"
_cell_length_a       7.115194319642492
_cell_length_b       7.115194329411165
_cell_length_c       7.115194385116501
_cell_angle_alpha    60.00000022891574
_cell_angle_beta     59.99999972444838
_cell_angle_gamma    60.00000001778233

_space_group_name_H-M_alt    "P 1"
_space_group_IT_number       1

loop_
  _space_group_symop_operation_xyz
  'x, y, z'

loop_
  _atom_site_type_symbol
  _atom_site_label
  _atom_site_symmetry_multiplicity
  _atom_site_fract_x
  _atom_site_fract_y
  _atom_site_fract_z
  _atom_site_occupancy
  Y   Y1        1.0  0.2500000762052999  0.2499999552064864  0.24999999474898926  1.0000
  Y   Y2        1.0  0.7499999693482498  0.7500000153733501  0.7500000108949881  1.0000
  Cr  Cr1       1.0  0.9999999931147636  2.065570902957556e-08  0.9999999818712199  1.0000
  Te  Te1       1.0  0.2547684462805777  0.2547683886015276  0.7452315772130317  1.0000
  Te  Te2       1.0  0.7452315521760838  0.745231640502818  0.25476842131169253  1.0000
  Te  Te3       1.0  0.7452315685982901  0.2547683885847777  0.2547684574014021  1.0000
  Te  Te4       1.0  0.2547683941722145  0.7452316112573133  0.7452315651648697  1.0000
  Te  Te5       1.0  0.2547684295869015  0.7452315776144909  0.25476842847202164  1.0000
  Te  Te6       1.0  0.7452315756734437  0.25476840673581813  0.7452315609190193  1.0000
