data_image0
_chemical_formula_structural       Y2CrS6
_chemical_formula_sum              "Y2 Cr1 S6"
_cell_length_a       6.2316450054356265
_cell_length_b       6.231645056639609
_cell_length_c       6.231645004332453
_cell_angle_alpha    59.99999962698817
_cell_angle_beta     60.00000013003804
_cell_angle_gamma    60.00000087904991

_space_group_name_H-M_alt    "P 1"
_space_group_IT_number       1

loop_
  _space_group_symop_operation_xyz
  'x, y, z'

loop_
  _atom_site_type_symbol
  _atom_site_label
  _atom_site_symmetry_multiplicity
  _atom_site_fract_x
  _atom_site_fract_y
  _atom_site_fract_z
  _atom_site_occupancy
  Y   Y1        1.0  0.2499999909558547  0.25000000638246045  0.24999999677905516  1.0000
  Y   Y2        1.0  0.7499999506865598  0.7500001134848365  0.7499999366070998  1.0000
  Cr  Cr1       1.0  0.9999999448221558  4.32379997819199e-08  1.720291098974847e-08  1.0000
  S   S1        1.0  0.2536477145197848  0.25364768992821635  0.7463523121186335  1.0000
  S   S2        1.0  0.7463522990349915  0.746352286467534  0.2536477148167723  1.0000
  S   S3        1.0  0.7463522900936914  0.2536476674519558  0.25364773757287057  1.0000
  S   S4        1.0  0.25364774221551306  0.7463522971516129  0.7463522730437103  1.0000
  S   S5        1.0  0.25364773903879706  0.7463522381254807  0.25364772969242116  1.0000
  S   S6        1.0  0.7463523202234927  0.2536476734132696  0.7463522987941648  1.0000
