data_image0
_chemical_formula_structural       Y2CrO6
_chemical_formula_sum              "Y2 Cr1 O6"
_cell_length_a       5.219731892590292
_cell_length_b       5.219731823037876
_cell_length_c       5.219731808422531
_cell_angle_alpha    59.99999878691228
_cell_angle_beta     59.999999571235115
_cell_angle_gamma    59.99999874963501

_space_group_name_H-M_alt    "P 1"
_space_group_IT_number       1

loop_
  _space_group_symop_operation_xyz
  'x, y, z'

loop_
  _atom_site_type_symbol
  _atom_site_label
  _atom_site_symmetry_multiplicity
  _atom_site_fract_x
  _atom_site_fract_y
  _atom_site_fract_z
  _atom_site_occupancy
  Y   Y1        1.0  0.250000013302109  0.24999999589514194  0.2499999481619347  1.0000
  Y   Y2        1.0  0.7500000462284456  0.7500000815404292  0.7499999553250504  1.0000
  Cr  Cr1       1.0  5.592950040054995e-08  4.458112752885811e-08  0.999999917175962  1.0000
  O   O1        1.0  0.2464756869032564  0.2464756058367381  0.753524357370967  1.0000
  O   O2        1.0  0.7535242963204516  0.753524335509076  0.24647565806174365  1.0000
  O   O3        1.0  0.7535243384560846  0.24647570049948517  0.24647561216609642  1.0000
  O   O4        1.0  0.24647559042144418  0.7535243839752112  0.7535244125178645  1.0000
  O   O5        1.0  0.24647564569544964  0.7535242793573148  0.24647569462235416  1.0000
  O   O6        1.0  0.7535243523886339  0.24647561740737098  0.7535244257136737  1.0000
