data_image0
_chemical_formula_structural       Y2CrN6
_chemical_formula_sum              "Y2 Cr1 N6"
_cell_length_a       5.213807283248287
_cell_length_b       5.2138071993011295
_cell_length_c       5.21380746768052
_cell_angle_alpha    60.00000099968867
_cell_angle_beta     59.99999994848374
_cell_angle_gamma    59.99999775991031

_space_group_name_H-M_alt    "P 1"
_space_group_IT_number       1

loop_
  _space_group_symop_operation_xyz
  'x, y, z'

loop_
  _atom_site_type_symbol
  _atom_site_label
  _atom_site_symmetry_multiplicity
  _atom_site_fract_x
  _atom_site_fract_y
  _atom_site_fract_z
  _atom_site_occupancy
  Y   Y1        1.0  0.25000000548180235  0.25000001607574435  0.2500000283098894  1.0000
  Y   Y2        1.0  0.7500000242985961  0.7499999848031135  0.7500000053080207  1.0000
  Cr  Cr1       1.0  9.042261251365666e-08  0.9999999812076673  0.9999999872006701  1.0000
  N   N1        1.0  0.2523937662413409  0.2523938573877176  0.7476061959189603  1.0000
  N   N2        1.0  0.7476062405860184  0.7476061857738829  0.2523937455607808  1.0000
  N   N3        1.0  0.7476061859606594  0.25239377828435905  0.2523937750590629  1.0000
  N   N4        1.0  0.2523938532159049  0.7476061944059997  0.7476061701378224  1.0000
  N   N5        1.0  0.25239382063040233  0.747606122602058  0.2523938183446685  1.0000
  N   N6        1.0  0.747606108325617  0.2523938618335112  0.7476062048596454  1.0000
