data_image0
_chemical_formula_structural       Y2CS6
_chemical_formula_sum              "Y2 C1 S6"
_cell_length_a       6.10570632519135
_cell_length_b       6.105706260721003
_cell_length_c       6.10570668699785
_cell_angle_alpha    60.00000204195512
_cell_angle_beta     60.00000013430262
_cell_angle_gamma    60.00000281375119

_space_group_name_H-M_alt    "P 1"
_space_group_IT_number       1

loop_
  _space_group_symop_operation_xyz
  'x, y, z'

loop_
  _atom_site_type_symbol
  _atom_site_label
  _atom_site_symmetry_multiplicity
  _atom_site_fract_x
  _atom_site_fract_y
  _atom_site_fract_z
  _atom_site_occupancy
  Y   Y1        1.0  0.25000004911341106  0.2499999344172388  0.24999998872202955  1.0000
  Y   Y2        1.0  0.7500000093755733  0.750000029918643  0.7500000315483684  1.0000
  C   C1        1.0  0.9999998981022123  1.8654890374634016e-07  4.5556931039967343e-07  1.0000
  S   S1        1.0  0.2328451447092272  0.2328451499260727  0.7671548628793721  1.0000
  S   S2        1.0  0.767154775513674  0.7671547923448843  0.23284523755652675  1.0000
  S   S3        1.0  0.7671549195446619  0.23284504633627823  0.23284506027571558  1.0000
  S   S4        1.0  0.23284536694175392  0.7671546311556088  0.7671546290993068  1.0000
  S   S5        1.0  0.23284514193950237  0.7671548978773153  0.23284510939857817  1.0000
  S   S6        1.0  0.7671546932521659  0.23284530516089008  0.7671546935293776  1.0000
