data_image0
_chemical_formula_structural       Y2FeTe6
_chemical_formula_sum              "Y2 Fe1 Te6"
_cell_length_a       6.998156337794457
_cell_length_b       6.998156508515808
_cell_length_c       6.998156347476796
_cell_angle_alpha    60.00000041859896
_cell_angle_beta     59.99999981135075
_cell_angle_gamma    60.000000979779635

_space_group_name_H-M_alt    "P 1"
_space_group_IT_number       1

loop_
  _space_group_symop_operation_xyz
  'x, y, z'

loop_
  _atom_site_type_symbol
  _atom_site_label
  _atom_site_symmetry_multiplicity
  _atom_site_fract_x
  _atom_site_fract_y
  _atom_site_fract_z
  _atom_site_occupancy
  Y   Y1        1.0  0.24999984347760287  0.2500001343676889  0.24999999390743696  1.0000
  Y   Y2        1.0  0.7500000392099201  0.7499999113259764  0.7500001504118263  1.0000
  Fe  Fe1       1.0  0.9999999774003532  0.9999999737485538  2.442554665096433e-08  1.0000
  Te  Te1       1.0  0.24340065294513952  0.24340072035676164  0.7565993042428356  1.0000
  Te  Te2       1.0  0.7565993783602553  0.7565992903349767  0.24340062608419882  1.0000
  Te  Te3       1.0  0.756599366866519  0.24340072878310307  0.24340066967240534  1.0000
  Te  Te4       1.0  0.24340066715552383  0.7565992836587315  0.7565993184370637  1.0000
  Te  Te5       1.0  0.24340073332261944  0.756599285374923  0.24340065593164065  1.0000
  Te  Te6       1.0  0.7565993270337867  0.24340067281392322  0.7565992546844832  1.0000
