data_image0
_chemical_formula_structural       Y2FeO6
_chemical_formula_sum              "Y2 Fe1 O6"
_cell_length_a       5.226873446895563
_cell_length_b       5.226873657952608
_cell_length_c       5.2268736972020085
_cell_angle_alpha    59.99999857292947
_cell_angle_beta     60.00000000345321
_cell_angle_gamma    59.999999826716696

_space_group_name_H-M_alt    "P 1"
_space_group_IT_number       1

loop_
  _space_group_symop_operation_xyz
  'x, y, z'

loop_
  _atom_site_type_symbol
  _atom_site_label
  _atom_site_symmetry_multiplicity
  _atom_site_fract_x
  _atom_site_fract_y
  _atom_site_fract_z
  _atom_site_occupancy
  Y   Y1        1.0  0.25000008400731705  0.2499998996814428  0.25000001302225566  1.0000
  Y   Y2        1.0  0.7500000312359075  0.7499999239885633  0.7500000063766342  1.0000
  Fe  Fe1       1.0  0.9999999587380195  1.1715845590887534e-07  0.9999999237879703  1.0000
  O   O1        1.0  0.24638702928816417  0.2463870653534531  0.7536129769342089  1.0000
  O   O2        1.0  0.7536128395741499  0.75361297388811  0.24638709230676434  1.0000
  O   O3        1.0  0.7536129195361463  0.24638702266311813  0.24638712217908582  1.0000
  O   O4        1.0  0.24638705657197127  0.7536129533128797  0.7536128982871171  1.0000
  O   O5        1.0  0.24638708677917975  0.7536129443878195  0.2463870728307334  1.0000
  O   O6        1.0  0.753612980907632  0.2463870948537429  0.7536129295222158  1.0000
