data_image0
_chemical_formula_structural       Y2FeN6
_chemical_formula_sum              "Y2 Fe1 N6"
_cell_length_a       5.204867323630611
_cell_length_b       5.204866908023764
_cell_length_c       5.204867011921534
_cell_angle_alpha    59.99999980429406
_cell_angle_beta     60.00000026945766
_cell_angle_gamma    59.99999914553331

_space_group_name_H-M_alt    "P 1"
_space_group_IT_number       1

loop_
  _space_group_symop_operation_xyz
  'x, y, z'

loop_
  _atom_site_type_symbol
  _atom_site_label
  _atom_site_symmetry_multiplicity
  _atom_site_fract_x
  _atom_site_fract_y
  _atom_site_fract_z
  _atom_site_occupancy
  Y   Y1        1.0  0.25000001722081455  0.24999998677090782  0.2499999848964646  1.0000
  Y   Y2        1.0  0.7499999644449231  0.7500000356111649  0.7500000567128686  1.0000
  Fe  Fe1       1.0  0.9999999741623425  0.9999999976469234  0.9999999968038593  1.0000
  N   N1        1.0  0.2526748688584606  0.25267481446212775  0.7473251632743806  1.0000
  N   N2        1.0  0.7473250976814928  0.7473251867422579  0.25267485998239353  1.0000
  N   N3        1.0  0.7473251656828371  0.252674821530324  0.2526748884468966  1.0000
  N   N4        1.0  0.25267488661740145  0.7473251420248419  0.7473251107543436  1.0000
  N   N5        1.0  0.2526748575082472  0.7473251950471083  0.2526748350921045  1.0000
  N   N6        1.0  0.7473251613568055  0.25267481556958277  0.7473251572959666  1.0000
