data_image0
_chemical_formula_structural       Y2FeS6
_chemical_formula_sum              "Y2 Fe1 S6"
_cell_length_a       6.1747901836580406
_cell_length_b       6.174790538521278
_cell_length_c       6.1747904243913405
_cell_angle_alpha    59.999998960489144
_cell_angle_beta     59.999998565432676
_cell_angle_gamma    59.99999913161444

_space_group_name_H-M_alt    "P 1"
_space_group_IT_number       1

loop_
  _space_group_symop_operation_xyz
  'x, y, z'

loop_
  _atom_site_type_symbol
  _atom_site_label
  _atom_site_symmetry_multiplicity
  _atom_site_fract_x
  _atom_site_fract_y
  _atom_site_fract_z
  _atom_site_occupancy
  Y   Y1        1.0  0.24999994995876942  0.2500000212156723  0.2500000155226506  1.0000
  Y   Y2        1.0  0.7499999511979097  0.7500000457958776  0.7499999983547682  1.0000
  Fe  Fe1       1.0  3.005328150755009e-08  0.9999999603308034  1.7763863293633585e-08  1.0000
  S   S1        1.0  0.24821516525065074  0.2482151303993904  0.7517848545729773  1.0000
  S   S2        1.0  0.7517848690374993  0.7517848850422034  0.24821511528470822  1.0000
  S   S3        1.0  0.7517848671378341  0.24821514677336085  0.24821516283272327  1.0000
  S   S4        1.0  0.24821516333575683  0.7517848071809785  0.7517848720656333  1.0000
  S   S5        1.0  0.24821514802527156  0.7517848440981646  0.2482151485612229  1.0000
  S   S6        1.0  0.751784843800045  0.24821517531034962  0.7517848130131206  1.0000
