data_image0
_chemical_formula_structural       Y2GaTe6
_chemical_formula_sum              "Y2 Ga1 Te6"
_cell_length_a       7.253141153647254
_cell_length_b       7.253141151519693
_cell_length_c       7.2531410413581066
_cell_angle_alpha    60.00000058426687
_cell_angle_beta     60.00000020357867
_cell_angle_gamma    60.00000034645511

_space_group_name_H-M_alt    "P 1"
_space_group_IT_number       1

loop_
  _space_group_symop_operation_xyz
  'x, y, z'

loop_
  _atom_site_type_symbol
  _atom_site_label
  _atom_site_symmetry_multiplicity
  _atom_site_fract_x
  _atom_site_fract_y
  _atom_site_fract_z
  _atom_site_occupancy
  Y   Y1        1.0  0.25000002017227707  0.2499999813091098  0.24999998081410182  1.0000
  Y   Y2        1.0  0.7500000160042465  0.749999996273051  0.7500000005678233  1.0000
  Ga  Ga1       1.0  5.435430365124019e-09  0.9999999932457132  0.9999999482683334  1.0000
  Te  Te1       1.0  0.2614605076626698  0.2614604719138709  0.7385395440443631  1.0000
  Te  Te2       1.0  0.7385394987321275  0.7385395090454333  0.2614604987948092  1.0000
  Te  Te3       1.0  0.7385394654092373  0.261460518830957  0.2614605112934678  1.0000
  Te  Te4       1.0  0.26146047999011174  0.7385395161626405  0.7385395074520218  1.0000
  Te  Te5       1.0  0.2614604866623599  0.7385395388037558  0.26146050587520214  1.0000
  Te  Te6       1.0  0.7385395255210139  0.2614604725498385  0.7385394981918415  1.0000
