data_image0
_chemical_formula_structural       Y2GaN6
_chemical_formula_sum              "Y2 Ga1 N6"
_cell_length_a       5.165254744796915
_cell_length_b       5.165253600996353
_cell_length_c       5.1652538089407445
_cell_angle_alpha    59.99999978107748
_cell_angle_beta     60.00000126925577
_cell_angle_gamma    59.999997975599335

_space_group_name_H-M_alt    "P 1"
_space_group_IT_number       1

loop_
  _space_group_symop_operation_xyz
  'x, y, z'

loop_
  _atom_site_type_symbol
  _atom_site_label
  _atom_site_symmetry_multiplicity
  _atom_site_fract_x
  _atom_site_fract_y
  _atom_site_fract_z
  _atom_site_occupancy
  Y   Y1        1.0  0.2500000290727819  0.2499999819233179  0.24999997519708114  1.0000
  Y   Y2        1.0  0.7499999480274346  0.7500000548415889  0.7500000258354717  1.0000
  Ga  Ga1       1.0  0.9999999961604684  4.5051326844336486e-08  0.9999999600339701  1.0000
  N   N1        1.0  0.2528077949098319  0.25280793737711255  0.7471921833060362  1.0000
  N   N2        1.0  0.7471923473240161  0.7471921539236174  0.2528077969483952  1.0000
  N   N3        1.0  0.7471921765929005  0.25280780330115327  0.25280789462517506  1.0000
  N   N4        1.0  0.2528077617829902  0.7471921149076289  0.7471922257038822  1.0000
  N   N5        1.0  0.2528077823225791  0.7471920903608347  0.2528078132224033  1.0000
  N   N6        1.0  0.7471921618106164  0.2528078776415149  0.7471921050900225  1.0000
