data_image0
_chemical_formula_structural       Y2GaTe6
_chemical_formula_sum              "Y2 Ga1 Te6"
_cell_length_a       7.2531416509343245
_cell_length_b       7.253141587411237
_cell_length_c       7.2531414342974045
_cell_angle_alpha    60.000000859924555
_cell_angle_beta     60.0000005356395
_cell_angle_gamma    59.99999943221816

_space_group_name_H-M_alt    "P 1"
_space_group_IT_number       1

loop_
  _space_group_symop_operation_xyz
  'x, y, z'

loop_
  _atom_site_type_symbol
  _atom_site_label
  _atom_site_symmetry_multiplicity
  _atom_site_fract_x
  _atom_site_fract_y
  _atom_site_fract_z
  _atom_site_occupancy
  Y   Y1        1.0  0.25000005728214747  0.24999994619453622  0.24999997053112807  1.0000
  Y   Y2        1.0  0.7500000133029724  0.7499999989979095  0.7499999575342099  1.0000
  Ga  Ga1       1.0  0.9999999999034292  5.065714483909105e-09  0.9999999354733455  1.0000
  Te  Te1       1.0  0.2614604845020805  0.2614604637488998  0.7385395646901288  1.0000
  Te  Te2       1.0  0.7385394946630106  0.7385395169035501  0.26146051681809973  1.0000
  Te  Te3       1.0  0.7385394977079054  0.2614605050886361  0.26146050423669887  1.0000
  Te  Te4       1.0  0.261460460341756  0.7385395532381062  0.7385395255539784  1.0000
  Te  Te5       1.0  0.2614604535277329  0.7385395515485224  0.2614604915234968  1.0000
  Te  Te6       1.0  0.738539543599081  0.2614604611867872  0.7385395236010522  1.0000
