data_image0
_chemical_formula_structural       Y2GaO6
_chemical_formula_sum              "Y2 Ga1 O6"
_cell_length_a       5.1686531633476145
_cell_length_b       5.168653410269604
_cell_length_c       5.168653501536033
_cell_angle_alpha    59.999998878165
_cell_angle_beta     59.99999891486832
_cell_angle_gamma    60.00000124228683

_space_group_name_H-M_alt    "P 1"
_space_group_IT_number       1

loop_
  _space_group_symop_operation_xyz
  'x, y, z'

loop_
  _atom_site_type_symbol
  _atom_site_label
  _atom_site_symmetry_multiplicity
  _atom_site_fract_x
  _atom_site_fract_y
  _atom_site_fract_z
  _atom_site_occupancy
  Y   Y1        1.0  0.2500000013826062  0.2499999868145258  0.2499999854939399  1.0000
  Y   Y2        1.0  0.7499999853500846  0.7499999699218279  0.7499999940321389  1.0000
  Ga  Ga1       1.0  0.9999999682045464  0.9999999881521854  5.66469515878279e-08  1.0000
  O   O1        1.0  0.2603739543104054  0.26037401774585117  0.7396260398920027  1.0000
  O   O2        1.0  0.7396260889935249  0.7396260574686411  0.2603739701285189  1.0000
  O   O3        1.0  0.7396260635411335  0.26037394847464157  0.2603740071747202  1.0000
  O   O4        1.0  0.2603739811412187  0.7396260153704012  0.7396259591695825  1.0000
  O   O5        1.0  0.2603739285153863  0.739626117398461  0.26037394567412275  1.0000
  O   O6        1.0  0.7396259928414208  0.2603739483377796  0.7396260217136527  1.0000
