data_image0
_chemical_formula_structural       Y2GaO6
_chemical_formula_sum              "Y2 Ga1 O6"
_cell_length_a       5.168653134284849
_cell_length_b       5.168653391122918
_cell_length_c       5.168653427754208
_cell_angle_alpha    59.999998557797426
_cell_angle_beta     59.99999770109291
_cell_angle_gamma    59.999999138365204

_space_group_name_H-M_alt    "P 1"
_space_group_IT_number       1

loop_
  _space_group_symop_operation_xyz
  'x, y, z'

loop_
  _atom_site_type_symbol
  _atom_site_label
  _atom_site_symmetry_multiplicity
  _atom_site_fract_x
  _atom_site_fract_y
  _atom_site_fract_z
  _atom_site_occupancy
  Y   Y1        1.0  0.25000002780798847  0.25000000995757515  0.2500000043767193  1.0000
  Y   Y2        1.0  0.749999976348555  0.7499999824814713  0.7500000071696755  1.0000
  Ga  Ga1       1.0  0.9999999735980077  0.9999999786739343  7.803674636553233e-08  1.0000
  O   O1        1.0  0.2603739406429804  0.2603739711264968  0.7396260626274922  1.0000
  O   O2        1.0  0.7396261219820449  0.7396260402690515  0.2603739140758902  1.0000
  O   O3        1.0  0.7396260444607519  0.26037392111844126  0.2603740063926739  1.0000
  O   O4        1.0  0.26037400020289403  0.7396260168206611  0.7396259444342458  1.0000
  O   O5        1.0  0.26037391824936806  0.7396261079247366  0.2603739597012874  1.0000
  O   O6        1.0  0.7396260263313033  0.260373962709883  0.7396260289920771  1.0000
