data_image0
_chemical_formula_structural       Y2GaS6
_chemical_formula_sum              "Y2 Ga1 S6"
_cell_length_a       6.289890085272106
_cell_length_b       6.289890243692233
_cell_length_c       6.289890166790637
_cell_angle_alpha    60.000000186185936
_cell_angle_beta     60.00000009702381
_cell_angle_gamma    60.00000076727334

_space_group_name_H-M_alt    "P 1"
_space_group_IT_number       1

loop_
  _space_group_symop_operation_xyz
  'x, y, z'

loop_
  _atom_site_type_symbol
  _atom_site_label
  _atom_site_symmetry_multiplicity
  _atom_site_fract_x
  _atom_site_fract_y
  _atom_site_fract_z
  _atom_site_occupancy
  Y   Y1        1.0  0.25000007823106823  0.2500000125974505  0.24999996734572516  1.0000
  Y   Y2        1.0  0.7500000298086354  0.7499999034380265  0.7500000446291233  1.0000
  Ga  Ga1       1.0  0.9999999810660536  6.230925191350982e-08  0.9999999942108758  1.0000
  S   S1        1.0  0.2571326026995412  0.25713261472355314  0.7428673939860894  1.0000
  S   S2        1.0  0.7428672953712397  0.742867369462668  0.2571326189443207  1.0000
  S   S3        1.0  0.742867347119758  0.2571326950229195  0.2571326187069716  1.0000
  S   S4        1.0  0.25713266248962635  0.7428673125292714  0.7428673490290926  1.0000
  S   S5        1.0  0.25713270992841003  0.7428673497450146  0.257132623108952  1.0000
  S   S6        1.0  0.7428672938394822  0.2571326753316531  0.7428673833015004  1.0000
