data_image0
_chemical_formula_structural       Y2GeO6
_chemical_formula_sum              "Y2 Ge1 O6"
_cell_length_a       5.22243282390481
_cell_length_b       5.222432739746949
_cell_length_c       5.2224324168676866
_cell_angle_alpha    60.00000058713138
_cell_angle_beta     60.000000858895326
_cell_angle_gamma    59.999998761053305

_space_group_name_H-M_alt    "P 1"
_space_group_IT_number       1

loop_
  _space_group_symop_operation_xyz
  'x, y, z'

loop_
  _atom_site_type_symbol
  _atom_site_label
  _atom_site_symmetry_multiplicity
  _atom_site_fract_x
  _atom_site_fract_y
  _atom_site_fract_z
  _atom_site_occupancy
  Y   Y1        1.0  0.2499999219381767  0.2500000573233709  0.2500000908325972  1.0000
  Y   Y2        1.0  0.7499999355741115  0.7500001203765563  0.7500000506553712  1.0000
  Ge  Ge1       1.0  2.0412831714205295e-08  1.1725807612113125e-08  0.9999999915899461  1.0000
  O   O1        1.0  0.2532676447688943  0.25326757529743216  0.7467323385292908  1.0000
  O   O2        1.0  0.7467324394574686  0.7467323467798791  0.25326757806087996  1.0000
  O   O3        1.0  0.7467324114040658  0.2532675628543863  0.2532675730303273  1.0000
  O   O4        1.0  0.2532676227270958  0.7467323967455111  0.746732388142482  1.0000
  O   O5        1.0  0.25326760729378134  0.7467323360312824  0.2532675798974414  1.0000
  O   O6        1.0  0.7467324325776685  0.2532675930815141  0.746732391733958  1.0000
