data_image0
_chemical_formula_structural       Y2GeTe6
_chemical_formula_sum              "Y2 Ge1 Te6"
_cell_length_a       7.255627713257746
_cell_length_b       7.255627704440467
_cell_length_c       7.255627758016333
_cell_angle_alpha    59.99999911744167
_cell_angle_beta     60.00000003242523
_cell_angle_gamma    59.999999831899146

_space_group_name_H-M_alt    "P 1"
_space_group_IT_number       1

loop_
  _space_group_symop_operation_xyz
  'x, y, z'

loop_
  _atom_site_type_symbol
  _atom_site_label
  _atom_site_symmetry_multiplicity
  _atom_site_fract_x
  _atom_site_fract_y
  _atom_site_fract_z
  _atom_site_occupancy
  Y   Y1        1.0  0.24999995862133678  0.24999989719362167  0.2500000576876492  1.0000
  Y   Y2        1.0  0.7500000123041829  0.7500001034511588  0.7499999388766873  1.0000
  Ge  Ge1       1.0  0.9999999709842208  0.9999999915600347  3.388851771022921e-08  1.0000
  Te  Te1       1.0  0.2618933176366611  0.26189321675116645  0.7381067543360502  1.0000
  Te  Te2       1.0  0.7381066998106439  0.7381067923335785  0.26189329468536016  1.0000
  Te  Te3       1.0  0.7381067732016563  0.261893257376784  0.2618932604921247  1.0000
  Te  Te4       1.0  0.26189324647974244  0.7381067736518707  0.7381066951240947  1.0000
  Te  Te5       1.0  0.2618932575584062  0.7381067370114215  0.2618932698351369  1.0000
  Te  Te6       1.0  0.7381067687150149  0.26189322649751323  0.7381066997060455  1.0000
