data_image0
_chemical_formula_structural       Y2GeS6
_chemical_formula_sum              "Y2 Ge1 S6"
_cell_length_a       6.407281568856348
_cell_length_b       6.407281674420739
_cell_length_c       6.4072817545241785
_cell_angle_alpha    59.9999985041668
_cell_angle_beta     59.99999892889575
_cell_angle_gamma    59.9999998615862

_space_group_name_H-M_alt    "P 1"
_space_group_IT_number       1

loop_
  _space_group_symop_operation_xyz
  'x, y, z'

loop_
  _atom_site_type_symbol
  _atom_site_label
  _atom_site_symmetry_multiplicity
  _atom_site_fract_x
  _atom_site_fract_y
  _atom_site_fract_z
  _atom_site_occupancy
  Y   Y1        1.0  0.2500000006231138  0.2500000223230908  0.25000000542546746  1.0000
  Y   Y2        1.0  0.7499999987210382  0.7500000115360903  0.7499999815774512  1.0000
  Ge  Ge1       1.0  0.9999999908798343  5.734466937884228e-09  1.886081611064152e-08  1.0000
  S   S1        1.0  0.2537845318562944  0.2537845239241277  0.7462154472619432  1.0000
  S   S2        1.0  0.7462154898791267  0.7462154697937836  0.25378452208366387  1.0000
  S   S3        1.0  0.7462154732169598  0.25378454500990116  0.25378453442150056  1.0000
  S   S4        1.0  0.2537845075964128  0.7462154525309878  0.7462154690808844  1.0000
  S   S5        1.0  0.25378451183588563  0.7462154468942452  0.2537845683645543  1.0000
  S   S6        1.0  0.7462154820299508  0.2537845277087749  0.7462154541270517  1.0000
