data_image0
_chemical_formula_structural       Y2GeN6
_chemical_formula_sum              "Y2 Ge1 N6"
_cell_length_a       5.16648811526357
_cell_length_b       5.1664877361552
_cell_length_c       5.166487870247371
_cell_angle_alpha    60.00000209272679
_cell_angle_beta     59.999999796700365
_cell_angle_gamma    59.999999687557455

_space_group_name_H-M_alt    "P 1"
_space_group_IT_number       1

loop_
  _space_group_symop_operation_xyz
  'x, y, z'

loop_
  _atom_site_type_symbol
  _atom_site_label
  _atom_site_symmetry_multiplicity
  _atom_site_fract_x
  _atom_site_fract_y
  _atom_site_fract_z
  _atom_site_occupancy
  Y   Y1        1.0  0.24999996064704555  0.24999997041401353  0.25000002022131507  1.0000
  Y   Y2        1.0  0.7499999793312996  0.7499999610237189  0.7500000451445498  1.0000
  Ge  Ge1       1.0  5.867507953410161e-08  0.999999931253875  0.9999999876155627  1.0000
  N   N1        1.0  0.2565342910088921  0.2565341270546526  0.7434657990131966  1.0000
  N   N2        1.0  0.7434658153728967  0.7434658683880909  0.2565341240507281  1.0000
  N   N3        1.0  0.7434657693061  0.25653428971530556  0.2565342596006181  1.0000
  N   N4        1.0  0.25653414983301204  0.743465757879676  0.7434658742392928  1.0000
  N   N5        1.0  0.25653418053121657  0.7434657857391589  0.25653424400044367  1.0000
  N   N6        1.0  0.7434658378961069  0.25653421207414207  0.7434657605664534  1.0000
