data_image0
_chemical_formula_structural       Y2GeSe6
_chemical_formula_sum              "Y2 Ge1 Se6"
_cell_length_a       6.710828567735382
_cell_length_b       6.71082852123141
_cell_length_c       6.710828599577309
_cell_angle_alpha    59.99999904635449
_cell_angle_beta     59.99999906004021
_cell_angle_gamma    59.99999950448814

_space_group_name_H-M_alt    "P 1"
_space_group_IT_number       1

loop_
  _space_group_symop_operation_xyz
  'x, y, z'

loop_
  _atom_site_type_symbol
  _atom_site_label
  _atom_site_symmetry_multiplicity
  _atom_site_fract_x
  _atom_site_fract_y
  _atom_site_fract_z
  _atom_site_occupancy
  Y   Y1        1.0  0.24999991531827456  0.25000000579929965  0.2500000816250586  1.0000
  Y   Y2        1.0  0.7499999876274833  0.7500000666736515  0.7499999742301359  1.0000
  Ge  Ge1       1.0  2.1202453163459717e-09  9.12513925166514e-09  0.9999999705352444  1.0000
  Se  Se1       1.0  0.256359995761857  0.25635992677237424  0.7436399855150596  1.0000
  Se  Se2       1.0  0.7436400478450895  0.7436400179486294  0.2563599565962294  1.0000
  Se  Se3       1.0  0.7436400439451883  0.2563599746397589  0.2563599226853264  1.0000
  Se  Se4       1.0  0.2563599646045444  0.7436400339572186  0.7436401137959961  1.0000
  Se  Se5       1.0  0.2563599745587866  0.7436400466002165  0.2563599460341384  1.0000
  Se  Se6       1.0  0.7436400790589506  0.25635991454603746  0.7436400514050621  1.0000
