data_image0
_chemical_formula_structural       Y2HfO6
_chemical_formula_sum              "Y2 Hf1 O6"
_cell_length_a       5.373940742284802
_cell_length_b       5.3739401866468235
_cell_length_c       5.37394016227757
_cell_angle_alpha    60.00000152059616
_cell_angle_beta     60.00000134317914
_cell_angle_gamma    59.999998341318545

_space_group_name_H-M_alt    "P 1"
_space_group_IT_number       1

loop_
  _space_group_symop_operation_xyz
  'x, y, z'

loop_
  _atom_site_type_symbol
  _atom_site_label
  _atom_site_symmetry_multiplicity
  _atom_site_fract_x
  _atom_site_fract_y
  _atom_site_fract_z
  _atom_site_occupancy
  Y   Y1        1.0  0.25000003411624705  0.25000001932984994  0.2499999491167833  1.0000
  Y   Y2        1.0  0.7499999924185674  0.7500000010134404  0.7499999959326139  1.0000
  Hf  Hf1       1.0  1.5670266076508168e-08  4.558087905372616e-09  0.9999999526691821  1.0000
  O   O1        1.0  0.26171809217722913  0.2617181941917212  0.7382818565584135  1.0000
  O   O2        1.0  0.7382818695054563  0.7382818466629708  0.2617181478779895  1.0000
  O   O3        1.0  0.7382819044345658  0.26171811051584487  0.2617181349269514  1.0000
  O   O4        1.0  0.2617180840752892  0.7382818756417802  0.7382819094960478  1.0000
  O   O5        1.0  0.2617181465840595  0.7382819006913597  0.2617181261395052  1.0000
  O   O6        1.0  0.738281872897667  0.2617180763500869  0.7382819017731507  1.0000
