data_image0
_chemical_formula_structural       Y2HfTe6
_chemical_formula_sum              "Y2 Hf1 Te6"
_cell_length_a       7.3536009561742075
_cell_length_b       7.353600988255282
_cell_length_c       7.353600997610914
_cell_angle_alpha    59.99999962020179
_cell_angle_beta     60.00000011554054
_cell_angle_gamma    60.000000336350716

_space_group_name_H-M_alt    "P 1"
_space_group_IT_number       1

loop_
  _space_group_symop_operation_xyz
  'x, y, z'

loop_
  _atom_site_type_symbol
  _atom_site_label
  _atom_site_symmetry_multiplicity
  _atom_site_fract_x
  _atom_site_fract_y
  _atom_site_fract_z
  _atom_site_occupancy
  Y   Y1        1.0  0.25000000826503355  0.24999999330013045  0.2500000346691031  1.0000
  Y   Y2        1.0  0.7499999805422936  0.7499999948899239  0.7499999785715155  1.0000
  Hf  Hf1       1.0  5.7094972063573674e-09  2.997906415769103e-08  2.97514482196202e-08  1.0000
  Te  Te1       1.0  0.26464864339423344  0.2646486694363729  0.7353513560769395  1.0000
  Te  Te2       1.0  0.7353513423514995  0.7353513420707314  0.2646486919119242  1.0000
  Te  Te3       1.0  0.7353513850759436  0.26464861130256817  0.26464864391129295  1.0000
  Te  Te4       1.0  0.26464868790724755  0.7353513269223793  0.735351319586876  1.0000
  Te  Te5       1.0  0.26464859745921115  0.7353513725645591  0.26464863577491016  1.0000
  Te  Te6       1.0  0.7353513433832951  0.2646486605940918  0.7353513177693115  1.0000
