data_image0
_chemical_formula_structural       Y2HfS6
_chemical_formula_sum              "Y2 Hf1 S6"
_cell_length_a       6.434170935865685
_cell_length_b       6.434170849575343
_cell_length_c       6.43417089350707
_cell_angle_alpha    59.9999996370828
_cell_angle_beta     60.00000014014267
_cell_angle_gamma    60.00000051424526

_space_group_name_H-M_alt    "P 1"
_space_group_IT_number       1

loop_
  _space_group_symop_operation_xyz
  'x, y, z'

loop_
  _atom_site_type_symbol
  _atom_site_label
  _atom_site_symmetry_multiplicity
  _atom_site_fract_x
  _atom_site_fract_y
  _atom_site_fract_z
  _atom_site_occupancy
  Y   Y1        1.0  0.24999994908053577  0.24999997876758828  0.25000003772908197  1.0000
  Y   Y2        1.0  0.7500000458647145  0.7500000295743015  0.7499999330474845  1.0000
  Hf  Hf1       1.0  3.607953115816349e-09  0.999999967640488  9.713174033908898e-09  1.0000
  S   S1        1.0  0.26387148239271235  0.26387150553215355  0.7361285066185689  1.0000
  S   S2        1.0  0.7361285251150015  0.7361285028097363  0.263871518490636  1.0000
  S   S3        1.0  0.7361285094558818  0.2638714972922749  0.26387147234664105  1.0000
  S   S4        1.0  0.2638714916166444  0.7361285034356121  0.7361285302573248  1.0000
  S   S5        1.0  0.26387149369119184  0.7361284983202973  0.2638714872739122  1.0000
  S   S6        1.0  0.7361284963957827  0.26387151382859386  0.7361285166665292  1.0000
