data_image0
_chemical_formula_structural       Y2HfSe6
_chemical_formula_sum              "Y2 Hf1 Se6"
_cell_length_a       6.80312332879297
_cell_length_b       6.803123262181041
_cell_length_c       6.803123342545761
_cell_angle_alpha    60.0000004156983
_cell_angle_beta     60.00000226532221
_cell_angle_gamma    60.00000062654928

_space_group_name_H-M_alt    "P 1"
_space_group_IT_number       1

loop_
  _space_group_symop_operation_xyz
  'x, y, z'

loop_
  _atom_site_type_symbol
  _atom_site_label
  _atom_site_symmetry_multiplicity
  _atom_site_fract_x
  _atom_site_fract_y
  _atom_site_fract_z
  _atom_site_occupancy
  Y   Y1        1.0  0.2500000366338663  0.2500000758569136  0.24999999947465887  1.0000
  Y   Y2        1.0  0.7499999129667677  0.7499999629312666  0.7499997750079815  1.0000
  Hf  Hf1       1.0  2.364170865016535e-08  3.600537062366909e-08  3.63225496914278e-08  1.0000
  Se  Se1       1.0  0.26371844643804454  0.263718417475872  0.7362815430561748  1.0000
  Se  Se2       1.0  0.7362815573235748  0.7362815403002247  0.2637185667629803  1.0000
  Se  Se3       1.0  0.7362815964953703  0.26371838428090627  0.2637184662108352  1.0000
  Se  Se4       1.0  0.263718462780328  0.7362815698946534  0.7362815823736358  1.0000
  Se  Se5       1.0  0.26371839103534905  0.7362815481357116  0.2637184168882921  1.0000
  Se  Se6       1.0  0.7362815743558706  0.26371846364844076  0.7362816027969018  1.0000
