data_image0
_chemical_formula_structural       Y2HfN6
_chemical_formula_sum              "Y2 Hf1 N6"
_cell_length_a       5.279609060127775
_cell_length_b       5.279609049394354
_cell_length_c       5.279609991672128
_cell_angle_alpha    59.99999838449524
_cell_angle_beta     59.999996629934266
_cell_angle_gamma    59.9999956445084

_space_group_name_H-M_alt    "P 1"
_space_group_IT_number       1

loop_
  _space_group_symop_operation_xyz
  'x, y, z'

loop_
  _atom_site_type_symbol
  _atom_site_label
  _atom_site_symmetry_multiplicity
  _atom_site_fract_x
  _atom_site_fract_y
  _atom_site_fract_z
  _atom_site_occupancy
  Y   Y1        1.0  0.2500000222129888  0.24999995864234922  0.24999999660659397  1.0000
  Y   Y2        1.0  0.7499999859778836  0.7500000916651365  0.7499998862937778  1.0000
  Hf  Hf1       1.0  0.999999969028189  0.999999942005889  0.9999999819783416  1.0000
  N   N1        1.0  0.27982220840441974  0.2798220887508504  0.7201777725808998  1.0000
  N   N2        1.0  0.7201780008665075  0.7201779685159106  0.27982172408199524  1.0000
  N   N3        1.0  0.7201780089922382  0.2798218820993501  0.2798222070854134  1.0000
  N   N4        1.0  0.2798219162483775  0.7201778921561887  0.7201781564746584  1.0000
  N   N5        1.0  0.2798220423800145  0.7201781764223266  0.27982203224630314  1.0000
  N   N6        1.0  0.7201779440270558  0.2798219457978705  0.7201782006173173  1.0000
