data_image0
_chemical_formula_structural       Y2IrO6
_chemical_formula_sum              "Y2 Ir1 O6"
_cell_length_a       5.378500897265784
_cell_length_b       5.378500906234073
_cell_length_c       5.378500756860968
_cell_angle_alpha    60.00000078685894
_cell_angle_beta     60.0000010893679
_cell_angle_gamma    60.000000470181256

_space_group_name_H-M_alt    "P 1"
_space_group_IT_number       1

loop_
  _space_group_symop_operation_xyz
  'x, y, z'

loop_
  _atom_site_type_symbol
  _atom_site_label
  _atom_site_symmetry_multiplicity
  _atom_site_fract_x
  _atom_site_fract_y
  _atom_site_fract_z
  _atom_site_occupancy
  Y   Y1        1.0  0.2500000570586434  0.24999994879147963  0.24999998452955016  1.0000
  Y   Y2        1.0  0.7500000200457962  0.7500000034951629  0.7499999543118637  1.0000
  Ir  Ir1       1.0  2.6651848025670548e-08  0.9999999908915523  0.9999999354506746  1.0000
  O   O1        1.0  0.2517954370850582  0.2517955050290551  0.7482045204091514  1.0000
  O   O2        1.0  0.7482045276856931  0.7482045588360724  0.2517954727282348  1.0000
  O   O3        1.0  0.7482044470354697  0.2517954889270296  0.2517954780565095  1.0000
  O   O4        1.0  0.25179551764973934  0.7482045043476278  0.7482045652929165  1.0000
  O   O5        1.0  0.2517954413367524  0.7482045624409526  0.25179548371067056  1.0000
  O   O6        1.0  0.7482045232182266  0.2517954376650405  0.7482046027695569  1.0000
