data_image0
_chemical_formula_structural       Y2IrS6
_chemical_formula_sum              "Y2 Ir1 S6"
_cell_length_a       6.388739289358257
_cell_length_b       6.388739265751945
_cell_length_c       6.388739233775807
_cell_angle_alpha    60.00000066739063
_cell_angle_beta     59.99999988157782
_cell_angle_gamma    59.99999995360325

_space_group_name_H-M_alt    "P 1"
_space_group_IT_number       1

loop_
  _space_group_symop_operation_xyz
  'x, y, z'

loop_
  _atom_site_type_symbol
  _atom_site_label
  _atom_site_symmetry_multiplicity
  _atom_site_fract_x
  _atom_site_fract_y
  _atom_site_fract_z
  _atom_site_occupancy
  Y   Y1        1.0  0.25000000554745516  0.2500000334910033  0.24999998114852912  1.0000
  Y   Y2        1.0  0.7499999902268146  0.7500000007870938  0.7500000252793693  1.0000
  Ir  Ir1       1.0  2.796928196219874e-08  0.999999986580742  5.512581802765722e-10  1.0000
  S   S1        1.0  0.2546956520445451  0.25469562332917767  0.7453043572103956  1.0000
  S   S2        1.0  0.7453043490987192  0.7453043189311503  0.2546956862808736  1.0000
  S   S3        1.0  0.7453043872523242  0.2546956428973191  0.25469563536944234  1.0000
  S   S4        1.0  0.25469561460196793  0.7453043568741144  0.7453043617929656  1.0000
  S   S5        1.0  0.25469566372518176  0.7453043456619106  0.25469563033448406  1.0000
  S   S6        1.0  0.7453043027109554  0.254695679031002  0.745304339205927  1.0000
