data_image0
_chemical_formula_structural       Y2IrN6
_chemical_formula_sum              "Y2 Ir1 N6"
_cell_length_a       5.371273243237077
_cell_length_b       5.371273581446518
_cell_length_c       5.37127366044813
_cell_angle_alpha    59.99999969221191
_cell_angle_beta     59.999999309448825
_cell_angle_gamma    60.000000455901265

_space_group_name_H-M_alt    "P 1"
_space_group_IT_number       1

loop_
  _space_group_symop_operation_xyz
  'x, y, z'

loop_
  _atom_site_type_symbol
  _atom_site_label
  _atom_site_symmetry_multiplicity
  _atom_site_fract_x
  _atom_site_fract_y
  _atom_site_fract_z
  _atom_site_occupancy
  Y   Y1        1.0  0.24999999163444173  0.2499999958670311  0.24999997099835666  1.0000
  Y   Y2        1.0  0.7500000434351781  0.7500000012821476  0.7500000413083969  1.0000
  Ir  Ir1       1.0  2.0976085589139227e-08  2.7362110806415946e-08  3.372780151546421e-11  1.0000
  N   N1        1.0  0.25843471086193887  0.25843471288406467  0.7415652846153908  1.0000
  N   N2        1.0  0.7415652245581723  0.7415652865452907  0.2584347205233528  1.0000
  N   N3        1.0  0.7415652981452312  0.25843470097495846  0.258434709963769  1.0000
  N   N4        1.0  0.25843475110469166  0.7415652665319336  0.7415652728388602  1.0000
  N   N5        1.0  0.25843467636419803  0.7415653214271378  0.25843468766471733  1.0000
  N   N6        1.0  0.7415652832026379  0.25843468940309705  0.7415652885296896  1.0000
