data_image0
_chemical_formula_structural       Y2IrS6
_chemical_formula_sum              "Y2 Ir1 S6"
_cell_length_a       6.387488764340504
_cell_length_b       6.387488937655652
_cell_length_c       6.387488823612316
_cell_angle_alpha    60.000000339461245
_cell_angle_beta     60.000000426832216
_cell_angle_gamma    60.000001774083806

_space_group_name_H-M_alt    "P 1"
_space_group_IT_number       1

loop_
  _space_group_symop_operation_xyz
  'x, y, z'

loop_
  _atom_site_type_symbol
  _atom_site_label
  _atom_site_symmetry_multiplicity
  _atom_site_fract_x
  _atom_site_fract_y
  _atom_site_fract_z
  _atom_site_occupancy
  Y   Y1        1.0  0.24999992783098432  0.2500000206533468  0.2500000326492001  1.0000
  Y   Y2        1.0  0.7500000176988967  0.7499999775939112  0.7499999901509247  1.0000
  Ir  Ir1       1.0  0.9999999961651762  1.1504472389414267e-08  2.5910824569942946e-08  1.0000
  S   S1        1.0  0.2547521733773386  0.25475214355646414  0.7452478450279126  1.0000
  S   S2        1.0  0.7452478433849118  0.745247879617152  0.254752137520651  1.0000
  S   S3        1.0  0.745247858542985  0.25475218164316765  0.2547521550478943  1.0000
  S   S4        1.0  0.2547521695044203  0.7452478185215036  0.7452478177069598  1.0000
  S   S5        1.0  0.25475215602965834  0.7452478155258085  0.25475218258101906  1.0000
  S   S6        1.0  0.7452478531005715  0.25475216546474133  0.7452478123506044  1.0000
