data_image0
_chemical_formula_structural       Y2IrO6
_chemical_formula_sum              "Y2 Ir1 O6"
_cell_length_a       5.378616456682484
_cell_length_b       5.378616276445155
_cell_length_c       5.378616352258587
_cell_angle_alpha    59.99999924673765
_cell_angle_beta     59.999998822955334
_cell_angle_gamma    59.99999813606242

_space_group_name_H-M_alt    "P 1"
_space_group_IT_number       1

loop_
  _space_group_symop_operation_xyz
  'x, y, z'

loop_
  _atom_site_type_symbol
  _atom_site_label
  _atom_site_symmetry_multiplicity
  _atom_site_fract_x
  _atom_site_fract_y
  _atom_site_fract_z
  _atom_site_occupancy
  Y   Y1        1.0  0.24999998875588697  0.25000005788831525  0.25000001803915867  1.0000
  Y   Y2        1.0  0.7500000042634053  0.7499999823916409  0.749999996892832  1.0000
  Ir  Ir1       1.0  1.0194768595268508e-09  0.9999999840605579  0.9999999721349125  1.0000
  O   O1        1.0  0.25179197835649847  0.2517920172952858  0.7482080256343475  1.0000
  O   O2        1.0  0.7482080267215908  0.7482079159627028  0.25179208325958397  1.0000
  O   O3        1.0  0.7482080385692906  0.2517919735396103  0.25179193018088003  1.0000
  O   O4        1.0  0.2517919889296009  0.748208059909156  0.7482080021359797  1.0000
  O   O5        1.0  0.25179199221105386  0.7482080194014742  0.25179195291060585  1.0000
  O   O6        1.0  0.7482079778441849  0.25179198672253494  0.7482080478194585  1.0000
