data_image0
_chemical_formula_structural       Y2MnN6
_chemical_formula_sum              "Y2 Mn1 N6"
_cell_length_a       5.203540798924943
_cell_length_b       5.203541327082388
_cell_length_c       5.203540904799
_cell_angle_alpha    59.99999933608446
_cell_angle_beta     60.00000053405608
_cell_angle_gamma    59.999999541262255

_space_group_name_H-M_alt    "P 1"
_space_group_IT_number       1

loop_
  _space_group_symop_operation_xyz
  'x, y, z'

loop_
  _atom_site_type_symbol
  _atom_site_label
  _atom_site_symmetry_multiplicity
  _atom_site_fract_x
  _atom_site_fract_y
  _atom_site_fract_z
  _atom_site_occupancy
  Y   Y1        1.0  0.25000001497174934  0.25000005981333906  0.24999995617879595  1.0000
  Y   Y2        1.0  0.7499999451727108  0.7499999793775829  0.7500000722483902  1.0000
  Mn  Mn1       1.0  1.3156697522634718e-08  4.707351442358527e-08  0.9999999506672099  1.0000
  N   N1        1.0  0.2502817593656661  0.250281735869057  0.7497182185835365  1.0000
  N   N2        1.0  0.7497181862106806  0.7497182138821916  0.25028179458565436  1.0000
  N   N3        1.0  0.749718214264142  0.25028176400460245  0.25028177362297716  1.0000
  N   N4        1.0  0.2502818438115755  0.7497182210517781  0.749718192548719  1.0000
  N   N5        1.0  0.2502818165820275  0.7497182046290507  0.2502817983752812  1.0000
  N   N6        1.0  0.7497182219028206  0.2502817992567336  0.7497182219866597  1.0000
