data_image0
_chemical_formula_structural       Y2MnO6
_chemical_formula_sum              "Y2 Mn1 O6"
_cell_length_a       5.181752284429276
_cell_length_b       5.181752084129641
_cell_length_c       5.181751562637712
_cell_angle_alpha    60.00000141222749
_cell_angle_beta     60.000001336457494
_cell_angle_gamma    59.99999876203733

_space_group_name_H-M_alt    "P 1"
_space_group_IT_number       1

loop_
  _space_group_symop_operation_xyz
  'x, y, z'

loop_
  _atom_site_type_symbol
  _atom_site_label
  _atom_site_symmetry_multiplicity
  _atom_site_fract_x
  _atom_site_fract_y
  _atom_site_fract_z
  _atom_site_occupancy
  Y   Y1        1.0  0.24999995973967887  0.2500000408783386  0.25000000314277804  1.0000
  Y   Y2        1.0  0.7499999526905685  0.7500000091835164  0.7500000448571125  1.0000
  Mn  Mn1       1.0  1.665699337406559e-08  0.9999999834549899  0.999999972926117  1.0000
  O   O1        1.0  0.25225750648394135  0.2522574160635758  0.7477425456946907  1.0000
  O   O2        1.0  0.7477425639617806  0.7477425276374976  0.252257420512219  1.0000
  O   O3        1.0  0.7477425352430814  0.2522574925299841  0.252257387524907  1.0000
  O   O4        1.0  0.2522574133590383  0.7477425693497349  0.7477426171816205  1.0000
  O   O5        1.0  0.2522574595010515  0.7477425267204514  0.25225742688158553  1.0000
  O   O6        1.0  0.7477426004321697  0.2522574618885066  0.747742553005222  1.0000
