data_image0
_chemical_formula_structural       Y2MnSe6
_chemical_formula_sum              "Y2 Mn1 Se6"
_cell_length_a       6.617698590866195
_cell_length_b       6.617698676163111
_cell_length_c       6.617698495048491
_cell_angle_alpha    60.00000055972578
_cell_angle_beta     60.00000042501092
_cell_angle_gamma    60.000000314159614

_space_group_name_H-M_alt    "P 1"
_space_group_IT_number       1

loop_
  _space_group_symop_operation_xyz
  'x, y, z'

loop_
  _atom_site_type_symbol
  _atom_site_label
  _atom_site_symmetry_multiplicity
  _atom_site_fract_x
  _atom_site_fract_y
  _atom_site_fract_z
  _atom_site_occupancy
  Y   Y1        1.0  0.2499999032329135  0.250000115061992  0.24999998291624692  1.0000
  Y   Y2        1.0  0.7500000127644879  0.7500000379679259  0.7500001004237298  1.0000
  Mn  Mn1       1.0  3.317063706884795e-08  0.9999999685379105  1.57678192935306e-08  1.0000
  Se  Se1       1.0  0.24950239988636935  0.2495023292828502  0.7504976233214058  1.0000
  Se  Se2       1.0  0.7504976803978335  0.7504975350361306  0.24950234392091417  1.0000
  Se  Se3       1.0  0.7504976174877674  0.2495024102262128  0.24950232859235347  1.0000
  Se  Se4       1.0  0.24950239456813017  0.7504975854932591  0.7504976251970659  1.0000
  Se  Se5       1.0  0.24950238207571068  0.7504976447260154  0.24950232038869288  1.0000
  Se  Se6       1.0  0.7504975764880472  0.24950238060483457  0.7504976483633058  1.0000
