data_image0
_chemical_formula_structural       Y2MnTe6
_chemical_formula_sum              "Y2 Mn1 Te6"
_cell_length_a       7.068307810260994
_cell_length_b       7.068307680240928
_cell_length_c       7.0683075883546636
_cell_angle_alpha    60.00000018180604
_cell_angle_beta     59.999999825336275
_cell_angle_gamma    59.99999947714528

_space_group_name_H-M_alt    "P 1"
_space_group_IT_number       1

loop_
  _space_group_symop_operation_xyz
  'x, y, z'

loop_
  _atom_site_type_symbol
  _atom_site_label
  _atom_site_symmetry_multiplicity
  _atom_site_fract_x
  _atom_site_fract_y
  _atom_site_fract_z
  _atom_site_occupancy
  Y   Y1        1.0  0.25000007331961965  0.2499999287177289  0.250000038072156  1.0000
  Y   Y2        1.0  0.7499999800754956  0.7500000010113558  0.7500001083371111  1.0000
  Mn  Mn1       1.0  3.844837275438751e-09  0.9999999982672728  4.60300820441897e-09  1.0000
  Te  Te1       1.0  0.251664726615934  0.2516647685121832  0.748335238571056  1.0000
  Te  Te2       1.0  0.7483352586762556  0.7483352773096215  0.251664673043207  1.0000
  Te  Te3       1.0  0.7483352108940649  0.2516647682264969  0.2516647182573447  1.0000
  Te  Te4       1.0  0.2516647390358223  0.7483352758625809  0.7483352331259203  1.0000
  Te  Te5       1.0  0.25166476376698665  0.7483352541905408  0.2516647265119592  1.0000
  Te  Te6       1.0  0.7483352433739834  0.251664730985813  0.7483352596765057  1.0000
