data_image0
_chemical_formula_structural       Y2MnS6
_chemical_formula_sum              "Y2 Mn1 S6"
_cell_length_a       6.2173616111461785
_cell_length_b       6.217361314386063
_cell_length_c       6.217361550847823
_cell_angle_alpha    59.99999840710197
_cell_angle_beta     59.9999991900009
_cell_angle_gamma    59.99999819215325

_space_group_name_H-M_alt    "P 1"
_space_group_IT_number       1

loop_
  _space_group_symop_operation_xyz
  'x, y, z'

loop_
  _atom_site_type_symbol
  _atom_site_label
  _atom_site_symmetry_multiplicity
  _atom_site_fract_x
  _atom_site_fract_y
  _atom_site_fract_z
  _atom_site_occupancy
  Y   Y1        1.0  0.25000006244328543  0.24999998141929805  0.24999993100045403  1.0000
  Y   Y2        1.0  0.749999991909826  0.749999900920558  0.7499999992336096  1.0000
  Mn  Mn1       1.0  0.9999999053558025  6.106624666305022e-08  3.2872969093830974e-08  1.0000
  S   S1        1.0  0.24920435941421856  0.24920440271924676  0.7507956498130108  1.0000
  S   S2        1.0  0.7507956528954772  0.750795639180802  0.2492043808941954  1.0000
  S   S3        1.0  0.7507956679266861  0.24920435088823936  0.2492043159468042  1.0000
  S   S4        1.0  0.24920443259293387  0.7507956102467735  0.7507956547439815  1.0000
  S   S5        1.0  0.2492043249853384  0.750795615916759  0.24920441099795143  1.0000
  S   S6        1.0  0.7507956073512577  0.2492044318929267  0.7507956551325875  1.0000
