data_image0
_chemical_formula_structural       Y2MoS6
_chemical_formula_sum              "Y2 Mo1 S6"
_cell_length_a       6.360380193970484
_cell_length_b       6.360380145439555
_cell_length_c       6.360379929841512
_cell_angle_alpha    59.999999758214074
_cell_angle_beta     60.00000115226748
_cell_angle_gamma    59.99999975915425

_space_group_name_H-M_alt    "P 1"
_space_group_IT_number       1

loop_
  _space_group_symop_operation_xyz
  'x, y, z'

loop_
  _atom_site_type_symbol
  _atom_site_label
  _atom_site_symmetry_multiplicity
  _atom_site_fract_x
  _atom_site_fract_y
  _atom_site_fract_z
  _atom_site_occupancy
  Y   Y1        1.0  0.24999995839927763  0.2500000166311239  0.25000002758416334  1.0000
  Y   Y2        1.0  0.7500000834627012  0.7500000133072687  0.749999930879316  1.0000
  Mo  Mo1       1.0  0.999999961032156  0.9999999807441573  0.9999999442112549  1.0000
  S   S1        1.0  0.2589236459345118  0.2589237027261849  0.7410763320273305  1.0000
  S   S2        1.0  0.7410763294162653  0.7410762925516876  0.25892373519463585  1.0000
  S   S3        1.0  0.7410762899185586  0.2589236879038705  0.2589236836353125  1.0000
  S   S4        1.0  0.25892364087008357  0.7410763593647812  0.7410763657222332  1.0000
  S   S5        1.0  0.25892368650631126  0.7410763182721019  0.2589236754307021  1.0000
  S   S6        1.0  0.7410764080417497  0.2589236461964208  0.7410762988580706  1.0000
