data_image0
_chemical_formula_structural       Y2MoN6
_chemical_formula_sum              "Y2 Mo1 N6"
_cell_length_a       5.338914205033393
_cell_length_b       5.33891427838181
_cell_length_c       5.338913936422935
_cell_angle_alpha    59.999998681028536
_cell_angle_beta     59.99999798519481
_cell_angle_gamma    59.999998017946865

_space_group_name_H-M_alt    "P 1"
_space_group_IT_number       1

loop_
  _space_group_symop_operation_xyz
  'x, y, z'

loop_
  _atom_site_type_symbol
  _atom_site_label
  _atom_site_symmetry_multiplicity
  _atom_site_fract_x
  _atom_site_fract_y
  _atom_site_fract_z
  _atom_site_occupancy
  Y   Y1        1.0  0.24999999758660754  0.2499999778579138  0.25000002351587963  1.0000
  Y   Y2        1.0  0.7499999894162603  0.7499999955116389  0.7500000094087881  1.0000
  Mo  Mo1       1.0  1.61666603862661e-08  0.999999983942027  0.999999981215255  1.0000
  N   N1        1.0  0.2652204686170727  0.26522036359175283  0.7347796002692087  1.0000
  N   N2        1.0  0.7347795842518444  0.7347796717156959  0.26522035189612164  1.0000
  N   N3        1.0  0.7347797033087553  0.26522030337129215  0.2652203097771761  1.0000
  N   N4        1.0  0.26522037392076936  0.7347796264123326  0.7347796792236844  1.0000
  N   N5        1.0  0.2652202836993328  0.7347796702994853  0.26522031824393777  1.0000
  N   N6        1.0  0.7347796026564666  0.26522032601003226  0.7347796786126791  1.0000
