data_image0
_chemical_formula_structural       Y2MoSe6
_chemical_formula_sum              "Y2 Mo1 Se6"
_cell_length_a       6.740503166694674
_cell_length_b       6.740503278181999
_cell_length_c       6.740503220734072
_cell_angle_alpha    60.000001575330444
_cell_angle_beta     60.00000004912199
_cell_angle_gamma    59.99999860231129

_space_group_name_H-M_alt    "P 1"
_space_group_IT_number       1

loop_
  _space_group_symop_operation_xyz
  'x, y, z'

loop_
  _atom_site_type_symbol
  _atom_site_label
  _atom_site_symmetry_multiplicity
  _atom_site_fract_x
  _atom_site_fract_y
  _atom_site_fract_z
  _atom_site_occupancy
  Y   Y1        1.0  0.2499999597123832  0.25000012246581277  0.24999999156541905  1.0000
  Y   Y2        1.0  0.7499999418710563  0.7499999222340997  0.7499998662300793  1.0000
  Mo  Mo1       1.0  3.498896316079196e-08  0.9999999618431422  2.383747840163106e-08  1.0000
  Se  Se1       1.0  0.2587892059963604  0.258789186686688  0.7412108274639189  1.0000
  Se  Se2       1.0  0.7412107489181478  0.741210816222383  0.25878929457098004  1.0000
  Se  Se3       1.0  0.7412108374152012  0.25878916631024973  0.2587892222395003  1.0000
  Se  Se4       1.0  0.2587891961287076  0.7412107857230091  0.7412108414115411  1.0000
  Se  Se5       1.0  0.25878924736417125  0.741210761052671  0.25878918489061675  1.0000
  Se  Se6       1.0  0.7412108244196222  0.25878928183024563  0.7412107504221978  1.0000
