data_image0
_chemical_formula_structural       Y2MoS6
_chemical_formula_sum              "Y2 Mo1 S6"
_cell_length_a       6.360329359828211
_cell_length_b       6.360329322249449
_cell_length_c       6.360329354421849
_cell_angle_alpha    60.000001664229366
_cell_angle_beta     60.00000087339896
_cell_angle_gamma    59.999999642578864

_space_group_name_H-M_alt    "P 1"
_space_group_IT_number       1

loop_
  _space_group_symop_operation_xyz
  'x, y, z'

loop_
  _atom_site_type_symbol
  _atom_site_label
  _atom_site_symmetry_multiplicity
  _atom_site_fract_x
  _atom_site_fract_y
  _atom_site_fract_z
  _atom_site_occupancy
  Y   Y1        1.0  0.2500000104845567  0.2500000317865956  0.24999991675392103  1.0000
  Y   Y2        1.0  0.7500000037465239  0.7499999933030046  0.7500000588417977  1.0000
  Mo  Mo1       1.0  2.5838232628893168e-08  9.627997842811467e-09  0.9999999508219726  1.0000
  S   S1        1.0  0.25892509950009124  0.25892507590704333  0.7410749262727868  1.0000
  S   S2        1.0  0.7410749097250786  0.7410749260753601  0.2589250696684678  1.0000
  S   S3        1.0  0.7410749572784949  0.25892502639639986  0.2589250329414173  1.0000
  S   S4        1.0  0.25892505357968437  0.7410749216692107  0.741075003291939  1.0000
  S   S5        1.0  0.25892501341960666  0.7410749209007796  0.2589250533512789  1.0000
  S   S6        1.0  0.7410749254237344  0.25892509070962366  0.7410749855448546  1.0000
