data_image0
_chemical_formula_structural       Y2MoO6
_chemical_formula_sum              "Y2 Mo1 O6"
_cell_length_a       5.367547234749553
_cell_length_b       5.367547150406191
_cell_length_c       5.367547410985158
_cell_angle_alpha    59.999999119249466
_cell_angle_beta     60.00000106454544
_cell_angle_gamma    60.00000006879414

_space_group_name_H-M_alt    "P 1"
_space_group_IT_number       1

loop_
  _space_group_symop_operation_xyz
  'x, y, z'

loop_
  _atom_site_type_symbol
  _atom_site_label
  _atom_site_symmetry_multiplicity
  _atom_site_fract_x
  _atom_site_fract_y
  _atom_site_fract_z
  _atom_site_occupancy
  Y   Y1        1.0  0.2500000024746988  0.24999988947083338  0.25000008265711604  1.0000
  Y   Y2        1.0  0.7499999861871589  0.7500000677203192  0.749999842822308  1.0000
  Mo  Mo1       1.0  1.899226794534333e-08  0.9999999817459284  3.35699861661055e-09  1.0000
  O   O1        1.0  0.2524224722505485  0.25242243759441935  0.7475775596954173  1.0000
  O   O2        1.0  0.7475775535904824  0.747577562950154  0.2524224838768153  1.0000
  O   O3        1.0  0.7475775079802769  0.25242239753877016  0.25242251571844115  1.0000
  O   O4        1.0  0.25242244165307903  0.747577650922741  0.7475774879707585  1.0000
  O   O5        1.0  0.2524224440430314  0.7475775276612499  0.25242249033277026  1.0000
  O   O6        1.0  0.7475775711721798  0.2524224660380465  0.7475775135357549  1.0000
