data_image0
_chemical_formula_structural       Y2MoO6
_chemical_formula_sum              "Y2 Mo1 O6"
_cell_length_a       5.367615375661467
_cell_length_b       5.367615416675064
_cell_length_c       5.367615310592052
_cell_angle_alpha    59.9999994552468
_cell_angle_beta     60.00000004959895
_cell_angle_gamma    59.99999934999468

_space_group_name_H-M_alt    "P 1"
_space_group_IT_number       1

loop_
  _space_group_symop_operation_xyz
  'x, y, z'

loop_
  _atom_site_type_symbol
  _atom_site_label
  _atom_site_symmetry_multiplicity
  _atom_site_fract_x
  _atom_site_fract_y
  _atom_site_fract_z
  _atom_site_occupancy
  Y   Y1        1.0  0.250000026271821  0.24999992374929506  0.2500000285264647  1.0000
  Y   Y2        1.0  0.7499998790710222  0.7500000929718076  0.7500000469459474  1.0000
  Mo  Mo1       1.0  0.9999999888523388  2.053556979828411e-08  0.999999972949749  1.0000
  O   O1        1.0  0.2524205102784645  0.2524203174011124  0.7475796147645656  1.0000
  O   O2        1.0  0.7475795926537415  0.7475796034873324  0.2524203371715304  1.0000
  O   O3        1.0  0.7475795823926431  0.25242036091350273  0.25242040562338464  1.0000
  O   O4        1.0  0.25242042762255845  0.7475796192999203  0.7475796301776141  1.0000
  O   O5        1.0  0.2524204002552063  0.7475796550325065  0.25242035018861647  1.0000
  O   O6        1.0  0.7475795850300591  0.2524204187318446  0.7475796269825643  1.0000
