data_image0
_chemical_formula_structural       Y2NbN6
_chemical_formula_sum              "Y2 Nb1 N6"
_cell_length_a       5.384514602776601
_cell_length_b       5.384514685031175
_cell_length_c       5.384514183546472
_cell_angle_alpha    60.00000062843207
_cell_angle_beta     60.00000151113498
_cell_angle_gamma    60.000000020197255

_space_group_name_H-M_alt    "P 1"
_space_group_IT_number       1

loop_
  _space_group_symop_operation_xyz
  'x, y, z'

loop_
  _atom_site_type_symbol
  _atom_site_label
  _atom_site_symmetry_multiplicity
  _atom_site_fract_x
  _atom_site_fract_y
  _atom_site_fract_z
  _atom_site_occupancy
  Y   Y1        1.0  0.2500000149954804  0.24999998992074163  0.2499999701389871  1.0000
  Y   Y2        1.0  0.7499999450170113  0.7500000766669542  0.7499999608074658  1.0000
  Nb  Nb1       1.0  3.3639000099130874e-08  7.278619813774614e-08  0.9999999690735324  1.0000
  N   N1        1.0  0.2744817906519158  0.27448181372124686  0.7255182047168832  1.0000
  N   N2        1.0  0.725518162235892  0.7255181391380111  0.27448187208630975  1.0000
  N   N3        1.0  0.7255182620648528  0.27448176041128153  0.27448181182499426  1.0000
  N   N4        1.0  0.2744818815742627  0.7255181606040136  0.725518139095081  1.0000
  N   N5        1.0  0.27448180790994553  0.7255181645056408  0.27448185626718197  1.0000
  N   N6        1.0  0.7255181150405331  0.2744818588652484  0.7255181631053036  1.0000
