data_image0
_chemical_formula_structural       Y2NbSe6
_chemical_formula_sum              "Y2 Nb1 Se6"
_cell_length_a       6.794868196183008
_cell_length_b       6.794868214721762
_cell_length_c       6.794868162803129
_cell_angle_alpha    60.0000000819748
_cell_angle_beta     60.0000005895026
_cell_angle_gamma    60.0000003803207

_space_group_name_H-M_alt    "P 1"
_space_group_IT_number       1

loop_
  _space_group_symop_operation_xyz
  'x, y, z'

loop_
  _atom_site_type_symbol
  _atom_site_label
  _atom_site_symmetry_multiplicity
  _atom_site_fract_x
  _atom_site_fract_y
  _atom_site_fract_z
  _atom_site_occupancy
  Y   Y1        1.0  0.2500000521631503  0.24999997750208233  0.2500000266527715  1.0000
  Y   Y2        1.0  0.7500000126083187  0.7499999919872843  0.7499999117054187  1.0000
  Nb  Nb1       1.0  2.107867447002112e-08  2.3431923509027672e-08  2.4839065844286737e-08  1.0000
  Se  Se1       1.0  0.2585741012592613  0.2585741834383537  0.7414259372110857  1.0000
  Se  Se2       1.0  0.7414258779251289  0.7414258184952142  0.25857419402051873  1.0000
  Se  Se3       1.0  0.7414258165636608  0.2585740916402243  0.25857415660800853  1.0000
  Se  Se4       1.0  0.25857422333574054  0.7414258454049405  0.741425785389435  1.0000
  Se  Se5       1.0  0.258574081612282  0.7414258921802401  0.25857414370778153  1.0000
  Se  Se6       1.0  0.7414258187648275  0.25857417283927625  0.7414258217240184  1.0000
