data_image0
_chemical_formula_structural       Y2NbO6
_chemical_formula_sum              "Y2 Nb1 O6"
_cell_length_a       5.365403991144933
_cell_length_b       5.365404066521348
_cell_length_c       5.3654038800382375
_cell_angle_alpha    60.00000190416667
_cell_angle_beta     60.00000230492889
_cell_angle_gamma    60.00000260536304

_space_group_name_H-M_alt    "P 1"
_space_group_IT_number       1

loop_
  _space_group_symop_operation_xyz
  'x, y, z'

loop_
  _atom_site_type_symbol
  _atom_site_label
  _atom_site_symmetry_multiplicity
  _atom_site_fract_x
  _atom_site_fract_y
  _atom_site_fract_z
  _atom_site_occupancy
  Y   Y1        1.0  0.25000000159173275  0.24999999831516947  0.2500000883996738  1.0000
  Y   Y2        1.0  0.7499999246020824  0.7500000611429453  0.7500000000731419  1.0000
  Nb  Nb1       1.0  0.9999999893475389  3.1957383791874366e-08  0.999999974437198  1.0000
  O   O1        1.0  0.2575709644011894  0.25757083855580654  0.7424290602690208  1.0000
  O   O2        1.0  0.7424291107254963  0.7424291227474875  0.2575708984423862  1.0000
  O   O3        1.0  0.7424290390114996  0.25757090301439317  0.2575709495600676  1.0000
  O   O4        1.0  0.25757091568209534  0.7424291290516783  0.742429065670969  1.0000
  O   O5        1.0  0.25757092051009745  0.7424290068913979  0.2575709071060385  1.0000
  O   O6        1.0  0.7424291146401024  0.2575709064758198  0.7424290955616488  1.0000
