data_image0
_chemical_formula_structural       Y2NbTe6
_chemical_formula_sum              "Y2 Nb1 Te6"
_cell_length_a       7.313795176673795
_cell_length_b       7.313795228575482
_cell_length_c       7.313795200275971
_cell_angle_alpha    59.999999585550235
_cell_angle_beta     59.999999405110486
_cell_angle_gamma    59.99999875700674

_space_group_name_H-M_alt    "P 1"
_space_group_IT_number       1

loop_
  _space_group_symop_operation_xyz
  'x, y, z'

loop_
  _atom_site_type_symbol
  _atom_site_label
  _atom_site_symmetry_multiplicity
  _atom_site_fract_x
  _atom_site_fract_y
  _atom_site_fract_z
  _atom_site_occupancy
  Y   Y1        1.0  0.24999999159080757  0.24999996992335222  0.2500000582952685  1.0000
  Y   Y2        1.0  0.7499999791722113  0.7500000102441485  0.7499999583753617  1.0000
  Nb  Nb1       1.0  0.9999999904314417  5.023704898389675e-09  0.9999999489485382  1.0000
  Te  Te1       1.0  0.2621879193900481  0.2621879353808569  0.7378120869420765  1.0000
  Te  Te2       1.0  0.7378120832033784  0.7378120866508479  0.26218792432866905  1.0000
  Te  Te3       1.0  0.7378120625584018  0.26218791397598096  0.2621879127587011  1.0000
  Te  Te4       1.0  0.26218791931910973  0.7378121181031332  0.7378120792352718  1.0000
  Te  Te5       1.0  0.262187927036878  0.737812078286372  0.26218791457640744  1.0000
  Te  Te6       1.0  0.737812131867952  0.2621878884845821  0.7378121098418036  1.0000
