data_image0
_chemical_formula_structural       Y2NbS6
_chemical_formula_sum              "Y2 Nb1 S6"
_cell_length_a       6.454806256155095
_cell_length_b       6.454806122678417
_cell_length_c       6.454806251176076
_cell_angle_alpha    60.00000017062201
_cell_angle_beta     59.99999975596474
_cell_angle_gamma    59.99999955824504

_space_group_name_H-M_alt    "P 1"
_space_group_IT_number       1

loop_
  _space_group_symop_operation_xyz
  'x, y, z'

loop_
  _atom_site_type_symbol
  _atom_site_label
  _atom_site_symmetry_multiplicity
  _atom_site_fract_x
  _atom_site_fract_y
  _atom_site_fract_z
  _atom_site_occupancy
  Y   Y1        1.0  0.2500000571484208  0.249999962817915  0.24999999950380303  1.0000
  Y   Y2        1.0  0.7500000066307784  0.7499999320942995  0.7500000033259799  1.0000
  Nb  Nb1       1.0  9.378562436647506e-09  0.9999999772310143  0.999999958668983  1.0000
  S   S1        1.0  0.2592430987366914  0.2592431437851932  0.7407568858501692  1.0000
  S   S2        1.0  0.7407568985803075  0.7407568592797011  0.2592431302175048  1.0000
  S   S3        1.0  0.7407568400579622  0.2592431670527413  0.2592431092572776  1.0000
  S   S4        1.0  0.2592430988205588  0.7407568986268624  0.740756920214613  1.0000
  S   S5        1.0  0.2592430814715832  0.7407569277639224  0.25924312303772595  1.0000
  S   S6        1.0  0.740756904026863  0.25924313222343465  0.74075686892876  1.0000
