data_image0
_chemical_formula_structural       Y2NiN6
_chemical_formula_sum              "Y2 Ni1 N6"
_cell_length_a       5.132633875508685
_cell_length_b       5.132633685356634
_cell_length_c       5.132633783805733
_cell_angle_alpha    60.00000052480289
_cell_angle_beta     60.00000189528081
_cell_angle_gamma    59.999999954781934

_space_group_name_H-M_alt    "P 1"
_space_group_IT_number       1

loop_
  _space_group_symop_operation_xyz
  'x, y, z'

loop_
  _atom_site_type_symbol
  _atom_site_label
  _atom_site_symmetry_multiplicity
  _atom_site_fract_x
  _atom_site_fract_y
  _atom_site_fract_z
  _atom_site_occupancy
  Y   Y1        1.0  0.2500000332782801  0.2499999986717954  0.24999996103237054  1.0000
  Y   Y2        1.0  0.7499999807359838  0.7499999888568114  0.7500000339001115  1.0000
  Ni  Ni1       1.0  1.1907544163259261e-08  4.772383673325972e-09  0.9999999858150839  1.0000
  N   N1        1.0  0.2557316369505066  0.2557316093809093  0.7442683672158968  1.0000
  N   N2        1.0  0.7442683173895673  0.7442683614443547  0.25573167175030337  1.0000
  N   N3        1.0  0.7442683783939046  0.25573156674983827  0.2557316853914488  1.0000
  N   N4        1.0  0.25573160305590054  0.7442684374821117  0.7442683233165432  1.0000
  N   N5        1.0  0.2557316063128099  0.7442684286970261  0.25573163407827315  1.0000
  N   N6        1.0  0.7442684000204184  0.2557315683763481  0.7442683462841209  1.0000
