data_image0
_chemical_formula_structural       Y2NiO6
_chemical_formula_sum              "Y2 Ni1 O6"
_cell_length_a       5.1474358005332155
_cell_length_b       5.147435363330937
_cell_length_c       5.1474357334095115
_cell_angle_alpha    59.99999795738756
_cell_angle_beta     59.99999833300634
_cell_angle_gamma    59.99999796470672

_space_group_name_H-M_alt    "P 1"
_space_group_IT_number       1

loop_
  _space_group_symop_operation_xyz
  'x, y, z'

loop_
  _atom_site_type_symbol
  _atom_site_label
  _atom_site_symmetry_multiplicity
  _atom_site_fract_x
  _atom_site_fract_y
  _atom_site_fract_z
  _atom_site_occupancy
  Y   Y1        1.0  0.250000250527191  0.24999987617291733  0.2499999495014673  1.0000
  Y   Y2        1.0  0.7500000917187121  0.7499999996942778  0.7499999695355025  1.0000
  Ni  Ni1       1.0  2.275138864342868e-08  0.9999999048267867  9.012903368737566e-09  1.0000
  O   O1        1.0  0.25035606563343404  0.250356403278537  0.7496437770882551  1.0000
  O   O2        1.0  0.7496438036434133  0.749643767625615  0.25035621343033854  1.0000
  O   O3        1.0  0.7496436872331401  0.2503561709594452  0.25035626806940176  1.0000
  O   O4        1.0  0.25035620758265387  0.7496438762195302  0.7496437948548846  1.0000
  O   O5        1.0  0.2503562330313632  0.7496438584639783  0.2503561353472462  1.0000
  O   O6        1.0  0.7496437118397483  0.2503561125764263  0.7496438803945045  1.0000
