data_image0
_chemical_formula_structural       Y2NiS6
_chemical_formula_sum              "Y2 Ni1 S6"
_cell_length_a       6.14706432222887
_cell_length_b       6.1470642626346
_cell_length_c       6.147064365873614
_cell_angle_alpha    59.999999300538455
_cell_angle_beta     59.99999991622251
_cell_angle_gamma    60.00000026415785

_space_group_name_H-M_alt    "P 1"
_space_group_IT_number       1

loop_
  _space_group_symop_operation_xyz
  'x, y, z'

loop_
  _atom_site_type_symbol
  _atom_site_label
  _atom_site_symmetry_multiplicity
  _atom_site_fract_x
  _atom_site_fract_y
  _atom_site_fract_z
  _atom_site_occupancy
  Y   Y1        1.0  0.24999998442792787  0.2500000667435353  0.2500000097395552  1.0000
  Y   Y2        1.0  0.7500000613295044  0.749999853551933  0.7500000037505838  1.0000
  Ni  Ni1       1.0  2.056864629628594e-08  0.9999999721063139  0.9999999760070425  1.0000
  S   S1        1.0  0.25347217154178275  0.2534722797304591  0.7465277766757412  1.0000
  S   S2        1.0  0.7465277782221164  0.7465277820258466  0.2534722531237724  1.0000
  S   S3        1.0  0.7465277290240091  0.2534723165574221  0.2534721808287753  1.0000
  S   S4        1.0  0.2534721688820339  0.7465278049710684  0.7465277701811054  1.0000
  S   S5        1.0  0.2534722226256747  0.746527720383378  0.253472274939178  1.0000
  S   S6        1.0  0.7465278150286351  0.25347226366908754  0.7465277318723298  1.0000
