data_image0
_chemical_formula_structural       Y2NiTe6
_chemical_formula_sum              "Y2 Ni1 Te6"
_cell_length_a       7.061317499883416
_cell_length_b       7.061317646737989
_cell_length_c       7.061317552029388
_cell_angle_alpha    60.0000010209003
_cell_angle_beta     60.00000041310903
_cell_angle_gamma    60.000000900907594

_space_group_name_H-M_alt    "P 1"
_space_group_IT_number       1

loop_
  _space_group_symop_operation_xyz
  'x, y, z'

loop_
  _atom_site_type_symbol
  _atom_site_label
  _atom_site_symmetry_multiplicity
  _atom_site_fract_x
  _atom_site_fract_y
  _atom_site_fract_z
  _atom_site_occupancy
  Y   Y1        1.0  0.2500000286721642  0.2500000178523888  0.24999994706294107  1.0000
  Y   Y2        1.0  0.7499999441807317  0.7499999737728175  0.7500000242233585  1.0000
  Ni  Ni1       1.0  1.7707163764042654e-08  0.9999999861244611  1.2245850687437508e-08  1.0000
  Te  Te1       1.0  0.2546567814288128  0.25465676177284247  0.7453432177423879  1.0000
  Te  Te2       1.0  0.745343240861282  0.7453432385245757  0.2546567698065283  1.0000
  Te  Te3       1.0  0.7453432202821573  0.2546567693246406  0.25465676786569164  1.0000
  Te  Te4       1.0  0.25465676218383837  0.7453432327072201  0.7453432557220485  1.0000
  Te  Te5       1.0  0.2546567946148863  0.745343223777539  0.2546567432624136  1.0000
  Te  Te6       1.0  0.7453432093898977  0.25465679212986053  0.7453432696989944  1.0000
