data_image0
_chemical_formula_structural       Y2NO6
_chemical_formula_sum              "Y2 N1 O6"
_cell_length_a       5.045701976982157
_cell_length_b       5.045701932723923
_cell_length_c       5.045701308782236
_cell_angle_alpha    60.00000360218208
_cell_angle_beta     60.00000401814907
_cell_angle_gamma    59.99999767146954

_space_group_name_H-M_alt    "P 1"
_space_group_IT_number       1

loop_
  _space_group_symop_operation_xyz
  'x, y, z'

loop_
  _atom_site_type_symbol
  _atom_site_label
  _atom_site_symmetry_multiplicity
  _atom_site_fract_x
  _atom_site_fract_y
  _atom_site_fract_z
  _atom_site_occupancy
  Y   Y1        1.0  0.2500001211189468  0.24999992120031267  0.25000012302177965  1.0000
  Y   Y2        1.0  0.7500001044091181  0.7499999019572356  0.7500002073899256  1.0000
  N   N1        1.0  0.9999967779247478  3.075393360825211e-06  0.9999947698165443  1.0000
  O   O1        1.0  0.23083140422338022  0.2308318513458282  0.7691680043234693  1.0000
  O   O2        1.0  0.7691682355794612  0.7691686854388999  0.2308310868794208  1.0000
  O   O3        1.0  0.7691678045051478  0.230832195441234  0.23083152163271012  1.0000
  O   O4        1.0  0.23083023634112643  0.7691697054879771  0.7691691416798496  1.0000
  O   O5        1.0  0.23083388199797183  0.769166044930178  0.23083371986657006  1.0000
  O   O6        1.0  0.7691714186435075  0.2308285352521465  0.7691713400146066  1.0000
