data_image0
_chemical_formula_structural       Y2NO6
_chemical_formula_sum              "Y2 N1 O6"
_cell_length_a       5.045744923846521
_cell_length_b       5.045744815578621
_cell_length_c       5.045744870720237
_cell_angle_alpha    60.00000002265705
_cell_angle_beta     59.99999725001331
_cell_angle_gamma    60.00000076465727

_space_group_name_H-M_alt    "P 1"
_space_group_IT_number       1

loop_
  _space_group_symop_operation_xyz
  'x, y, z'

loop_
  _atom_site_type_symbol
  _atom_site_label
  _atom_site_symmetry_multiplicity
  _atom_site_fract_x
  _atom_site_fract_y
  _atom_site_fract_z
  _atom_site_occupancy
  Y   Y1        1.0  0.25000005242515794  0.2499999967652782  0.24999979481011544  1.0000
  Y   Y2        1.0  0.7500001020746843  0.7500000048595366  0.749999860578518  1.0000
  N   N1        1.0  0.9999982931309832  0.9999999029087266  4.717075972013051e-06  1.0000
  O   O1        1.0  0.23082510913973597  0.2308251612113935  0.76917514533601  1.0000
  O   O2        1.0  0.7691759172444544  0.7691760419183401  0.23082428394196125  1.0000
  O   O3        1.0  0.7691768804017414  0.23082296733021127  0.23082324238317992  1.0000
  O   O4        1.0  0.2308259133055163  0.7691738812545077  0.7691743868098543  1.0000
  O   O5        1.0  0.23082355711252323  0.7691762974624861  0.23082394083851462  1.0000
  O   O6        1.0  0.7691741378547317  0.2308257552160679  0.7691746880496146  1.0000
