data_image0
_chemical_formula_structural       Y2OsS6
_chemical_formula_sum              "Y2 Os1 S6"
_cell_length_a       6.34850202317293
_cell_length_b       6.348502138255089
_cell_length_c       6.348501985943765
_cell_angle_alpha    60.00000076743534
_cell_angle_beta     59.99999923944361
_cell_angle_gamma    59.99999973728989

_space_group_name_H-M_alt    "P 1"
_space_group_IT_number       1

loop_
  _space_group_symop_operation_xyz
  'x, y, z'

loop_
  _atom_site_type_symbol
  _atom_site_label
  _atom_site_symmetry_multiplicity
  _atom_site_fract_x
  _atom_site_fract_y
  _atom_site_fract_z
  _atom_site_occupancy
  Y   Y1        1.0  0.2499999895855159  0.2500000313737064  0.24999999349996477  1.0000
  Y   Y2        1.0  0.7499999868536977  0.750000067112499  0.7499998983210183  1.0000
  Os  Os1       1.0  1.7233422925509585e-08  0.9999999864956899  0.9999999776581718  1.0000
  S   S1        1.0  0.25458777763421714  0.25458780781519336  0.7454121808244224  1.0000
  S   S2        1.0  0.7454122531153731  0.7454121768489712  0.2545878321125274  1.0000
  S   S3        1.0  0.7454122108407096  0.2545877291340334  0.254587848705652  1.0000
  S   S4        1.0  0.25458779095539014  0.7454121841502076  0.7454122301497526  1.0000
  S   S5        1.0  0.25458778648063546  0.7454121844547993  0.2545878461199453  1.0000
  S   S6        1.0  0.7454122065867974  0.254587836863921  0.7454121767818541  1.0000
