data_image0
_chemical_formula_structural       Y2OsN6
_chemical_formula_sum              "Y2 Os1 N6"
_cell_length_a       5.373855823369964
_cell_length_b       5.373855918559912
_cell_length_c       5.373856139868167
_cell_angle_alpha    60.00000433060413
_cell_angle_beta     60.00000162920396
_cell_angle_gamma    60.00000454383368

_space_group_name_H-M_alt    "P 1"
_space_group_IT_number       1

loop_
  _space_group_symop_operation_xyz
  'x, y, z'

loop_
  _atom_site_type_symbol
  _atom_site_label
  _atom_site_symmetry_multiplicity
  _atom_site_fract_x
  _atom_site_fract_y
  _atom_site_fract_z
  _atom_site_occupancy
  Y   Y1        1.0  0.2500000073535723  0.2499999628418405  0.250000051038373  1.0000
  Y   Y2        1.0  0.749999997988852  0.7499999865259595  0.7500000100817519  1.0000
  Os  Os1       1.0  0.9999999489293107  1.1395400820293744e-08  4.775056030559049e-08  1.0000
  N   N1        1.0  0.2499405365325969  0.24994064794125284  0.7500593862205667  1.0000
  N   N2        1.0  0.750059483936607  0.7500593720780268  0.24994056315857055  1.0000
  N   N3        1.0  0.7500593819390742  0.2499406067239218  0.24994057569343253  1.0000
  N   N4        1.0  0.2499406294361716  0.7500594018999565  0.7500593709043558  1.0000
  N   N5        1.0  0.24994060914637592  0.7500594151293332  0.249940565882698  1.0000
  N   N6        1.0  0.750059407155696  0.2499405980527071  0.7500594076072357  1.0000
