data_image0
_chemical_formula_structural       Y2OsO6
_chemical_formula_sum              "Y2 Os1 O6"
_cell_length_a       5.399599364353757
_cell_length_b       5.399599259122754
_cell_length_c       5.399599435048948
_cell_angle_alpha    59.999998932602985
_cell_angle_beta     60.00000040525139
_cell_angle_gamma    59.99999963087067

_space_group_name_H-M_alt    "P 1"
_space_group_IT_number       1

loop_
  _space_group_symop_operation_xyz
  'x, y, z'

loop_
  _atom_site_type_symbol
  _atom_site_label
  _atom_site_symmetry_multiplicity
  _atom_site_fract_x
  _atom_site_fract_y
  _atom_site_fract_z
  _atom_site_occupancy
  Y   Y1        1.0  0.2500000125321637  0.24999999772962261  0.24999998581922134  1.0000
  Y   Y2        1.0  0.7500000461282064  0.7500000317485127  0.7499999802117145  1.0000
  Os  Os1       1.0  0.999999998532371  0.9999999274171387  3.332126667515347e-08  1.0000
  O   O1        1.0  0.24880159033228105  0.24880156696655079  0.7511984460872825  1.0000
  O   O2        1.0  0.7511983198862808  0.7511984715844413  0.2488015785161931  1.0000
  O   O3        1.0  0.7511983801415648  0.2488015769258179  0.24880166396594192  1.0000
  O   O4        1.0  0.2488015991573796  0.7511984276019583  0.7511983653328212  1.0000
  O   O5        1.0  0.24880163038989841  0.7511984109886536  0.24880154458710646  1.0000
  O   O6        1.0  0.7511984310575714  0.24880158446626555  0.7511983889101677  1.0000
