data_image0
_chemical_formula_structural       Y2PbN6
_chemical_formula_sum              "Y2 Pb1 N6"
_cell_length_a       5.588174389095284
_cell_length_b       5.588174647566464
_cell_length_c       5.5881745724175484
_cell_angle_alpha    60.00000005834464
_cell_angle_beta     60.00000069375149
_cell_angle_gamma    60.000000889562656

_space_group_name_H-M_alt    "P 1"
_space_group_IT_number       1

loop_
  _space_group_symop_operation_xyz
  'x, y, z'

loop_
  _atom_site_type_symbol
  _atom_site_label
  _atom_site_symmetry_multiplicity
  _atom_site_fract_x
  _atom_site_fract_y
  _atom_site_fract_z
  _atom_site_occupancy
  Y   Y1        1.0  0.24999999433907527  0.2500000405020606  0.24999996978326902  1.0000
  Y   Y2        1.0  0.7500000556754398  0.7499999593224173  0.749999982744474  1.0000
  Pb  Pb1       1.0  5.9110641954314706e-08  0.9999999342498254  0.9999999961617948  1.0000
  N   N1        1.0  0.2734721778488899  0.27347219639030756  0.7265277938517093  1.0000
  N   N2        1.0  0.7265278429863354  0.7265278165842054  0.2734721649011676  1.0000
  N   N3        1.0  0.7265277632904038  0.27347220537658556  0.27347220843836256  1.0000
  N   N4        1.0  0.2734721151758184  0.7265278689647561  0.726527883869242  1.0000
  N   N5        1.0  0.27347216229651855  0.7265278148202032  0.27347212700883056  1.0000
  N   N6        1.0  0.7265278444719422  0.2734721411708246  0.7265278815851163  1.0000
