data_image0
_chemical_formula_structural       Y2PbS6
_chemical_formula_sum              "Y2 Pb1 S6"
_cell_length_a       6.592654528833358
_cell_length_b       6.592654542421408
_cell_length_c       6.592654525340947
_cell_angle_alpha    60.000000196415264
_cell_angle_beta     60.00000030571953
_cell_angle_gamma    60.000000280490035

_space_group_name_H-M_alt    "P 1"
_space_group_IT_number       1

loop_
  _space_group_symop_operation_xyz
  'x, y, z'

loop_
  _atom_site_type_symbol
  _atom_site_label
  _atom_site_symmetry_multiplicity
  _atom_site_fract_x
  _atom_site_fract_y
  _atom_site_fract_z
  _atom_site_occupancy
  Y   Y1        1.0  0.2500000009564038  0.2500000288562506  0.2500000415653583  1.0000
  Y   Y2        1.0  0.7499999578099962  0.7499999695310301  0.7500000495100558  1.0000
  Pb  Pb1       1.0  5.979980018226256e-09  0.9999999925690336  9.826531317362376e-09  1.0000
  S   S1        1.0  0.2676980727736737  0.2676980626612716  0.7323019504815078  1.0000
  S   S2        1.0  0.7323019222611324  0.7323019320105261  0.2676980590933386  1.0000
  S   S3        1.0  0.7323019220366841  0.26769805941936353  0.2676980302341882  1.0000
  S   S4        1.0  0.26769806783165206  0.7323019612608166  0.732301911279794  1.0000
  S   S5        1.0  0.2676980844663009  0.7323019073091718  0.2676980381028413  1.0000
  S   S6        1.0  0.7323019737285924  0.2676980817894011  0.7323019062744218  1.0000
