data_image0
_chemical_formula_structural       Y2PbTe6
_chemical_formula_sum              "Y2 Pb1 Te6"
_cell_length_a       7.474453706003626
_cell_length_b       7.474453671191648
_cell_length_c       7.474453523202525
_cell_angle_alpha    60.00000034557964
_cell_angle_beta     60.000000939009595
_cell_angle_gamma    59.99999914613243

_space_group_name_H-M_alt    "P 1"
_space_group_IT_number       1

loop_
  _space_group_symop_operation_xyz
  'x, y, z'

loop_
  _atom_site_type_symbol
  _atom_site_label
  _atom_site_symmetry_multiplicity
  _atom_site_fract_x
  _atom_site_fract_y
  _atom_site_fract_z
  _atom_site_occupancy
  Y   Y1        1.0  0.25000008414994107  0.24999991726067985  0.2500000134583167  1.0000
  Y   Y2        1.0  0.7500000436549267  0.750000007399655  0.7499999754889857  1.0000
  Pb  Pb1       1.0  6.145182194665702e-08  0.9999999639513615  0.9999999913120797  1.0000
  Te  Te1       1.0  0.27569088935205066  0.27569088762974425  0.7243091160584344  1.0000
  Te  Te2       1.0  0.7243090785500992  0.7243091320679101  0.2756909093352382  1.0000
  Te  Te3       1.0  0.7243090829929586  0.27569091567273823  0.2756908765957206  1.0000
  Te  Te4       1.0  0.2756908293556852  0.7243091548207247  0.7243091097021968  1.0000
  Te  Te5       1.0  0.2756908236292878  0.7243091516987352  0.27569088409914805  1.0000
  Te  Te6       1.0  0.72430909892565  0.2756908696374944  0.7243091310394719  1.0000
