data_image0
_chemical_formula_structural       Y2PbO6
_chemical_formula_sum              "Y2 Pb1 O6"
_cell_length_a       5.447028385269644
_cell_length_b       5.44702848640895
_cell_length_c       5.447028304181689
_cell_angle_alpha    60.00000092816922
_cell_angle_beta     60.00000089146774
_cell_angle_gamma    60.00000014301187

_space_group_name_H-M_alt    "P 1"
_space_group_IT_number       1

loop_
  _space_group_symop_operation_xyz
  'x, y, z'

loop_
  _atom_site_type_symbol
  _atom_site_label
  _atom_site_symmetry_multiplicity
  _atom_site_fract_x
  _atom_site_fract_y
  _atom_site_fract_z
  _atom_site_occupancy
  Y   Y1        1.0  0.2500000749808985  0.2500000064636459  0.24999988771186257  1.0000
  Y   Y2        1.0  0.7500000597653644  0.7499999361977626  0.7500000039527239  1.0000
  Pb  Pb1       1.0  5.973841919402364e-09  2.023617775288631e-08  1.2597078005395881e-08  1.0000
  O   O1        1.0  0.26466705920290495  0.2646671076118196  0.7353329713419423  1.0000
  O   O2        1.0  0.7353329398053341  0.7353329497212643  0.26466706854557426  1.0000
  O   O3        1.0  0.7353328972005412  0.26466703234752126  0.26466708990903365  1.0000
  O   O4        1.0  0.264667031789504  0.7353329170592816  0.7353329269630517  1.0000
  O   O5        1.0  0.2646670536462399  0.7353329412059668  0.2646670827406544  1.0000
  O   O6        1.0  0.735332887398018  0.26466708015169066  0.735332943533073  1.0000
