data_image0
_chemical_formula_structural       Y2PdO6
_chemical_formula_sum              "Y2 Pd1 O6"
_cell_length_a       5.2702056664171755
_cell_length_b       5.270205725475233
_cell_length_c       5.270205530283891
_cell_angle_alpha    60.00000041693158
_cell_angle_beta     60.00000098028946
_cell_angle_gamma    60.00000009680863

_space_group_name_H-M_alt    "P 1"
_space_group_IT_number       1

loop_
  _space_group_symop_operation_xyz
  'x, y, z'

loop_
  _atom_site_type_symbol
  _atom_site_label
  _atom_site_symmetry_multiplicity
  _atom_site_fract_x
  _atom_site_fract_y
  _atom_site_fract_z
  _atom_site_occupancy
  Y   Y1        1.0  0.2500000203127593  0.2499999538353315  0.2499999992761917  1.0000
  Y   Y2        1.0  0.7500000032394124  0.7500000148836151  0.7499999556815742  1.0000
  Pd  Pd1       1.0  0.9999999842871047  0.9999999814087734  1.1459683404346086e-08  1.0000
  O   O1        1.0  0.2623669125367311  0.26236676323620617  0.7376331663989171  1.0000
  O   O2        1.0  0.7376331105066191  0.7376331938632229  0.262366874316305  1.0000
  O   O3        1.0  0.7376331546879337  0.2623668141719015  0.26236691799219125  1.0000
  O   O4        1.0  0.26236686910724766  0.737633180109981  0.7376330942685924  1.0000
  O   O5        1.0  0.26236685511534175  0.7376331939861024  0.2623668745164431  1.0000
  O   O6        1.0  0.7376331143681276  0.2623668909280106  0.7376331214815399  1.0000
