data_image0
_chemical_formula_structural       Y2PdN6
_chemical_formula_sum              "Y2 Pd1 N6"
_cell_length_a       5.309683953430192
_cell_length_b       5.309683399281817
_cell_length_c       5.309683744824363
_cell_angle_alpha    59.99999992626443
_cell_angle_beta     59.999999434973034
_cell_angle_gamma    59.999998924930416

_space_group_name_H-M_alt    "P 1"
_space_group_IT_number       1

loop_
  _space_group_symop_operation_xyz
  'x, y, z'

loop_
  _atom_site_type_symbol
  _atom_site_label
  _atom_site_symmetry_multiplicity
  _atom_site_fract_x
  _atom_site_fract_y
  _atom_site_fract_z
  _atom_site_occupancy
  Y   Y1        1.0  0.2500000109897004  0.25000000270151607  0.24999999310510684  1.0000
  Y   Y2        1.0  0.7499999921547115  0.7500000196376738  0.7500000090227643  1.0000
  Pd  Pd1       1.0  3.3653312587738755e-08  0.9999999838536247  0.999999987479828  1.0000
  N   N1        1.0  0.2615409326820381  0.26154091217093955  0.738459067671868  1.0000
  N   N2        1.0  0.7384590693203793  0.738459094021874  0.2615409110832154  1.0000
  N   N3        1.0  0.738459092403333  0.26154088833977546  0.26154096590591147  1.0000
  N   N4        1.0  0.261540908984762  0.7384590740271624  0.7384590614361892  1.0000
  N   N5        1.0  0.2615409085998049  0.7384590824928663  0.26154095422849344  1.0000
  N   N6        1.0  0.7384590281387761  0.26154096291257306  0.738459043202251  1.0000
