data_image0
_chemical_formula_structural       Y2PdS6
_chemical_formula_sum              "Y2 Pd1 S6"
_cell_length_a       6.3507529064427475
_cell_length_b       6.350753043116345
_cell_length_c       6.350753030631378
_cell_angle_alpha    59.99999885321785
_cell_angle_beta     60.00000013272616
_cell_angle_gamma    59.99999903452755

_space_group_name_H-M_alt    "P 1"
_space_group_IT_number       1

loop_
  _space_group_symop_operation_xyz
  'x, y, z'

loop_
  _atom_site_type_symbol
  _atom_site_label
  _atom_site_symmetry_multiplicity
  _atom_site_fract_x
  _atom_site_fract_y
  _atom_site_fract_z
  _atom_site_occupancy
  Y   Y1        1.0  0.25000005192968555  0.2500000069960429  0.24999997360735177  1.0000
  Y   Y2        1.0  0.7500000028387909  0.7500000325591512  0.7499999552954982  1.0000
  Pd  Pd1       1.0  0.9999999847011889  7.714013575924496e-09  1.4814713518416566e-08  1.0000
  S   S1        1.0  0.2585825179340138  0.2585824886442953  0.7414175020652427  1.0000
  S   S2        1.0  0.7414174625084202  0.7414175393398783  0.25858250600231636  1.0000
  S   S3        1.0  0.7414174825996797  0.25858250388450255  0.2585825290927975  1.0000
  S   S4        1.0  0.25858250557569185  0.7414174681730721  0.741417507795442  1.0000
  S   S5        1.0  0.2585825006038172  0.7414174608003375  0.2585825343660996  1.0000
  S   S6        1.0  0.7414174828700498  0.258582503543224  0.7414174835360361  1.0000
