data_image0
_chemical_formula_structural       Y2PN6
_chemical_formula_sum              "Y2 P1 N6"
_cell_length_a       5.102304960789868
_cell_length_b       5.102306175525524
_cell_length_c       5.10230641376027
_cell_angle_alpha    60.000007774522615
_cell_angle_beta     60.00000855365179
_cell_angle_gamma    60.00001123590848

_space_group_name_H-M_alt    "P 1"
_space_group_IT_number       1

loop_
  _space_group_symop_operation_xyz
  'x, y, z'

loop_
  _atom_site_type_symbol
  _atom_site_label
  _atom_site_symmetry_multiplicity
  _atom_site_fract_x
  _atom_site_fract_y
  _atom_site_fract_z
  _atom_site_occupancy
  Y   Y1        1.0  0.24999991695214507  0.2500000278089532  0.2499999151657003  1.0000
  Y   Y2        1.0  0.7500001295269692  0.7499999658085154  0.749999987351664  1.0000
  P   P1        1.0  0.9999998815424522  0.9999999615940008  9.803073441322754e-08  1.0000
  N   N1        1.0  0.2430245272480341  0.24302464367698584  0.756975369852859  1.0000
  N   N2        1.0  0.7569754458039688  0.756975481961097  0.24302451120734514  1.0000
  N   N3        1.0  0.7569755186530789  0.24302453993291337  0.24302447267517174  1.0000
  N   N4        1.0  0.24302432380626773  0.7569753528688151  0.7569757782497089  1.0000
  N   N5        1.0  0.24302465855626917  0.7569752710701506  0.2430243937845707  1.0000
  N   N6        1.0  0.7569753610362197  0.24302494578217182  0.756975291004915  1.0000
