data_image0
_chemical_formula_structural       Y2PO6
_chemical_formula_sum              "Y2 P1 O6"
_cell_length_a       5.100316460271811
_cell_length_b       5.100316156268343
_cell_length_c       5.100316174837459
_cell_angle_alpha    60.000004775543196
_cell_angle_beta     60.00000447266689
_cell_angle_gamma    60.000003899042376

_space_group_name_H-M_alt    "P 1"
_space_group_IT_number       1

loop_
  _space_group_symop_operation_xyz
  'x, y, z'

loop_
  _atom_site_type_symbol
  _atom_site_label
  _atom_site_symmetry_multiplicity
  _atom_site_fract_x
  _atom_site_fract_y
  _atom_site_fract_z
  _atom_site_occupancy
  Y   Y1        1.0  0.25000000188783006  0.2500000288571905  0.2499999895334047  1.0000
  Y   Y2        1.0  0.7500000073114892  0.750000000124353  0.7499999521799379  1.0000
  P   P1        1.0  0.9999999774975525  0.9999999927960658  3.445981777486695e-08  1.0000
  O   O1        1.0  0.23950520120001922  0.23950520813596282  0.7604948315183921  1.0000
  O   O2        1.0  0.7604947924496838  0.7604947656154193  0.23950524361797507  1.0000
  O   O3        1.0  0.7604948117827897  0.23950522101174837  0.23950523244391583  1.0000
  O   O4        1.0  0.23950522515716263  0.7604947383317602  0.760494718454149  1.0000
  O   O5        1.0  0.23950524062728645  0.7604947049712495  0.23950527323384865  1.0000
  O   O6        1.0  0.760494762490328  0.2395052471683255  0.7604947373906062  1.0000
