data_image0
_chemical_formula_structural       Y2PO6
_chemical_formula_sum              "Y2 P1 O6"
_cell_length_a       5.1007294165991794
_cell_length_b       5.100729154188219
_cell_length_c       5.100729160650113
_cell_angle_alpha    60.000000914270416
_cell_angle_beta     59.9999999888498
_cell_angle_gamma    59.99999910189736

_space_group_name_H-M_alt    "P 1"
_space_group_IT_number       1

loop_
  _space_group_symop_operation_xyz
  'x, y, z'

loop_
  _atom_site_type_symbol
  _atom_site_label
  _atom_site_symmetry_multiplicity
  _atom_site_fract_x
  _atom_site_fract_y
  _atom_site_fract_z
  _atom_site_occupancy
  Y   Y1        1.0  0.250000015961541  0.249999956539398  0.2500000770317639  1.0000
  Y   Y2        1.0  0.7499999631158349  0.7500000016796393  0.7500000133590676  1.0000
  P   P1        1.0  3.116740114558354e-08  0.9999999879944138  0.9999999982611081  1.0000
  O   O1        1.0  0.2394629657601819  0.23946292630865132  0.7605370447023693  1.0000
  O   O2        1.0  0.7605370443237127  0.7605370679271435  0.23946296120371963  1.0000
  O   O3        1.0  0.7605370770332426  0.2394628996623496  0.23946298273733277  1.0000
  O   O4        1.0  0.23946286991547716  0.7605371209857348  0.7605370258461678  1.0000
  O   O5        1.0  0.23946293483502437  0.7605370544204356  0.23946295935643025  1.0000
  O   O6        1.0  0.760537016503963  0.2394629734310004  0.7605370355882445  1.0000
