data_image0
_chemical_formula_structural       Y2PS6
_chemical_formula_sum              "Y2 P1 S6"
_cell_length_a       6.26203260371132
_cell_length_b       6.262032612164631
_cell_length_c       6.262032698780001
_cell_angle_alpha    59.999999306278525
_cell_angle_beta     60.00000016495923
_cell_angle_gamma    59.99999975441812

_space_group_name_H-M_alt    "P 1"
_space_group_IT_number       1

loop_
  _space_group_symop_operation_xyz
  'x, y, z'

loop_
  _atom_site_type_symbol
  _atom_site_label
  _atom_site_symmetry_multiplicity
  _atom_site_fract_x
  _atom_site_fract_y
  _atom_site_fract_z
  _atom_site_occupancy
  Y   Y1        1.0  0.24999999230170183  0.25000005142598447  0.24999995030322883  1.0000
  Y   Y2        1.0  0.7499999773366306  0.7499999704302694  0.7500000591933311  1.0000
  P   P1        1.0  0.9999999953437403  0.9999999863092155  0.9999999341180213  1.0000
  S   S1        1.0  0.24545571996659382  0.2454557057020405  0.7545442737876953  1.0000
  S   S2        1.0  0.7545443018621989  0.7545442868168176  0.24545563964527875  1.0000
  S   S3        1.0  0.7545441996048896  0.245455773820313  0.2454557727231451  1.0000
  S   S4        1.0  0.2454557483148332  0.7545442910641218  0.7545442931895021  1.0000
  S   S5        1.0  0.2454557757316387  0.7545442096099907  0.24545579682484148  1.0000
  S   S6        1.0  0.7545442994988363  0.24545572227824772  0.754544278318231  1.0000
