data_image0
_chemical_formula_structural       Y2PS6
_chemical_formula_sum              "Y2 P1 S6"
_cell_length_a       6.2623716974477475
_cell_length_b       6.262371289121062
_cell_length_c       6.2623713702363775
_cell_angle_alpha    60.00000083599821
_cell_angle_beta     60.00000044657845
_cell_angle_gamma    59.99999893267817

_space_group_name_H-M_alt    "P 1"
_space_group_IT_number       1

loop_
  _space_group_symop_operation_xyz
  'x, y, z'

loop_
  _atom_site_type_symbol
  _atom_site_label
  _atom_site_symmetry_multiplicity
  _atom_site_fract_x
  _atom_site_fract_y
  _atom_site_fract_z
  _atom_site_occupancy
  Y   Y1        1.0  0.2500000417064096  0.2500000561071984  0.24999994704939377  1.0000
  Y   Y2        1.0  0.7499999541633917  0.7500000118639467  0.7500000735190091  1.0000
  P   P1        1.0  3.2445112006971286e-08  0.9999999745756317  1.2801451383294513e-09  1.0000
  S   S1        1.0  0.24545079955170593  0.24545074270750933  0.7545492240098944  1.0000
  S   S2        1.0  0.7545491964875206  0.75454921965472  0.24545075666157984  1.0000
  S   S3        1.0  0.7545492880668658  0.24545073700373796  0.24545072056875003  1.0000
  S   S4        1.0  0.24545076110906877  0.7545492429599778  0.7545492758324807  1.0000
  S   S5        1.0  0.24545074326225233  0.7545492664436458  0.24545072846707797  1.0000
  S   S6        1.0  0.7545492039415312  0.24545074285587928  0.7545492691218628  1.0000
