data_image0
_chemical_formula_structural       Y2PSe6
_chemical_formula_sum              "Y2 P1 Se6"
_cell_length_a       6.564438637498737
_cell_length_b       6.564438701667623
_cell_length_c       6.564438896534779
_cell_angle_alpha    59.99999865743756
_cell_angle_beta     59.9999986702832
_cell_angle_gamma    59.99999912505341

_space_group_name_H-M_alt    "P 1"
_space_group_IT_number       1

loop_
  _space_group_symop_operation_xyz
  'x, y, z'

loop_
  _atom_site_type_symbol
  _atom_site_label
  _atom_site_symmetry_multiplicity
  _atom_site_fract_x
  _atom_site_fract_y
  _atom_site_fract_z
  _atom_site_occupancy
  Y   Y1        1.0  0.2500000143844228  0.24999998608980484  0.24999997340239097  1.0000
  Y   Y2        1.0  0.7499999388190278  0.7500000179726708  0.749999909008757  1.0000
  P   P1        1.0  6.840998076446173e-09  0.9999999794770059  0.9999999763738091  1.0000
  Se  Se1       1.0  0.24671443241724117  0.24671451578890646  0.7532855516041492  1.0000
  Se  Se2       1.0  0.7532855468331554  0.7532855367824636  0.24671451746291675  1.0000
  Se  Se3       1.0  0.7532855512592042  0.24671439470331036  0.24671452035697225  1.0000
  Se  Se4       1.0  0.24671448006991717  0.7532856018962573  0.7532855338996789  1.0000
  Se  Se5       1.0  0.24671452415378578  0.7532855386198472  0.24671443172044372  1.0000
  Se  Se6       1.0  0.753285497048002  0.2467144355909997  0.753285594616811  1.0000
