data_image0
_chemical_formula_structural       Y2PtO6
_chemical_formula_sum              "Y2 Pt1 O6"
_cell_length_a       5.312068746595723
_cell_length_b       5.3120685121469995
_cell_length_c       5.312068585304887
_cell_angle_alpha    59.999999859500136
_cell_angle_beta     60.00000025257124
_cell_angle_gamma    60.00000120086816

_space_group_name_H-M_alt    "P 1"
_space_group_IT_number       1

loop_
  _space_group_symop_operation_xyz
  'x, y, z'

loop_
  _atom_site_type_symbol
  _atom_site_label
  _atom_site_symmetry_multiplicity
  _atom_site_fract_x
  _atom_site_fract_y
  _atom_site_fract_z
  _atom_site_occupancy
  Y   Y1        1.0  0.249999974512693  0.24999996623676485  0.25000004524330177  1.0000
  Y   Y2        1.0  0.7499999480179154  0.7500000209065314  0.7499999908566479  1.0000
  Pt  Pt1       1.0  0.9999999637058778  0.9999999654161583  0.9999999996713715  1.0000
  O   O1        1.0  0.2600069977756681  0.2600068246950842  0.7399931019677933  1.0000
  O   O2        1.0  0.7399930973800295  0.7399931532258586  0.26000686937334005  1.0000
  O   O3        1.0  0.7399930741546771  0.26000685456582734  0.26000702465378234  1.0000
  O   O4        1.0  0.2600069096133346  0.7399931510221859  0.7399930694954093  1.0000
  O   O5        1.0  0.26000691271601556  0.739993191750354  0.2600068691158266  1.0000
  O   O6        1.0  0.7399931088605561  0.26000688300534053  0.7399930360048257  1.0000
