data_image0
_chemical_formula_structural       Y2PtN6
_chemical_formula_sum              "Y2 Pt1 N6"
_cell_length_a       5.3429218119142865
_cell_length_b       5.342921553728239
_cell_length_c       5.342921876885186
_cell_angle_alpha    59.99999875994641
_cell_angle_beta     59.99999907307703
_cell_angle_gamma    59.99999920255745

_space_group_name_H-M_alt    "P 1"
_space_group_IT_number       1

loop_
  _space_group_symop_operation_xyz
  'x, y, z'

loop_
  _atom_site_type_symbol
  _atom_site_label
  _atom_site_symmetry_multiplicity
  _atom_site_fract_x
  _atom_site_fract_y
  _atom_site_fract_z
  _atom_site_occupancy
  Y   Y1        1.0  0.2500000044131766  0.2499999919732083  0.2499999969293717  1.0000
  Y   Y2        1.0  0.749999981934257  0.7500000309342396  0.7499999695752694  1.0000
  Pt  Pt1       1.0  9.169102422867857e-09  0.9999999724926923  0.9999999960676569  1.0000
  N   N1        1.0  0.2607577834871701  0.26075777301220343  0.7392422415148142  1.0000
  N   N2        1.0  0.739242204257349  0.7392422521875208  0.26075779426727874  1.0000
  N   N3        1.0  0.7392422590164981  0.2607577403015792  0.26075774413900465  1.0000
  N   N4        1.0  0.2607577767983291  0.7392422573908374  0.7392422252125355  1.0000
  N   N5        1.0  0.2607577692099813  0.7392422293931625  0.26075779406383964  1.0000
  N   N6        1.0  0.7392422032976872  0.2607577637147025  0.7392422466662575  1.0000
