data_image0
_chemical_formula_structural       Y2PtS6
_chemical_formula_sum              "Y2 Pt1 S6"
_cell_length_a       6.364372748316158
_cell_length_b       6.364372843933203
_cell_length_c       6.364372594785378
_cell_angle_alpha    60.00000105108228
_cell_angle_beta     60.0000012144194
_cell_angle_gamma    60.00000059764017

_space_group_name_H-M_alt    "P 1"
_space_group_IT_number       1

loop_
  _space_group_symop_operation_xyz
  'x, y, z'

loop_
  _atom_site_type_symbol
  _atom_site_label
  _atom_site_symmetry_multiplicity
  _atom_site_fract_x
  _atom_site_fract_y
  _atom_site_fract_z
  _atom_site_occupancy
  Y   Y1        1.0  0.2500000844699544  0.25000001007823347  0.24999993460657813  1.0000
  Y   Y2        1.0  0.750000025484837  0.7499999628815293  0.7499999467450923  1.0000
  Pt  Pt1       1.0  1.1948720578119091e-08  7.697505231423362e-09  1.688808252214529e-08  1.0000
  S   S1        1.0  0.25664684643684943  0.256646900010989  0.7433531185025726  1.0000
  S   S2        1.0  0.7433531108761119  0.7433531172094301  0.2566469066007509  1.0000
  S   S3        1.0  0.743353103961738  0.256646870111143  0.25664687801726893  1.0000
  S   S4        1.0  0.25664690589419586  0.7433530874536091  0.7433531490711552  1.0000
  S   S5        1.0  0.2566468446496101  0.7433531126576778  0.25664689654119616  1.0000
  S   S6        1.0  0.7433530635477864  0.2566469430502685  0.7433531495886136  1.0000
