data_image0
_chemical_formula_structural       Y2PtSe6
_chemical_formula_sum              "Y2 Pt1 Se6"
_cell_length_a       6.685786955949434
_cell_length_b       6.685786803479899
_cell_length_c       6.685787035649427
_cell_angle_alpha    60.0000003776427
_cell_angle_beta     60.00000103490635
_cell_angle_gamma    60.00000090095858

_space_group_name_H-M_alt    "P 1"
_space_group_IT_number       1

loop_
  _space_group_symop_operation_xyz
  'x, y, z'

loop_
  _atom_site_type_symbol
  _atom_site_label
  _atom_site_symmetry_multiplicity
  _atom_site_fract_x
  _atom_site_fract_y
  _atom_site_fract_z
  _atom_site_occupancy
  Y   Y1        1.0  0.2500000324572203  0.24999996250308515  0.2500000518050526  1.0000
  Y   Y2        1.0  0.7499999348837884  0.7499999552882004  0.750000042728627  1.0000
  Pt  Pt1       1.0  1.2909834761992884e-08  0.9999999871769556  0.9999999820080822  1.0000
  Se  Se1       1.0  0.2572529287077243  0.2572528894141242  0.7427470823789506  1.0000
  Se  Se2       1.0  0.742747065898619  0.74274713828897  0.25725291365195435  1.0000
  Se  Se3       1.0  0.7427471093903154  0.2572529153850775  0.2572528774341515  1.0000
  Se  Se4       1.0  0.2572528929265958  0.7427471306366517  0.7427471085735727  1.0000
  Se  Se5       1.0  0.2572529060565946  0.7427471065394277  0.25725285546168886  1.0000
  Se  Se6       1.0  0.7427471174045488  0.25725291749993945  0.7427470831023733  1.0000
