data_image0
_chemical_formula_structural       Y2ReO6
_chemical_formula_sum              "Y2 Re1 O6"
_cell_length_a       5.3747842109088495
_cell_length_b       5.374784071600723
_cell_length_c       5.374784139592347
_cell_angle_alpha    60.00000121322521
_cell_angle_beta     60.000001407975255
_cell_angle_gamma    60.0000006354729

_space_group_name_H-M_alt    "P 1"
_space_group_IT_number       1

loop_
  _space_group_symop_operation_xyz
  'x, y, z'

loop_
  _atom_site_type_symbol
  _atom_site_label
  _atom_site_symmetry_multiplicity
  _atom_site_fract_x
  _atom_site_fract_y
  _atom_site_fract_z
  _atom_site_occupancy
  Y   Y1        1.0  0.24999995458467597  0.24999987703979118  0.2500000909999935  1.0000
  Y   Y2        1.0  0.7499999120491345  0.7500002532008229  0.749999917345772  1.0000
  Re  Re1       1.0  4.314236563784282e-08  0.999999915688595  3.546883761053833e-08  1.0000
  O   O1        1.0  0.2490534019365062  0.24905324739022575  0.7509466747260191  1.0000
  O   O2        1.0  0.7509466102687683  0.7509466846046504  0.2490532706509699  1.0000
  O   O3        1.0  0.750946595819011  0.24905324949286212  0.24905339958067652  1.0000
  O   O4        1.0  0.2490534845679845  0.7509467873216005  0.7509465392988737  1.0000
  O   O5        1.0  0.24905324031824852  0.7509466932857122  0.24905346399882805  1.0000
  O   O6        1.0  0.7509467386413299  0.2490532546599731  0.7509466667768889  1.0000
