data_image0
_chemical_formula_structural       Y2ReTe6
_chemical_formula_sum              "Y2 Re1 Te6"
_cell_length_a       7.2331138060306905
_cell_length_b       7.233113762170374
_cell_length_c       7.233113858926348
_cell_angle_alpha    59.9999996973792
_cell_angle_beta     59.999999478376
_cell_angle_gamma    60.00000027708347

_space_group_name_H-M_alt    "P 1"
_space_group_IT_number       1

loop_
  _space_group_symop_operation_xyz
  'x, y, z'

loop_
  _atom_site_type_symbol
  _atom_site_label
  _atom_site_symmetry_multiplicity
  _atom_site_fract_x
  _atom_site_fract_y
  _atom_site_fract_z
  _atom_site_occupancy
  Y   Y1        1.0  0.24999996812565822  0.24999992817562747  0.2500000682497455  1.0000
  Y   Y2        1.0  0.75000004401977  0.7499999403056142  0.7499999809992993  1.0000
  Re  Re1       1.0  0.9999999982901382  3.386494158253961e-08  1.1573068725620876e-08  1.0000
  Te  Te1       1.0  0.2567802736950912  0.25678028855308893  0.7432197311957596  1.0000
  Te  Te2       1.0  0.7432196950539386  0.7432197627988368  0.256780274584221  1.0000
  Te  Te3       1.0  0.7432197208614313  0.2567803167038487  0.25678025418985756  1.0000
  Te  Te4       1.0  0.2567802811382797  0.7432197211021006  0.7432197127046314  1.0000
  Te  Te5       1.0  0.2567802712151819  0.7432196927246435  0.2567803091354848  1.0000
  Te  Te6       1.0  0.7432197490228928  0.25678030952311737  0.7432196636538559  1.0000
