data_image0
_chemical_formula_structural       Y2ReS6
_chemical_formula_sum              "Y2 Re1 S6"
_cell_length_a       6.420410671891471
_cell_length_b       6.420410596928255
_cell_length_c       6.420410689502408
_cell_angle_alpha    60.00000108908119
_cell_angle_beta     60.00000052717868
_cell_angle_gamma    60.000000552233814

_space_group_name_H-M_alt    "P 1"
_space_group_IT_number       1

loop_
  _space_group_symop_operation_xyz
  'x, y, z'

loop_
  _atom_site_type_symbol
  _atom_site_label
  _atom_site_symmetry_multiplicity
  _atom_site_fract_x
  _atom_site_fract_y
  _atom_site_fract_z
  _atom_site_occupancy
  Y   Y1        1.0  0.24999996893418966  0.2499999929416147  0.2500000317936044  1.0000
  Y   Y2        1.0  0.750000059455509  0.7499999902703243  0.7499999043043106  1.0000
  Re  Re1       1.0  0.9999999891187182  0.9999999732938765  3.281149719932404e-08  1.0000
  S   S1        1.0  0.25646376172234836  0.25646375819492007  0.7435362365642159  1.0000
  S   S2        1.0  0.7435362511168552  0.7435362231094393  0.25646375498871943  1.0000
  S   S3        1.0  0.7435362511293965  0.25646377986221974  0.2564637648854749  1.0000
  S   S4        1.0  0.2564637825279396  0.7435362415013259  0.7435362258219241  1.0000
  S   S5        1.0  0.25646375120600845  0.743536245437042  0.2564637699745567  1.0000
  S   S6        1.0  0.7435362086043908  0.2564637816492441  0.7435362423346781  1.0000
