data_image0
_chemical_formula_structural       Y2ReSe6
_chemical_formula_sum              "Y2 Re1 Se6"
_cell_length_a       6.759262525782362
_cell_length_b       6.759262226678136
_cell_length_c       6.759262637235294
_cell_angle_alpha    59.99999905799989
_cell_angle_beta     59.99999991564184
_cell_angle_gamma    60.000000292752205

_space_group_name_H-M_alt    "P 1"
_space_group_IT_number       1

loop_
  _space_group_symop_operation_xyz
  'x, y, z'

loop_
  _atom_site_type_symbol
  _atom_site_label
  _atom_site_symmetry_multiplicity
  _atom_site_fract_x
  _atom_site_fract_y
  _atom_site_fract_z
  _atom_site_occupancy
  Y   Y1        1.0  0.24999998913061372  0.24999994964953354  0.24999998192127068  1.0000
  Y   Y2        1.0  0.7499999328255963  0.7500000192719526  0.7500000376660018  1.0000
  Re  Re1       1.0  2.351979637813038e-08  0.9999999909402474  0.9999999617015005  1.0000
  Se  Se1       1.0  0.25566508886029254  0.25566512156900967  0.7443349099830475  1.0000
  Se  Se2       1.0  0.7443349105388879  0.7443349071468457  0.25566506761567936  1.0000
  Se  Se3       1.0  0.7443348792349135  0.2556651400855933  0.25566511471784453  1.0000
  Se  Se4       1.0  0.25566505673127266  0.7443349303051241  0.7443349255407448  1.0000
  Se  Se5       1.0  0.2556651528323321  0.7443349016889157  0.2556650816027167  1.0000
  Se  Se6       1.0  0.7443349667031712  0.2556650382413658  0.7443349261836262  1.0000
