data_image0
_chemical_formula_structural       Y2ReN6
_chemical_formula_sum              "Y2 Re1 N6"
_cell_length_a       5.412336083825421
_cell_length_b       5.412336380303777
_cell_length_c       5.41233598830027
_cell_angle_alpha    59.999999794263935
_cell_angle_beta     59.99999967354802
_cell_angle_gamma    60.00000049151508

_space_group_name_H-M_alt    "P 1"
_space_group_IT_number       1

loop_
  _space_group_symop_operation_xyz
  'x, y, z'

loop_
  _atom_site_type_symbol
  _atom_site_label
  _atom_site_symmetry_multiplicity
  _atom_site_fract_x
  _atom_site_fract_y
  _atom_site_fract_z
  _atom_site_occupancy
  Y   Y1        1.0  0.24999997913389885  0.25000001980168696  0.25000000606349876  1.0000
  Y   Y2        1.0  0.7500000278057382  0.7499999802043847  0.7499999941125038  1.0000
  Re  Re1       1.0  0.9999999884489892  9.051506123058512e-09  0.9999999938592281  1.0000
  N   N1        1.0  0.2565732046619229  0.256573205812585  0.7434267827241052  1.0000
  N   N2        1.0  0.743426720947382  0.7434268077707468  0.25657320883291984  1.0000
  N   N3        1.0  0.7434267847209314  0.2565731586887109  0.2565732166314383  1.0000
  N   N4        1.0  0.25657319034621356  0.7434268345287305  0.7434268398277467  1.0000
  N   N5        1.0  0.25657321293173024  0.7434268313725537  0.25657319321838723  1.0000
  N   N6        1.0  0.7434268099552546  0.2565731527933812  0.7434268586376794  1.0000
