data_image0
_chemical_formula_structural       Y2RhO6
_chemical_formula_sum              "Y2 Rh1 O6"
_cell_length_a       5.308266116126572
_cell_length_b       5.308266129937803
_cell_length_c       5.308266120135017
_cell_angle_alpha    60.00000172741867
_cell_angle_beta     60.00000105586422
_cell_angle_gamma    60.00000048214201

_space_group_name_H-M_alt    "P 1"
_space_group_IT_number       1

loop_
  _space_group_symop_operation_xyz
  'x, y, z'

loop_
  _atom_site_type_symbol
  _atom_site_label
  _atom_site_symmetry_multiplicity
  _atom_site_fract_x
  _atom_site_fract_y
  _atom_site_fract_z
  _atom_site_occupancy
  Y   Y1        1.0  0.2500000021211047  0.2500001478019031  0.24999993775163803  1.0000
  Y   Y2        1.0  0.7499999614591255  0.7499999842647783  0.7500000596259045  1.0000
  Rh  Rh1       1.0  4.376965790627502e-08  0.9999999861565543  0.9999999643144967  1.0000
  O   O1        1.0  0.25571527281614514  0.25571530383246266  0.7442847094239436  1.0000
  O   O2        1.0  0.7442847507297086  0.7442846874925251  0.2557152831291295  1.0000
  O   O3        1.0  0.7442847070048969  0.25571528304588104  0.2557152401528851  1.0000
  O   O4        1.0  0.25571522300359145  0.7442847082791071  0.7442847784464725  1.0000
  O   O5        1.0  0.25571529559157646  0.7442846964310147  0.2557152187225544  1.0000
  O   O6        1.0  0.7442847289005899  0.2557152072188198  0.7442847682147259  1.0000
