data_image0
_chemical_formula_structural       Y2RhSe6
_chemical_formula_sum              "Y2 Rh1 Se6"
_cell_length_a       6.678042013476959
_cell_length_b       6.678042136380177
_cell_length_c       6.678041953919341
_cell_angle_alpha    60.00000128378629
_cell_angle_beta     60.0000005849335
_cell_angle_gamma    59.999999095107064

_space_group_name_H-M_alt    "P 1"
_space_group_IT_number       1

loop_
  _space_group_symop_operation_xyz
  'x, y, z'

loop_
  _atom_site_type_symbol
  _atom_site_label
  _atom_site_symmetry_multiplicity
  _atom_site_fract_x
  _atom_site_fract_y
  _atom_site_fract_z
  _atom_site_occupancy
  Y   Y1        1.0  0.25000001999460153  0.24999998235701099  0.25000000503745373  1.0000
  Y   Y2        1.0  0.7500000036726099  0.7500000589442976  0.750000048726568  1.0000
  Rh  Rh1       1.0  2.2670084707215913e-08  2.0173866622917856e-08  0.9999999800754693  1.0000
  Se  Se1       1.0  0.255812105565488  0.2558120987933511  0.7441878850517535  1.0000
  Se  Se2       1.0  0.7441878679069114  0.7441878544765379  0.2558121090451207  1.0000
  Se  Se3       1.0  0.7441879153046761  0.2558120890544903  0.255812086247339  1.0000
  Se  Se4       1.0  0.2558120737985226  0.7441879210690241  0.7441878970638867  1.0000
  Se  Se5       1.0  0.2558121045429082  0.7441878919906068  0.25581208899508734  1.0000
  Se  Se6       1.0  0.7441878852945035  0.25581207961916136  0.7441879042212354  1.0000
