data_image0
_chemical_formula_structural       Y2RhO6
_chemical_formula_sum              "Y2 Rh1 O6"
_cell_length_a       5.308608162993291
_cell_length_b       5.308608098447929
_cell_length_c       5.308608094160373
_cell_angle_alpha    60.00000029281858
_cell_angle_beta     60.00000088766792
_cell_angle_gamma    59.9999999219477

_space_group_name_H-M_alt    "P 1"
_space_group_IT_number       1

loop_
  _space_group_symop_operation_xyz
  'x, y, z'

loop_
  _atom_site_type_symbol
  _atom_site_label
  _atom_site_symmetry_multiplicity
  _atom_site_fract_x
  _atom_site_fract_y
  _atom_site_fract_z
  _atom_site_occupancy
  Y   Y1        1.0  0.24999995665588948  0.24999997927593778  0.25000000381388265  1.0000
  Y   Y2        1.0  0.7500000578634061  0.7500000462611497  0.7499999367426968  1.0000
  Rh  Rh1       1.0  4.218349845991825e-09  6.921276775690591e-09  0.9999999718253912  1.0000
  O   O1        1.0  0.25570357551826994  0.2557035503477631  0.7442964358003005  1.0000
  O   O2        1.0  0.7442964212266505  0.7442964567325865  0.2557035888024889  1.0000
  O   O3        1.0  0.7442964314096858  0.25570352140037744  0.2557036101606328  1.0000
  O   O4        1.0  0.2557035429466746  0.7442964810657875  0.7442964241760627  1.0000
  O   O5        1.0  0.25570354359998543  0.7442964527537655  0.25570358767743867  1.0000
  O   O6        1.0  0.7442964595610707  0.255703522027292  0.7442964216109345  1.0000
