data_image0
_chemical_formula_structural       Y2RhS6
_chemical_formula_sum              "Y2 Rh1 S6"
_cell_length_a       6.348068332674148
_cell_length_b       6.348068551511817
_cell_length_c       6.348068424133256
_cell_angle_alpha    59.99999987729969
_cell_angle_beta     59.99999920706667
_cell_angle_gamma    59.999999969981396

_space_group_name_H-M_alt    "P 1"
_space_group_IT_number       1

loop_
  _space_group_symop_operation_xyz
  'x, y, z'

loop_
  _atom_site_type_symbol
  _atom_site_label
  _atom_site_symmetry_multiplicity
  _atom_site_fract_x
  _atom_site_fract_y
  _atom_site_fract_z
  _atom_site_occupancy
  Y   Y1        1.0  0.24999998583508165  0.24999996604070485  0.2500000468574525  1.0000
  Y   Y2        1.0  0.7499999651278659  0.7500000389623951  0.7500000301094121  1.0000
  Rh  Rh1       1.0  1.3284553479657832e-08  0.9999999710602165  0.9999999794725333  1.0000
  S   S1        1.0  0.25460718683621103  0.2546071969338026  0.7453928084924352  1.0000
  S   S2        1.0  0.7453928241530569  0.7453928080692976  0.2546071691488466  1.0000
  S   S3        1.0  0.7453927622496316  0.2546072293640061  0.25460720579007956  1.0000
  S   S4        1.0  0.25460717636502583  0.7453928508825318  0.7453927845943293  1.0000
  S   S5        1.0  0.2546072618842958  0.7453927736401171  0.254607202569604  1.0000
  S   S6        1.0  0.7453928216813306  0.2546071773420533  0.7453927862726337  1.0000
