data_image0
_chemical_formula_structural       Y2RhSe6
_chemical_formula_sum              "Y2 Rh1 Se6"
_cell_length_a       6.678599755528268
_cell_length_b       6.678599589765367
_cell_length_c       6.678599753964434
_cell_angle_alpha    59.999999176119694
_cell_angle_beta     59.999998303978714
_cell_angle_gamma    60.00000024892147

_space_group_name_H-M_alt    "P 1"
_space_group_IT_number       1

loop_
  _space_group_symop_operation_xyz
  'x, y, z'

loop_
  _atom_site_type_symbol
  _atom_site_label
  _atom_site_symmetry_multiplicity
  _atom_site_fract_x
  _atom_site_fract_y
  _atom_site_fract_z
  _atom_site_occupancy
  Y   Y1        1.0  0.24999996573273564  0.24999997297286197  0.2500000622983607  1.0000
  Y   Y2        1.0  0.7500001418889326  0.7499999317554334  0.7500000192009761  1.0000
  Rh  Rh1       1.0  2.2877949662130438e-08  9.16917465754141e-09  0.9999999809817979  1.0000
  Se  Se1       1.0  0.2558003484758957  0.25580029870587234  0.7441996829825456  1.0000
  Se  Se2       1.0  0.7441996345200719  0.7441996738743104  0.2558002966368724  1.0000
  Se  Se3       1.0  0.7441996384451831  0.2558003578410689  0.25580028662008025  1.0000
  Se  Se4       1.0  0.2558002280454685  0.7441997100985248  0.7441996736258948  1.0000
  Se  Se5       1.0  0.25580033174857325  0.7441996886744263  0.25580033320755957  1.0000
  Se  Se6       1.0  0.7441996831356552  0.25580036459449157  0.7441996694813122  1.0000
