data_image0
_chemical_formula_structural       Y2RhN6
_chemical_formula_sum              "Y2 Rh1 N6"
_cell_length_a       5.306140839453486
_cell_length_b       5.306140870674139
_cell_length_c       5.306140766900617
_cell_angle_alpha    60.000001018252505
_cell_angle_beta     60.000000702861385
_cell_angle_gamma    59.99999987459865

_space_group_name_H-M_alt    "P 1"
_space_group_IT_number       1

loop_
  _space_group_symop_operation_xyz
  'x, y, z'

loop_
  _atom_site_type_symbol
  _atom_site_label
  _atom_site_symmetry_multiplicity
  _atom_site_fract_x
  _atom_site_fract_y
  _atom_site_fract_z
  _atom_site_occupancy
  Y   Y1        1.0  0.25000001141952466  0.24999998801388879  0.2500000045771765  1.0000
  Y   Y2        1.0  0.7500000151558712  0.7500000148212965  0.7499999903546305  1.0000
  Rh  Rh1       1.0  1.0334007465803313e-09  0.9999999838428449  0.9999999849465706  1.0000
  N   N1        1.0  0.2583624665165261  0.258362418251961  0.7416375575294744  1.0000
  N   N2        1.0  0.7416375372638805  0.7416376007403793  0.25836241056750786  1.0000
  N   N3        1.0  0.7416375531978928  0.2583624405104048  0.2583624077770552  1.0000
  N   N4        1.0  0.2583624130824375  0.7416375669411109  0.7416376093402927  1.0000
  N   N5        1.0  0.2583624532295019  0.7416375538236352  0.2583624109687169  1.0000
  N   N6        1.0  0.7416375507055599  0.25836241900540524  0.7416376102863295  1.0000
