data_image0
_chemical_formula_structural       Y2RhS6
_chemical_formula_sum              "Y2 Rh1 S6"
_cell_length_a       6.347200453353564
_cell_length_b       6.347200595734773
_cell_length_c       6.347200621410988
_cell_angle_alpha    60.000000690677965
_cell_angle_beta     60.0000006895871
_cell_angle_gamma    60.00000114604266

_space_group_name_H-M_alt    "P 1"
_space_group_IT_number       1

loop_
  _space_group_symop_operation_xyz
  'x, y, z'

loop_
  _atom_site_type_symbol
  _atom_site_label
  _atom_site_symmetry_multiplicity
  _atom_site_fract_x
  _atom_site_fract_y
  _atom_site_fract_z
  _atom_site_occupancy
  Y   Y1        1.0  0.25000000684099155  0.24999997937298635  0.2500000065708735  1.0000
  Y   Y2        1.0  0.7499999976076251  0.7499999632035345  0.7500000438359706  1.0000
  Rh  Rh1       1.0  2.039937915491145e-09  0.9999999884225038  4.5731719355528026e-08  1.0000
  S   S1        1.0  0.25465046869898667  0.254650468414807  0.7453495200653281  1.0000
  S   S2        1.0  0.7453495175005478  0.7453495725704322  0.2546504288172879  1.0000
  S   S3        1.0  0.7453495304362752  0.25465047511255134  0.25465046941710406  1.0000
  S   S4        1.0  0.2546504785871882  0.7453495137739545  0.7453495193108771  1.0000
  S   S5        1.0  0.25465050018445434  0.7453495294565023  0.25465047195370466  1.0000
  S   S6        1.0  0.7453495014328086  0.2546504980216579  0.7453494996060522  1.0000
