data_image0
_chemical_formula_structural       Y2RuSe6
_chemical_formula_sum              "Y2 Ru1 Se6"
_cell_length_a       6.688803471685461
_cell_length_b       6.688803631129293
_cell_length_c       6.688803536914336
_cell_angle_alpha    59.999998988079334
_cell_angle_beta     59.99999945740383
_cell_angle_gamma    59.999997994468316

_space_group_name_H-M_alt    "P 1"
_space_group_IT_number       1

loop_
  _space_group_symop_operation_xyz
  'x, y, z'

loop_
  _atom_site_type_symbol
  _atom_site_label
  _atom_site_symmetry_multiplicity
  _atom_site_fract_x
  _atom_site_fract_y
  _atom_site_fract_z
  _atom_site_occupancy
  Y   Y1        1.0  0.24999987384727398  0.24999992030328094  0.24999998632476117  1.0000
  Y   Y2        1.0  0.7499999042001705  0.7500000264102391  0.7500000317431873  1.0000
  Ru  Ru1       1.0  3.918173240076652e-08  2.7465558781844406e-08  0.9999999547160685  1.0000
  Se  Se1       1.0  0.2559645532475795  0.25596459676732214  0.7440354475850293  1.0000
  Se  Se2       1.0  0.7440354558123949  0.744035366425526  0.2559646186660938  1.0000
  Se  Se3       1.0  0.7440354841661387  0.25596457602652534  0.25596457025364955  1.0000
  Se  Se4       1.0  0.2559646217411777  0.7440354384353649  0.7440354264243878  1.0000
  Se  Se5       1.0  0.2559645970576427  0.7440354846582594  0.25596453093172417  1.0000
  Se  Se6       1.0  0.7440354788739452  0.2559645627623031  0.7440354373441984  1.0000
