data_image0
_chemical_formula_structural       Y2RuN6
_chemical_formula_sum              "Y2 Ru1 N6"
_cell_length_a       5.25346106444758
_cell_length_b       5.253460876617634
_cell_length_c       5.253460474487644
_cell_angle_alpha    59.99999958874331
_cell_angle_beta     59.999999159169185
_cell_angle_gamma    59.99999729235012

_space_group_name_H-M_alt    "P 1"
_space_group_IT_number       1

loop_
  _space_group_symop_operation_xyz
  'x, y, z'

loop_
  _atom_site_type_symbol
  _atom_site_label
  _atom_site_symmetry_multiplicity
  _atom_site_fract_x
  _atom_site_fract_y
  _atom_site_fract_z
  _atom_site_occupancy
  Y   Y1        1.0  0.2500000466522921  0.24999999736953907  0.24999993008211785  1.0000
  Y   Y2        1.0  0.7499999929359511  0.7500000177530336  0.7500000336713066  1.0000
  Ru  Ru1       1.0  1.7583846505646986e-08  2.9272954408426986e-16  0.9999999512344242  1.0000
  N   N1        1.0  0.2557136343715936  0.2557136024359451  0.744286371960238  1.0000
  N   N2        1.0  0.7442864008435636  0.7442863730543471  0.2557136594800444  1.0000
  N   N3        1.0  0.7442864594681162  0.2557135406240265  0.255713590029557  1.0000
  N   N4        1.0  0.25571351264937625  0.7442864395288881  0.7442864782422773  1.0000
  N   N5        1.0  0.2557135066048044  0.7442864194446172  0.255713610162043  1.0000
  N   N6        1.0  0.7442864887800428  0.25571357003353984  0.7442864018398399  1.0000
