data_image0
_chemical_formula_structural       Y2RuS6
_chemical_formula_sum              "Y2 Ru1 S6"
_cell_length_a       6.323399865736956
_cell_length_b       6.323399861898397
_cell_length_c       6.3233998850124635
_cell_angle_alpha    60.00000129914538
_cell_angle_beta     60.000001187188886
_cell_angle_gamma    60.00000143985252

_space_group_name_H-M_alt    "P 1"
_space_group_IT_number       1

loop_
  _space_group_symop_operation_xyz
  'x, y, z'

loop_
  _atom_site_type_symbol
  _atom_site_label
  _atom_site_symmetry_multiplicity
  _atom_site_fract_x
  _atom_site_fract_y
  _atom_site_fract_z
  _atom_site_occupancy
  Y   Y1        1.0  0.25000003945157545  0.24999999924828684  0.24999999802173942  1.0000
  Y   Y2        1.0  0.750000001153588  0.750000015176469  0.7500000328799881  1.0000
  Ru  Ru1       1.0  2.3093365800069815e-08  1.9368458641596785e-09  6.462027313827804e-09  1.0000
  S   S1        1.0  0.2561681918748472  0.25616815085352296  0.7438318109459724  1.0000
  S   S2        1.0  0.7438318255261798  0.7438318674449226  0.2561681299910305  1.0000
  S   S3        1.0  0.7438317863340449  0.25616818437194616  0.256168152060397  1.0000
  S   S4        1.0  0.2561681578214293  0.7438318126211986  0.74383185829202  1.0000
  S   S5        1.0  0.256168165767921  0.7438318245758291  0.2561681348210034  1.0000
  S   S6        1.0  0.7438318184694477  0.256168145301479  0.7438318627226738  1.0000
