data_image0
_chemical_formula_structural       Y2RuS6
_chemical_formula_sum              "Y2 Ru1 S6"
_cell_length_a       6.323202572165932
_cell_length_b       6.323202549254354
_cell_length_c       6.323202472768531
_cell_angle_alpha    60.000001483513415
_cell_angle_beta     60.00000043480575
_cell_angle_gamma    60.000000482960154

_space_group_name_H-M_alt    "P 1"
_space_group_IT_number       1

loop_
  _space_group_symop_operation_xyz
  'x, y, z'

loop_
  _atom_site_type_symbol
  _atom_site_label
  _atom_site_symmetry_multiplicity
  _atom_site_fract_x
  _atom_site_fract_y
  _atom_site_fract_z
  _atom_site_occupancy
  Y   Y1        1.0  0.2500000538270823  0.24999990005138964  0.25000001761115015  1.0000
  Y   Y2        1.0  0.7500000289994884  0.7499999442043179  0.750000085611976  1.0000
  Ru  Ru1       1.0  2.385049510106787e-08  0.9999999941892824  1.7865222096908255e-08  1.0000
  S   S1        1.0  0.25617462970477256  0.2561746597922382  0.743825370979485  1.0000
  S   S2        1.0  0.7438253006823627  0.7438253897754978  0.2561746346408763  1.0000
  S   S3        1.0  0.7438253458995725  0.2561747172002422  0.256174554164578  1.0000
  S   S4        1.0  0.25617459710269924  0.7438254369604135  0.7438253327556257  1.0000
  S   S5        1.0  0.256174642992089  0.7438253882024447  0.2561745949830893  1.0000
  S   S6        1.0  0.7438254027199541  0.25617455096165287  0.7438254081766361  1.0000
