data_image0
_chemical_formula_structural       Y2RuO6
_chemical_formula_sum              "Y2 Ru1 O6"
_cell_length_a       5.342567776197227
_cell_length_b       5.34256788743282
_cell_length_c       5.342567594536561
_cell_angle_alpha    60.0000001375122
_cell_angle_beta     60.00000064397399
_cell_angle_gamma    59.99999962308035

_space_group_name_H-M_alt    "P 1"
_space_group_IT_number       1

loop_
  _space_group_symop_operation_xyz
  'x, y, z'

loop_
  _atom_site_type_symbol
  _atom_site_label
  _atom_site_symmetry_multiplicity
  _atom_site_fract_x
  _atom_site_fract_y
  _atom_site_fract_z
  _atom_site_occupancy
  Y   Y1        1.0  0.24999998367836362  0.2500001050177049  0.2499999446011584  1.0000
  Y   Y2        1.0  0.7499999453416243  0.7500000468391151  0.7499999950900811  1.0000
  Ru  Ru1       1.0  0.999999977012103  0.9999999587363082  2.2766999071416975e-08  1.0000
  O   O1        1.0  0.2518129489864555  0.2518128149909682  0.7481871242880771  1.0000
  O   O2        1.0  0.7481870858110284  0.7481871167928252  0.2518129062425956  1.0000
  O   O3        1.0  0.7481871158547677  0.2518128898560978  0.25181291805954187  1.0000
  O   O4        1.0  0.25181290062579154  0.7481870579746865  0.7481871585283182  1.0000
  O   O5        1.0  0.25181292153870355  0.7481870802584015  0.25181285563650946  1.0000
  O   O6        1.0  0.7481871244137164  0.25181290883607627  0.7481870938673725  1.0000
