data_image0
_chemical_formula_structural       Y2RuO6
_chemical_formula_sum              "Y2 Ru1 O6"
_cell_length_a       5.342450061873199
_cell_length_b       5.3424499615735686
_cell_length_c       5.342450131673354
_cell_angle_alpha    60.00000004689081
_cell_angle_beta     59.99999870733489
_cell_angle_gamma    60.00000022095845

_space_group_name_H-M_alt    "P 1"
_space_group_IT_number       1

loop_
  _space_group_symop_operation_xyz
  'x, y, z'

loop_
  _atom_site_type_symbol
  _atom_site_label
  _atom_site_symmetry_multiplicity
  _atom_site_fract_x
  _atom_site_fract_y
  _atom_site_fract_z
  _atom_site_occupancy
  Y   Y1        1.0  0.2499999266431331  0.25000001114330583  0.2500000098772643  1.0000
  Y   Y2        1.0  0.7500000197102392  0.7500000403073542  0.7499999774310663  1.0000
  Ru  Ru1       1.0  6.868435879278467e-08  0.9999999495654855  0.9999999684134728  1.0000
  O   O1        1.0  0.2518161997240903  0.2518161796481377  0.7481838085849529  1.0000
  O   O2        1.0  0.7481838323423735  0.7481838351228762  0.2518161691810568  1.0000
  O   O3        1.0  0.7481838745204455  0.25181614313731926  0.25181620212257866  1.0000
  O   O4        1.0  0.25181613748314163  0.7481838280766145  0.7481838636074196  1.0000
  O   O5        1.0  0.2518162218268697  0.7481838019324994  0.25181612593914665  1.0000
  O   O6        1.0  0.7481837490882145  0.25181620825355777  0.7481838659770281  1.0000
