data_image0
_chemical_formula_structural       Y2SbO6
_chemical_formula_sum              "Y2 Sb1 O6"
_cell_length_a       5.374085808090578
_cell_length_b       5.374085863361861
_cell_length_c       5.374085600965166
_cell_angle_alpha    60.000000943649326
_cell_angle_beta     60.00000004180378
_cell_angle_gamma    60.00000092137933

_space_group_name_H-M_alt    "P 1"
_space_group_IT_number       1

loop_
  _space_group_symop_operation_xyz
  'x, y, z'

loop_
  _atom_site_type_symbol
  _atom_site_label
  _atom_site_symmetry_multiplicity
  _atom_site_fract_x
  _atom_site_fract_y
  _atom_site_fract_z
  _atom_site_occupancy
  Y   Y1        1.0  0.25000006809547426  0.24999999531252473  0.24999992367040652  1.0000
  Y   Y2        1.0  0.7499999730147288  0.749999944915885  0.7500000392734125  1.0000
  Sb  Sb1       1.0  0.999999984330158  0.9999999954420347  0.999999974759052  1.0000
  O   O1        1.0  0.2563995529462469  0.25639950937717065  0.7436004631071974  1.0000
  O   O2        1.0  0.7436005198275656  0.7436005356844418  0.2563994985763548  1.0000
  O   O3        1.0  0.7436004777527828  0.2563994751376323  0.2563995969138392  1.0000
  O   O4        1.0  0.25639951595688065  0.7436004719277249  0.7436004737685149  1.0000
  O   O5        1.0  0.25639952962688156  0.7436004619713673  0.25639956288081167  1.0000
  O   O6        1.0  0.7436004066539529  0.25639956713736606  0.7436004861903606  1.0000
