data_image0
_chemical_formula_structural       Y2SbSe6
_chemical_formula_sum              "Y2 Sb1 Se6"
_cell_length_a       6.899105910272376
_cell_length_b       6.899106009248697
_cell_length_c       6.89910587431158
_cell_angle_alpha    60.00000277898871
_cell_angle_beta     59.999999515300665
_cell_angle_gamma    60.00000112427358

_space_group_name_H-M_alt    "P 1"
_space_group_IT_number       1

loop_
  _space_group_symop_operation_xyz
  'x, y, z'

loop_
  _atom_site_type_symbol
  _atom_site_label
  _atom_site_symmetry_multiplicity
  _atom_site_fract_x
  _atom_site_fract_y
  _atom_site_fract_z
  _atom_site_occupancy
  Y   Y1        1.0  0.2499999644738823  0.2500000294376504  0.24999997580434824  1.0000
  Y   Y2        1.0  0.7500000538122795  0.7499998983641443  0.7500000639470358  1.0000
  Sb  Sb1       1.0  2.6593500161952173e-08  0.9999999804725527  1.3860531399162899e-08  1.0000
  Se  Se1       1.0  0.262991748433128  0.26299174594158836  0.7370082623664037  1.0000
  Se  Se2       1.0  0.737008262717306  0.7370082635204417  0.2629917314259488  1.0000
  Se  Se3       1.0  0.737008289608487  0.2629917497852673  0.2629917447262637  1.0000
  Se  Se4       1.0  0.26299169662214256  0.7370082792042109  0.7370082503128043  1.0000
  Se  Se5       1.0  0.2629917391022424  0.7370082967495458  0.2629916956114695  1.0000
  Se  Se6       1.0  0.7370082169844424  0.26299176241871397  0.7370082617241376  1.0000
