data_image0
_chemical_formula_structural       Y2SbS6
_chemical_formula_sum              "Y2 Sb1 S6"
_cell_length_a       6.589336967789982
_cell_length_b       6.589336794946919
_cell_length_c       6.589337016151289
_cell_angle_alpha    59.99999925951787
_cell_angle_beta     60.000000475396966
_cell_angle_gamma    59.999999741609585

_space_group_name_H-M_alt    "P 1"
_space_group_IT_number       1

loop_
  _space_group_symop_operation_xyz
  'x, y, z'

loop_
  _atom_site_type_symbol
  _atom_site_label
  _atom_site_symmetry_multiplicity
  _atom_site_fract_x
  _atom_site_fract_y
  _atom_site_fract_z
  _atom_site_occupancy
  Y   Y1        1.0  0.24999991817711545  0.24999997849831332  0.2500000236582498  1.0000
  Y   Y2        1.0  0.7499999888700082  0.7500000525915935  0.7500000970983401  1.0000
  Sb  Sb1       1.0  4.2181595910528827e-08  0.9999999628264599  0.9999999808023352  1.0000
  S   S1        1.0  0.26096247676641265  0.26096243774231276  0.7390375272646246  1.0000
  S   S2        1.0  0.7390375424511033  0.7390375617500852  0.26096241662122166  1.0000
  S   S3        1.0  0.7390375786718536  0.26096251240485513  0.26096246843676985  1.0000
  S   S4        1.0  0.260962406594456  0.7390375521412382  0.7390375297075865  1.0000
  S   S5        1.0  0.26096251109783003  0.7390375384226339  0.26096239841832497  1.0000
  S   S6        1.0  0.7390375395926567  0.26096240345077676  0.7390375676461497  1.0000
