data_image0
_chemical_formula_structural       Y2SbN6
_chemical_formula_sum              "Y2 Sb1 N6"
_cell_length_a       5.521694770617427
_cell_length_b       5.5216946408992325
_cell_length_c       5.521694627674863
_cell_angle_alpha    59.99999802261438
_cell_angle_beta     59.999998513281696
_cell_angle_gamma    60.00000003119548

_space_group_name_H-M_alt    "P 1"
_space_group_IT_number       1

loop_
  _space_group_symop_operation_xyz
  'x, y, z'

loop_
  _atom_site_type_symbol
  _atom_site_label
  _atom_site_symmetry_multiplicity
  _atom_site_fract_x
  _atom_site_fract_y
  _atom_site_fract_z
  _atom_site_occupancy
  Y   Y1        1.0  0.2500000310104153  0.25000001756048335  0.2499999993056234  1.0000
  Y   Y2        1.0  0.7499999828315537  0.7500000194105525  0.7499999591788361  1.0000
  Sb  Sb1       1.0  0.9999999971476754  3.992507607776532e-08  3.19608232231481e-09  1.0000
  N   N1        1.0  0.26695781699979737  0.2669577987084773  0.7330421909346091  1.0000
  N   N2        1.0  0.7330421756981623  0.7330422138639003  0.2669577903211847  1.0000
  N   N3        1.0  0.7330421983989385  0.2669578441002254  0.26695784059758515  1.0000
  N   N4        1.0  0.26695783012500696  0.7330421174567778  0.7330421174652535  1.0000
  N   N5        1.0  0.26695784329716854  0.7330421485951926  0.2669578650989743  1.0000
  N   N6        1.0  0.7330421629628548  0.26695781074374997  0.7330421414256206  1.0000
