data_image0
_chemical_formula_structural       Y2SbS6
_chemical_formula_sum              "Y2 Sb1 S6"
_cell_length_a       6.5896467281426565
_cell_length_b       6.589646807733839
_cell_length_c       6.589646814567116
_cell_angle_alpha    59.999999573133614
_cell_angle_beta     59.99999992571435
_cell_angle_gamma    59.99999969761727

_space_group_name_H-M_alt    "P 1"
_space_group_IT_number       1

loop_
  _space_group_symop_operation_xyz
  'x, y, z'

loop_
  _atom_site_type_symbol
  _atom_site_label
  _atom_site_symmetry_multiplicity
  _atom_site_fract_x
  _atom_site_fract_y
  _atom_site_fract_z
  _atom_site_occupancy
  Y   Y1        1.0  0.24999996771834  0.2500001029485886  0.2499999756391343  1.0000
  Y   Y2        1.0  0.7499999978216854  0.7499998776529876  0.7500000572421606  1.0000
  Sb  Sb1       1.0  3.59264741709983e-09  2.6020253804941943e-08  0.9999999912636773  1.0000
  S   S1        1.0  0.2609142587755596  0.2609143995689617  0.7390856928325686  1.0000
  S   S2        1.0  0.7390856941612798  0.7390856293559431  0.26091435709189115  1.0000
  S   S3        1.0  0.739085704403451  0.2609143306920202  0.2609142786554032  1.0000
  S   S4        1.0  0.26091440463041726  0.7390856294650706  0.7390856714557653  1.0000
  S   S5        1.0  0.2609142947449155  0.739085680566045  0.26091428761926155  1.0000
  S   S6        1.0  0.739085669644107  0.2609143297729647  0.7390856884779216  1.0000
