data_image0
_chemical_formula_structural       Y2SbO6
_chemical_formula_sum              "Y2 Sb1 O6"
_cell_length_a       5.373857978350717
_cell_length_b       5.373858065711569
_cell_length_c       5.373857821683484
_cell_angle_alpha    59.999999186886036
_cell_angle_beta     60.00000011879104
_cell_angle_gamma    59.99999925757231

_space_group_name_H-M_alt    "P 1"
_space_group_IT_number       1

loop_
  _space_group_symop_operation_xyz
  'x, y, z'

loop_
  _atom_site_type_symbol
  _atom_site_label
  _atom_site_symmetry_multiplicity
  _atom_site_fract_x
  _atom_site_fract_y
  _atom_site_fract_z
  _atom_site_occupancy
  Y   Y1        1.0  0.24999997185292136  0.2500001590880132  0.24999993584426222  1.0000
  Y   Y2        1.0  0.7499999681788608  0.7499999713084283  0.750000028617971  1.0000
  Sb  Sb1       1.0  2.187839443787716e-08  0.9999999794882861  0.9999999900123572  1.0000
  O   O1        1.0  0.256407078456072  0.256407029232459  0.7435929564650796  1.0000
  O   O2        1.0  0.7435929096114466  0.7435928732560496  0.25640708862895245  1.0000
  O   O3        1.0  0.7435928917870702  0.2564070587472045  0.25640709303150394  1.0000
  O   O4        1.0  0.25640709469397194  0.7435929645325081  0.7435929073470467  1.0000
  O   O5        1.0  0.25640712557514506  0.7435929552510023  0.2564070243352403  1.0000
  O   O6        1.0  0.7435929114775608  0.25640704523791724  0.743592934239967  1.0000
