data_image0
_chemical_formula_structural       Y2SbTe6
_chemical_formula_sum              "Y2 Sb1 Te6"
_cell_length_a       7.421534757734925
_cell_length_b       7.421534696697617
_cell_length_c       7.4215347949977595
_cell_angle_alpha    59.99999963233698
_cell_angle_beta     59.99999993958814
_cell_angle_gamma    59.9999993479728

_space_group_name_H-M_alt    "P 1"
_space_group_IT_number       1

loop_
  _space_group_symop_operation_xyz
  'x, y, z'

loop_
  _atom_site_type_symbol
  _atom_site_label
  _atom_site_symmetry_multiplicity
  _atom_site_fract_x
  _atom_site_fract_y
  _atom_site_fract_z
  _atom_site_occupancy
  Y   Y1        1.0  0.24999997429268922  0.24999999983613713  0.24999999204655457  1.0000
  Y   Y2        1.0  0.7499999970883301  0.7500000242622847  0.7500000048085464  1.0000
  Sb  Sb1       1.0  0.9999999877417328  0.9999999900984505  0.9999999693095726  1.0000
  Te  Te1       1.0  0.26745449252402226  0.26745451239157325  0.7325455093517413  1.0000
  Te  Te2       1.0  0.7325455030445915  0.732545467149876  0.267454499035479  1.0000
  Te  Te3       1.0  0.7325454869904909  0.2674545155511731  0.2674545256874467  1.0000
  Te  Te4       1.0  0.26745452749941656  0.7325455052467321  0.7325454862966536  1.0000
  Te  Te5       1.0  0.26745453952933795  0.7325454770064354  0.26745451452440444  1.0000
  Te  Te6       1.0  0.7325454932859768  0.2674545074857886  0.7325454983652517  1.0000
