data_image0
_chemical_formula_structural       Y2SeO6
_chemical_formula_sum              "Y2 Se1 O6"
_cell_length_a       5.24914127342881
_cell_length_b       5.249141300843481
_cell_length_c       5.249141277724111
_cell_angle_alpha    60.00000002719333
_cell_angle_beta     59.99999997684665
_cell_angle_gamma    59.999999894285914

_space_group_name_H-M_alt    "P 1"
_space_group_IT_number       1

loop_
  _space_group_symop_operation_xyz
  'x, y, z'

loop_
  _atom_site_type_symbol
  _atom_site_label
  _atom_site_symmetry_multiplicity
  _atom_site_fract_x
  _atom_site_fract_y
  _atom_site_fract_z
  _atom_site_occupancy
  Y   Y1        1.0  0.25000001174712827  0.25000000073677303  0.2499999899481894  1.0000
  Y   Y2        1.0  0.7499999906012933  0.749999997543861  0.7500000116435044  1.0000
  Se  Se1       1.0  0.9999999986884985  3.033197697914063e-08  8.350644313098961e-09  1.0000
  O   O1        1.0  0.24319840123907763  0.24319840888019228  0.7568015894481085  1.0000
  O   O2        1.0  0.7568016056423621  0.7568015824007549  0.24319840766169915  1.0000
  O   O3        1.0  0.7568015945708582  0.24319840805382675  0.24319840249699307  1.0000
  O   O4        1.0  0.2431984116662783  0.7568015785606623  0.7568015934580483  1.0000
  O   O5        1.0  0.2431984093471435  0.7568015722585398  0.2431984201516127  1.0000
  O   O6        1.0  0.7568015769584489  0.24319842135563624  0.7568015784592103  1.0000
