data_image0
_chemical_formula_structural       Y2SeS6
_chemical_formula_sum              "Y2 Se1 S6"
_cell_length_a       6.351993119567969
_cell_length_b       6.3519932208029415
_cell_length_c       6.35199363303573
_cell_angle_alpha    59.99999950047324
_cell_angle_beta     59.9999971848303
_cell_angle_gamma    60.00000338822715

_space_group_name_H-M_alt    "P 1"
_space_group_IT_number       1

loop_
  _space_group_symop_operation_xyz
  'x, y, z'

loop_
  _atom_site_type_symbol
  _atom_site_label
  _atom_site_symmetry_multiplicity
  _atom_site_fract_x
  _atom_site_fract_y
  _atom_site_fract_z
  _atom_site_occupancy
  Y   Y1        1.0  0.24999976951071232  0.25000025661785125  0.2499998061354421  1.0000
  Y   Y2        1.0  0.7500001584414205  0.749999828927718  0.7500004525805681  1.0000
  Se  Se1       1.0  0.9999996567718077  1.407532467231614e-07  2.7126283426340604e-07  1.0000
  S   S1        1.0  0.25703576390258537  0.257035920340609  0.7429643728579362  1.0000
  S   S2        1.0  0.7429644026675384  0.7429640765111307  0.25703550548006887  1.0000
  S   S3        1.0  0.7429641669947633  0.2570361123061966  0.257035712886054  1.0000
  S   S4        1.0  0.25703601118195696  0.742963784282944  0.7429639657620741  1.0000
  S   S5        1.0  0.2570361455546908  0.7429639504090684  0.25703583631143756  1.0000
  S   S6        1.0  0.7429639440984653  0.25703591725816843  0.7429640348756795  1.0000
