data_image0
_chemical_formula_structural       Y2SeN6
_chemical_formula_sum              "Y2 Se1 N6"
_cell_length_a       5.4079751305639165
_cell_length_b       5.407974982287566
_cell_length_c       5.407974906234198
_cell_angle_alpha    60.00000415247271
_cell_angle_beta     60.000001153740556
_cell_angle_gamma    60.00000094299764

_space_group_name_H-M_alt    "P 1"
_space_group_IT_number       1

loop_
  _space_group_symop_operation_xyz
  'x, y, z'

loop_
  _atom_site_type_symbol
  _atom_site_label
  _atom_site_symmetry_multiplicity
  _atom_site_fract_x
  _atom_site_fract_y
  _atom_site_fract_z
  _atom_site_occupancy
  Y   Y1        1.0  0.24999997579733105  0.25000001348874545  0.2500000242783134  1.0000
  Y   Y2        1.0  0.7500000247703403  0.7499999725251918  0.7499999860005676  1.0000
  Se  Se1       1.0  0.999999990552633  4.7558727948595915e-08  0.9999999698495948  1.0000
  N   N1        1.0  0.245022083349228  0.24502220543264738  0.7549779089568281  1.0000
  N   N2        1.0  0.7549778569152944  0.7549778077577106  0.2450222103414684  1.0000
  N   N3        1.0  0.7549778785480985  0.24502221443463745  0.24502207917344968  1.0000
  N   N4        1.0  0.24502221971981397  0.7549777987557131  0.7549778279864428  1.0000
  N   N5        1.0  0.24502216340719693  0.7549777724893374  0.24502217646737218  1.0000
  N   N6        1.0  0.7549777834590585  0.2450221184071421  0.754977873087644  1.0000
