data_image0
_chemical_formula_structural       Y2SiTe6
_chemical_formula_sum              "Y2 Si1 Te6"
_cell_length_a       7.210169495146733
_cell_length_b       7.210169490538945
_cell_length_c       7.210169477319328
_cell_angle_alpha    60.000000247865025
_cell_angle_beta     60.0000003598255
_cell_angle_gamma    60.00000051386243

_space_group_name_H-M_alt    "P 1"
_space_group_IT_number       1

loop_
  _space_group_symop_operation_xyz
  'x, y, z'

loop_
  _atom_site_type_symbol
  _atom_site_label
  _atom_site_symmetry_multiplicity
  _atom_site_fract_x
  _atom_site_fract_y
  _atom_site_fract_z
  _atom_site_occupancy
  Y   Y1        1.0  0.2500000338351039  0.24999988268506926  0.2500000747042272  1.0000
  Y   Y2        1.0  0.7500000581789179  0.7499999606041092  0.7500000506673893  1.0000
  Si  Si1       1.0  0.9999999929306866  6.7945412931791415e-09  0.9999999807203668  1.0000
  Te  Te1       1.0  0.25299269473845215  0.25299276998063575  0.7470072647410092  1.0000
  Te  Te2       1.0  0.7470072593170495  0.7470073094188536  0.2529926908918063  1.0000
  Te  Te3       1.0  0.7470072685142836  0.25299273085572993  0.25299271442201887  1.0000
  Te  Te4       1.0  0.2529927011037077  0.7470073162696882  0.7470072481796575  1.0000
  Te  Te5       1.0  0.2529927171405801  0.7470073072470838  0.25299270850876454  1.0000
  Te  Te6       1.0  0.7470072807546646  0.25299271270016915  0.7470072674126672  1.0000
