data_image0
_chemical_formula_structural       Y2SiO6
_chemical_formula_sum              "Y2 Si1 O6"
_cell_length_a       5.130217573243102
_cell_length_b       5.130217892439188
_cell_length_c       5.13021782983547
_cell_angle_alpha    59.999998959638205
_cell_angle_beta     60.000000085553815
_cell_angle_gamma    60.00000009874856

_space_group_name_H-M_alt    "P 1"
_space_group_IT_number       1

loop_
  _space_group_symop_operation_xyz
  'x, y, z'

loop_
  _atom_site_type_symbol
  _atom_site_label
  _atom_site_symmetry_multiplicity
  _atom_site_fract_x
  _atom_site_fract_y
  _atom_site_fract_z
  _atom_site_occupancy
  Y   Y1        1.0  0.25000006410381714  0.2499999930184832  0.2499999651918831  1.0000
  Y   Y2        1.0  0.7499999811240442  0.7499999981539738  0.7500000286555523  1.0000
  Si  Si1       1.0  0.9999999904741627  0.9999999880634223  1.6578912406652975e-08  1.0000
  O   O1        1.0  0.24348596804485997  0.24348602168765213  0.7565140076597949  1.0000
  O   O2        1.0  0.7565140106815051  0.7565140339423245  0.24348596186957253  1.0000
  O   O3        1.0  0.7565139745926026  0.2434859821333792  0.24348607504080813  1.0000
  O   O4        1.0  0.2434859954505477  0.7565139780039758  0.756513995307353  1.0000
  O   O5        1.0  0.24348597152697476  0.7565140160359591  0.2434860492261585  1.0000
  O   O6        1.0  0.7565140176575328  0.24348604198133283  0.7565139314235949  1.0000
