data_image0
_chemical_formula_structural       Y2SiN6
_chemical_formula_sum              "Y2 Si1 N6"
_cell_length_a       5.154970127705822
_cell_length_b       5.154970786976509
_cell_length_c       5.154970695993414
_cell_angle_alpha    59.99999976579222
_cell_angle_beta     59.999998033218084
_cell_angle_gamma    60.00000137476722

_space_group_name_H-M_alt    "P 1"
_space_group_IT_number       1

loop_
  _space_group_symop_operation_xyz
  'x, y, z'

loop_
  _atom_site_type_symbol
  _atom_site_label
  _atom_site_symmetry_multiplicity
  _atom_site_fract_x
  _atom_site_fract_y
  _atom_site_fract_z
  _atom_site_occupancy
  Y   Y1        1.0  0.24999996296778837  0.24999999585443086  0.2500000536439593  1.0000
  Y   Y2        1.0  0.7500000290939773  0.7499999970667024  0.7499999793917306  1.0000
  Si  Si1       1.0  0.9999999630733809  5.702045176528417e-08  1.9051211402364374e-08  1.0000
  N   N1        1.0  0.24658755425385664  0.24658749218595688  0.7534124714040442  1.0000
  N   N2        1.0  0.753412549150599  0.7534124959834717  0.246587512215905  1.0000
  N   N3        1.0  0.7534125110982222  0.2465875514666712  0.24658746812707097  1.0000
  N   N4        1.0  0.24658756949884741  0.7534124580854287  0.7534124075722218  1.0000
  N   N5        1.0  0.24658746892942823  0.7534124921372914  0.24658753646623893  1.0000
  N   N6        1.0  0.7534124656616186  0.24658753879747794  0.7534124325827323  1.0000
