data_image0
_chemical_formula_structural       Y2SnN6
_chemical_formula_sum              "Y2 Sn1 N6"
_cell_length_a       5.43307179604555
_cell_length_b       5.433071411163085
_cell_length_c       5.433071308886145
_cell_angle_alpha    59.99999999574656
_cell_angle_beta     60.00000024167891
_cell_angle_gamma    60.00000164740011

_space_group_name_H-M_alt    "P 1"
_space_group_IT_number       1

loop_
  _space_group_symop_operation_xyz
  'x, y, z'

loop_
  _atom_site_type_symbol
  _atom_site_label
  _atom_site_symmetry_multiplicity
  _atom_site_fract_x
  _atom_site_fract_y
  _atom_site_fract_z
  _atom_site_occupancy
  Y   Y1        1.0  0.2499999542012704  0.2500000051400906  0.2499999966142549  1.0000
  Y   Y2        1.0  0.7500000500185594  0.749999995132115  0.7499999559751135  1.0000
  Sn  Sn1       1.0  7.524813470662907e-08  0.9999998061353345  2.4520680035595543e-07  1.0000
  N   N1        1.0  0.2727136067761666  0.27271354141779797  0.7272864339253058  1.0000
  N   N2        1.0  0.7272865538368574  0.7272864678713741  0.2727134930169453  1.0000
  N   N3        1.0  0.7272864248769337  0.2727135617866793  0.2727136327076547  1.0000
  N   N4        1.0  0.2727136125561237  0.7272862942141465  0.7272864527151311  1.0000
  N   N5        1.0  0.272713434556566  0.7272866106131235  0.27271350022552454  1.0000
  N   N6        1.0  0.7272862859386847  0.272713705252719  0.7272862799800566  1.0000
