data_image0
_chemical_formula_structural       Y2SnO6
_chemical_formula_sum              "Y2 Sn1 O6"
_cell_length_a       5.347653939959558
_cell_length_b       5.347654000428331
_cell_length_c       5.347653813373158
_cell_angle_alpha    60.00000176360258
_cell_angle_beta     60.000002283661566
_cell_angle_gamma    60.00000134609408

_space_group_name_H-M_alt    "P 1"
_space_group_IT_number       1

loop_
  _space_group_symop_operation_xyz
  'x, y, z'

loop_
  _atom_site_type_symbol
  _atom_site_label
  _atom_site_symmetry_multiplicity
  _atom_site_fract_x
  _atom_site_fract_y
  _atom_site_fract_z
  _atom_site_occupancy
  Y   Y1        1.0  0.24999996022303503  0.24999998161347262  0.25000008791188943  1.0000
  Y   Y2        1.0  0.7500000454917573  0.7500000204185683  0.7499999920669752  1.0000
  Sn  Sn1       1.0  0.9999999088543353  0.9999999106803672  0.9999998994947956  1.0000
  O   O1        1.0  0.2656517939746754  0.26565186452092426  0.7343481818317434  1.0000
  O   O2        1.0  0.7343482274649367  0.7343481810258093  0.265651793728208  1.0000
  O   O3        1.0  0.7343481446296948  0.26565187972115933  0.26565180522694565  1.0000
  O   O4        1.0  0.2656518727533494  0.7343481520840925  0.7343482259815038  1.0000
  O   O5        1.0  0.26565182703252166  0.7343480736508787  0.2656518713735003  1.0000
  O   O6        1.0  0.7343481911139379  0.26565195586412604  0.7343481306787021  1.0000
