data_image0
_chemical_formula_structural       Y2SN6
_chemical_formula_sum              "Y2 S1 N6"
_cell_length_a       5.124446447396425
_cell_length_b       5.124446580035461
_cell_length_c       5.1244466949542655
_cell_angle_alpha    59.999999094751466
_cell_angle_beta     60.000000346213845
_cell_angle_gamma    60.000001638890616

_space_group_name_H-M_alt    "P 1"
_space_group_IT_number       1

loop_
  _space_group_symop_operation_xyz
  'x, y, z'

loop_
  _atom_site_type_symbol
  _atom_site_label
  _atom_site_symmetry_multiplicity
  _atom_site_fract_x
  _atom_site_fract_y
  _atom_site_fract_z
  _atom_site_occupancy
  Y   Y1        1.0  0.24999999526453393  0.24999997928290474  0.2500000087775777  1.0000
  Y   Y2        1.0  0.749999994236676  0.7500000071588351  0.7500000089218679  1.0000
  S   S1        1.0  0.9999999673600621  5.736009965342525e-08  0.9999999876399186  1.0000
  N   N1        1.0  0.2351616822176006  0.23516166933036936  0.764838306909915  1.0000
  N   N2        1.0  0.7648384046995602  0.7648383290613933  0.23516163659224346  1.0000
  N   N3        1.0  0.7648382882267465  0.2351617053082769  0.2351616783088726  1.0000
  N   N4        1.0  0.23516169968112752  0.7648382859134712  0.7648383417000972  1.0000
  N   N5        1.0  0.23516164231642137  0.7648383457562864  0.2351616569914668  1.0000
  N   N6        1.0  0.7648383177549734  0.23516164785546556  0.7648383640321592  1.0000
