data_image0
_chemical_formula_structural       Y2SnS6
_chemical_formula_sum              "Y2 Sn1 S6"
_cell_length_a       6.536229606857706
_cell_length_b       6.53622960989831
_cell_length_c       6.536229427349529
_cell_angle_alpha    59.99999896490227
_cell_angle_beta     60.00000072601912
_cell_angle_gamma    59.99999937012096

_space_group_name_H-M_alt    "P 1"
_space_group_IT_number       1

loop_
  _space_group_symop_operation_xyz
  'x, y, z'

loop_
  _atom_site_type_symbol
  _atom_site_label
  _atom_site_symmetry_multiplicity
  _atom_site_fract_x
  _atom_site_fract_y
  _atom_site_fract_z
  _atom_site_occupancy
  Y   Y1        1.0  0.2500000331050802  0.24999997279071864  0.2500000199827136  1.0000
  Y   Y2        1.0  0.7500000480802312  0.7500001038762635  0.7499999866938526  1.0000
  Sn  Sn1       1.0  1.0207813789063661e-08  0.9999999587768653  1.7382545421795918e-09  1.0000
  S   S1        1.0  0.26238390037119225  0.26238392201958866  0.7376160773140377  1.0000
  S   S2        1.0  0.7376160670741225  0.7376160665797896  0.2623839262308146  1.0000
  S   S3        1.0  0.7376160103062636  0.2623839352029827  0.26238392660946197  1.0000
  S   S4        1.0  0.26238391648850506  0.737616085250637  0.7376160537947292  1.0000
  S   S5        1.0  0.262383913310655  0.7376161292046558  0.262383923743751  1.0000
  S   S6        1.0  0.7376161085078643  0.262383818171587  0.7376160915852759  1.0000
