data_image0
_chemical_formula_structural       Y2SnTe6
_chemical_formula_sum              "Y2 Sn1 Te6"
_cell_length_a       7.405683347304595
_cell_length_b       7.405683305567887
_cell_length_c       7.405683309316497
_cell_angle_alpha    60.00000070302587
_cell_angle_beta     60.000000067138544
_cell_angle_gamma    59.99999967051629

_space_group_name_H-M_alt    "P 1"
_space_group_IT_number       1

loop_
  _space_group_symop_operation_xyz
  'x, y, z'

loop_
  _atom_site_type_symbol
  _atom_site_label
  _atom_site_symmetry_multiplicity
  _atom_site_fract_x
  _atom_site_fract_y
  _atom_site_fract_z
  _atom_site_occupancy
  Y   Y1        1.0  0.2500000012270313  0.2499999956233117  0.2500000048126125  1.0000
  Y   Y2        1.0  0.7500000183435891  0.7500000083692114  0.7499999788028658  1.0000
  Sn  Sn1       1.0  0.9999999689104093  0.9999999950386286  4.522338137715237e-09  1.0000
  Te  Te1       1.0  0.26668004092717684  0.2666800662100685  0.7333199450670154  1.0000
  Te  Te2       1.0  0.7333199766113254  0.733319962589312  0.26668004876612217  1.0000
  Te  Te3       1.0  0.7333199710256645  0.2666800114336427  0.2666800475172721  1.0000
  Te  Te4       1.0  0.2666800171878474  0.733319974367185  0.733319964923551  1.0000
  Te  Te5       1.0  0.2666800482623603  0.7333199621098644  0.26668003916144944  1.0000
  Te  Te6       1.0  0.7333199618746543  0.26668001872959185  0.7333199674989367  1.0000
