data_image0
_chemical_formula_structural       Y2SO6
_chemical_formula_sum              "Y2 S1 O6"
_cell_length_a       5.1349158634442515
_cell_length_b       5.1349157766084215
_cell_length_c       5.134915930622314
_cell_angle_alpha    60.00000072400464
_cell_angle_beta     60.00000094956227
_cell_angle_gamma    60.000001172476594

_space_group_name_H-M_alt    "P 1"
_space_group_IT_number       1

loop_
  _space_group_symop_operation_xyz
  'x, y, z'

loop_
  _atom_site_type_symbol
  _atom_site_label
  _atom_site_symmetry_multiplicity
  _atom_site_fract_x
  _atom_site_fract_y
  _atom_site_fract_z
  _atom_site_occupancy
  Y   Y1        1.0  0.24999999570710602  0.2500000258415778  0.24999998625577774  1.0000
  Y   Y2        1.0  0.7500000296210537  0.7500000107410566  0.7500000001210768  1.0000
  S   S1        1.0  0.999999930538988  2.623644400418161e-08  1.1875025874434715e-08  1.0000
  O   O1        1.0  0.2318391827723217  0.23183912507470222  0.7681608338572068  1.0000
  O   O2        1.0  0.7681608375829704  0.7681608184878089  0.23183916646201397  1.0000
  O   O3        1.0  0.7681608871061567  0.2318390959175862  0.23183909551919724  1.0000
  O   O4        1.0  0.2318391284788731  0.7681608619557131  0.7681609000297609  1.0000
  O   O5        1.0  0.23183910447147513  0.7681609115661675  0.2318390784179688  1.0000
  O   O6        1.0  0.76816090763716  0.23183911070567842  0.7681609041969779  1.0000
