data_image0
_chemical_formula_structural       Y2TaTe6
_chemical_formula_sum              "Y2 Ta1 Te6"
_cell_length_a       7.30987806340803
_cell_length_b       7.309878033405709
_cell_length_c       7.309878057199616
_cell_angle_alpha    59.9999998590865
_cell_angle_beta     59.99999996021605
_cell_angle_gamma    60.000000319327434

_space_group_name_H-M_alt    "P 1"
_space_group_IT_number       1

loop_
  _space_group_symop_operation_xyz
  'x, y, z'

loop_
  _atom_site_type_symbol
  _atom_site_label
  _atom_site_symmetry_multiplicity
  _atom_site_fract_x
  _atom_site_fract_y
  _atom_site_fract_z
  _atom_site_occupancy
  Y   Y1        1.0  0.25000001500161634  0.24999997028268553  0.2500000100943728  1.0000
  Y   Y2        1.0  0.7500000055438084  0.7500000197533162  0.7499999887209494  1.0000
  Ta  Ta1       1.0  9.653066960879133e-09  1.843012095190883e-08  0.9999999476540735  1.0000
  Te  Te1       1.0  0.2612608546287778  0.26126083949272183  0.7387391544907045  1.0000
  Te  Te2       1.0  0.7387391232662578  0.7387391505432798  0.2612608574417413  1.0000
  Te  Te3       1.0  0.7387391552724971  0.2612608453855415  0.26126085562592416  1.0000
  Te  Te4       1.0  0.2612608375730261  0.7387391614051153  0.7387391678141878  1.0000
  Te  Te5       1.0  0.26126083527967303  0.738739159787088  0.26126085717855635  1.0000
  Te  Te6       1.0  0.7387391657515346  0.26126083192437927  0.7387391560281894  1.0000
