data_image0
_chemical_formula_structural       Y2TaS6
_chemical_formula_sum              "Y2 Ta1 S6"
_cell_length_a       6.454500507620649
_cell_length_b       6.454500708930952
_cell_length_c       6.454500722823607
_cell_angle_alpha    59.999999539050854
_cell_angle_beta     60.00000012785841
_cell_angle_gamma    60.00000004508311

_space_group_name_H-M_alt    "P 1"
_space_group_IT_number       1

loop_
  _space_group_symop_operation_xyz
  'x, y, z'

loop_
  _atom_site_type_symbol
  _atom_site_label
  _atom_site_symmetry_multiplicity
  _atom_site_fract_x
  _atom_site_fract_y
  _atom_site_fract_z
  _atom_site_occupancy
  Y   Y1        1.0  0.25000002281800304  0.2499999668597663  0.24999998484113106  1.0000
  Y   Y2        1.0  0.7499999778823153  0.7500000220196321  0.7500000212023175  1.0000
  Ta  Ta1       1.0  0.9999999895730309  1.5180041610619094e-08  1.1567222208303573e-08  1.0000
  S   S1        1.0  0.2594573244171405  0.25945731233809666  0.7405426983271338  1.0000
  S   S2        1.0  0.7405426860776447  0.7405426632587657  0.2594572645304606  1.0000
  S   S3        1.0  0.7405426731988992  0.2594572979127884  0.2594573559228127  1.0000
  S   S4        1.0  0.25945730496701536  0.7405427156341781  0.7405426444061339  1.0000
  S   S5        1.0  0.25945733650697433  0.7405426782520841  0.2594573313057938  1.0000
  S   S6        1.0  0.7405426750171564  0.25945733719238706  0.7405426901279555  1.0000
