data_image0
_chemical_formula_structural       Y2TaO6
_chemical_formula_sum              "Y2 Ta1 O6"
_cell_length_a       5.373156002242329
_cell_length_b       5.3731560752966665
_cell_length_c       5.3731560665468825
_cell_angle_alpha    60.00000016341061
_cell_angle_beta     59.99999971257958
_cell_angle_gamma    59.99999964591676

_space_group_name_H-M_alt    "P 1"
_space_group_IT_number       1

loop_
  _space_group_symop_operation_xyz
  'x, y, z'

loop_
  _atom_site_type_symbol
  _atom_site_label
  _atom_site_symmetry_multiplicity
  _atom_site_fract_x
  _atom_site_fract_y
  _atom_site_fract_z
  _atom_site_occupancy
  Y   Y1        1.0  0.25000014119604125  0.24999985215621712  0.24999999568214246  1.0000
  Y   Y2        1.0  0.7499999876130136  0.7499999553596399  0.7500000148940063  1.0000
  Ta  Ta1       1.0  0.9999999900147056  0.999999997720623  0.9999999968268177  1.0000
  O   O1        1.0  0.2564739305850057  0.25647398542389693  0.7435261063383054  1.0000
  O   O2        1.0  0.743525979128436  0.7435260796615694  0.2564739836393348  1.0000
  O   O3        1.0  0.7435260414219083  0.25647398867615295  0.25647390532009473  1.0000
  O   O4        1.0  0.256473967775764  0.7435260809680666  0.7435259428034885  1.0000
  O   O5        1.0  0.2564739520522689  0.7435261329885493  0.2564739839355717  1.0000
  O   O6        1.0  0.7435260361543029  0.25647394805255574  0.7435260420677521  1.0000
