data_image0
_chemical_formula_structural       Y2TaSe6
_chemical_formula_sum              "Y2 Ta1 Se6"
_cell_length_a       6.763654463490329
_cell_length_b       6.763654519157226
_cell_length_c       6.763654536594162
_cell_angle_alpha    60.00000059050313
_cell_angle_beta     59.99999977930348
_cell_angle_gamma    59.999999422919096

_space_group_name_H-M_alt    "P 1"
_space_group_IT_number       1

loop_
  _space_group_symop_operation_xyz
  'x, y, z'

loop_
  _atom_site_type_symbol
  _atom_site_label
  _atom_site_symmetry_multiplicity
  _atom_site_fract_x
  _atom_site_fract_y
  _atom_site_fract_z
  _atom_site_occupancy
  Y   Y1        1.0  0.25000003564804524  0.24999996037554742  0.2500000244741985  1.0000
  Y   Y2        1.0  0.7499999422556016  0.7500000422855144  0.7499998888976048  1.0000
  Ta  Ta1       1.0  0.9999999910319223  5.25124412041569e-08  0.9999999457010242  1.0000
  Se  Se1       1.0  0.2598535889600065  0.25985356854424674  0.7401464277827609  1.0000
  Se  Se2       1.0  0.7401464084656817  0.7401463653074102  0.2598536684312237  1.0000
  Se  Se3       1.0  0.7401464160418417  0.25985352170116083  0.25985360383053663  1.0000
  Se  Se4       1.0  0.2598535972990589  0.7401465026891875  0.7401464036727209  1.0000
  Se  Se5       1.0  0.25985357632939293  0.7401464304486807  0.2598535875326616  1.0000
  Se  Se6       1.0  0.7401464445652831  0.2598535559154171  0.7401464470347586  1.0000
