data_image0
_chemical_formula_structural       Y2TaO6
_chemical_formula_sum              "Y2 Ta1 O6"
_cell_length_a       5.373111856656571
_cell_length_b       5.373111870520495
_cell_length_c       5.373111902890886
_cell_angle_alpha    60.000000838914545
_cell_angle_beta     60.00000047297878
_cell_angle_gamma    60.00000062415095

_space_group_name_H-M_alt    "P 1"
_space_group_IT_number       1

loop_
  _space_group_symop_operation_xyz
  'x, y, z'

loop_
  _atom_site_type_symbol
  _atom_site_label
  _atom_site_symmetry_multiplicity
  _atom_site_fract_x
  _atom_site_fract_y
  _atom_site_fract_z
  _atom_site_occupancy
  Y   Y1        1.0  0.25000004078856913  0.2499999891250077  0.24999995094480693  1.0000
  Y   Y2        1.0  0.7499999301443364  0.7500000927417925  0.7499999755954275  1.0000
  Ta  Ta1       1.0  0.9999999937912505  2.5073353808120888e-08  0.9999999998732925  1.0000
  O   O1        1.0  0.25647223942600916  0.256472057574978  0.7435278414144724  1.0000
  O   O2        1.0  0.7435278490558533  0.7435278328225765  0.2564722244474439  1.0000
  O   O3        1.0  0.743527831104302  0.2564722017466427  0.25647212246674866  1.0000
  O   O4        1.0  0.2564721660528386  0.7435277821061388  0.7435278920797058  1.0000
  O   O5        1.0  0.2564721027582484  0.7435279350465005  0.25647212846712325  1.0000
  O   O6        1.0  0.7435278451870764  0.25647211262936265  0.7435278266623696  1.0000
