data_image0
_chemical_formula_structural       Y2TaN6
_chemical_formula_sum              "Y2 Ta1 N6"
_cell_length_a       5.435584674598739
_cell_length_b       5.435584793334105
_cell_length_c       5.435584567416187
_cell_angle_alpha    60.00000218565258
_cell_angle_beta     60.00000143336347
_cell_angle_gamma    60.00000020397986

_space_group_name_H-M_alt    "P 1"
_space_group_IT_number       1

loop_
  _space_group_symop_operation_xyz
  'x, y, z'

loop_
  _atom_site_type_symbol
  _atom_site_label
  _atom_site_symmetry_multiplicity
  _atom_site_fract_x
  _atom_site_fract_y
  _atom_site_fract_z
  _atom_site_occupancy
  Y   Y1        1.0  0.25000005436980616  0.2500000412487444  0.24999998395178025  1.0000
  Y   Y2        1.0  0.7499999574575755  0.7500000651630897  0.750000006704234  1.0000
  Ta  Ta1       1.0  1.54925517029578e-08  4.506395667714615e-09  0.9999999973594406  1.0000
  N   N1        1.0  0.2711065773526537  0.27110647691468676  0.7288935373142287  1.0000
  N   N2        1.0  0.7288934059159051  0.7288935303564392  0.2711066165368911  1.0000
  N   N3        1.0  0.7288934496918937  0.27110648127818493  0.2711065052968484  1.0000
  N   N4        1.0  0.2711066147322179  0.7288934291054264  0.7288933914993438  1.0000
  N   N5        1.0  0.2711065389960553  0.72889339695746  0.2711065010681303  1.0000
  N   N6        1.0  0.7288934346817251  0.2711065562369135  0.7288933608245334  1.0000
