data_image0
_chemical_formula_structural       Y2TaSe6
_chemical_formula_sum              "Y2 Ta1 Se6"
_cell_length_a       6.7638330419024255
_cell_length_b       6.763833244516327
_cell_length_c       6.763833132132549
_cell_angle_alpha    59.999999616441514
_cell_angle_beta     59.999999981025354
_cell_angle_gamma    59.99999835387347

_space_group_name_H-M_alt    "P 1"
_space_group_IT_number       1

loop_
  _space_group_symop_operation_xyz
  'x, y, z'

loop_
  _atom_site_type_symbol
  _atom_site_label
  _atom_site_symmetry_multiplicity
  _atom_site_fract_x
  _atom_site_fract_y
  _atom_site_fract_z
  _atom_site_occupancy
  Y   Y1        1.0  0.25000004881612825  0.2500000176259713  0.24999995308922518  1.0000
  Y   Y2        1.0  0.7499999283627616  0.7500000003668638  0.7500000300488503  1.0000
  Ta  Ta1       1.0  3.7661272940600405e-08  0.9999999945678215  0.9999999513595175  1.0000
  Se  Se1       1.0  0.2598419204480073  0.25984195544816424  0.7401580518626749  1.0000
  Se  Se2       1.0  0.7401580917027187  0.7401580190872455  0.2598419680441311  1.0000
  Se  Se3       1.0  0.7401580307401913  0.2598419169902308  0.2598419402067735  1.0000
  Se  Se4       1.0  0.2598419308670646  0.7401581118669601  0.7401580925953928  1.0000
  Se  Se5       1.0  0.2598419474634297  0.740158112282487  0.25984186745095295  1.0000
  Se  Se6       1.0  0.7401580719124331  0.2598418713065525  0.7401581472733729  1.0000
