data_image0
_chemical_formula_structural       Y2TaS6
_chemical_formula_sum              "Y2 Ta1 S6"
_cell_length_a       6.454469728815684
_cell_length_b       6.4544698028463445
_cell_length_c       6.454469766563996
_cell_angle_alpha    60.00000009516765
_cell_angle_beta     59.999999381311234
_cell_angle_gamma    59.99999995694563

_space_group_name_H-M_alt    "P 1"
_space_group_IT_number       1

loop_
  _space_group_symop_operation_xyz
  'x, y, z'

loop_
  _atom_site_type_symbol
  _atom_site_label
  _atom_site_symmetry_multiplicity
  _atom_site_fract_x
  _atom_site_fract_y
  _atom_site_fract_z
  _atom_site_occupancy
  Y   Y1        1.0  0.2499999819561287  0.25000002162960255  0.24999995644155562  1.0000
  Y   Y2        1.0  0.7499999927450209  0.7499999832956932  0.7499999889376269  1.0000
  Ta  Ta1       1.0  1.1998971586611688e-08  0.9999999962049714  0.9999999835035169  1.0000
  S   S1        1.0  0.25945842467890434  0.25945849496512186  0.7405415381492009  1.0000
  S   S2        1.0  0.7405415924154899  0.7405415384228881  0.25945843532387386  1.0000
  S   S3        1.0  0.74054152620961  0.25945845780683696  0.25945850741549814  1.0000
  S   S4        1.0  0.2594584798811172  0.7405414958855729  0.7405415501400587  1.0000
  S   S5        1.0  0.25945848295595336  0.7405415411480021  0.2594585071794729  1.0000
  S   S6        1.0  0.7405415095266119  0.2594584694698364  0.7405415380133343  1.0000
