data_image0
_chemical_formula_structural       Y2TeN6
_chemical_formula_sum              "Y2 Te1 N6"
_cell_length_a       5.541582954673445
_cell_length_b       5.541583014018457
_cell_length_c       5.54158311118171
_cell_angle_alpha    59.99999959434084
_cell_angle_beta     60.00000009676103
_cell_angle_gamma    60.00000006155401

_space_group_name_H-M_alt    "P 1"
_space_group_IT_number       1

loop_
  _space_group_symop_operation_xyz
  'x, y, z'

loop_
  _atom_site_type_symbol
  _atom_site_label
  _atom_site_symmetry_multiplicity
  _atom_site_fract_x
  _atom_site_fract_y
  _atom_site_fract_z
  _atom_site_occupancy
  Y   Y1        1.0  0.25000001405740707  0.250000000911137  0.2499999991978288  1.0000
  Y   Y2        1.0  0.7500000296700111  0.750000002733411  0.749999962340206  1.0000
  Te  Te1       1.0  2.0479509312098075e-08  0.9999999823192056  0.9999999859688733  1.0000
  N   N1        1.0  0.26154125048272364  0.26154126670221345  0.7384587453813375  1.0000
  N   N2        1.0  0.7384587367319557  0.7384587502029302  0.2615412630463075  1.0000
  N   N3        1.0  0.73845873608815  0.2615412255526244  0.2615412501106437  1.0000
  N   N4        1.0  0.2615412251543011  0.7384587692515263  0.7384587769399962  1.0000
  N   N5        1.0  0.261541232143768  0.7384587834275885  0.2615412290803395  1.0000
  N   N6        1.0  0.738458751893003  0.26154121800686003  0.7384587688216838  1.0000
