data_image0
_chemical_formula_structural       Y2TeS6
_chemical_formula_sum              "Y2 Te1 S6"
_cell_length_a       6.568721387553281
_cell_length_b       6.568721509686141
_cell_length_c       6.568721369014431
_cell_angle_alpha    59.99999937247573
_cell_angle_beta     59.9999987955912
_cell_angle_gamma    60.00000006090813

_space_group_name_H-M_alt    "P 1"
_space_group_IT_number       1

loop_
  _space_group_symop_operation_xyz
  'x, y, z'

loop_
  _atom_site_type_symbol
  _atom_site_label
  _atom_site_symmetry_multiplicity
  _atom_site_fract_x
  _atom_site_fract_y
  _atom_site_fract_z
  _atom_site_occupancy
  Y   Y1        1.0  0.24999996022669074  0.25000021371190306  0.24999994847236529  1.0000
  Y   Y2        1.0  0.7499999322193818  0.7500000277118296  0.7500000761212987  1.0000
  Te  Te1       1.0  0.9999999932883908  0.999999983219408  0.9999999721645773  1.0000
  S   S1        1.0  0.25723185861830167  0.25723173408524863  0.7427682428268808  1.0000
  S   S2        1.0  0.742768209515131  0.7427681437589818  0.2572318239524023  1.0000
  S   S3        1.0  0.7427682397730424  0.2572318126261915  0.2572317736679392  1.0000
  S   S4        1.0  0.2572318014925207  0.7427682143788611  0.7427681984728081  1.0000
  S   S5        1.0  0.2572317960120979  0.742768107480427  0.25723175663925485  1.0000
  S   S6        1.0  0.7427682225991703  0.2572317554477223  0.7427682236145811  1.0000
