data_image0
_chemical_formula_structural       Y2TeSe6
_chemical_formula_sum              "Y2 Te1 Se6"
_cell_length_a       6.922057054181509
_cell_length_b       6.922057107483776
_cell_length_c       6.9220572143704455
_cell_angle_alpha    59.99999961219102
_cell_angle_beta     60.00000082107907
_cell_angle_gamma    59.99999999396204

_space_group_name_H-M_alt    "P 1"
_space_group_IT_number       1

loop_
  _space_group_symop_operation_xyz
  'x, y, z'

loop_
  _atom_site_type_symbol
  _atom_site_label
  _atom_site_symmetry_multiplicity
  _atom_site_fract_x
  _atom_site_fract_y
  _atom_site_fract_z
  _atom_site_occupancy
  Y   Y1        1.0  0.25000001452410325  0.25000000569437797  0.25000002530992094  1.0000
  Y   Y2        1.0  0.7499999072064168  0.7499999657723739  0.7500000932012545  1.0000
  Te  Te1       1.0  4.453400323441612e-08  2.6540049046414656e-08  0.9999998445564243  1.0000
  Se  Se1       1.0  0.26605136771000826  0.2660513026486104  0.7339486676267623  1.0000
  Se  Se2       1.0  0.7339486159443112  0.7339486582021225  0.26605133855108987  1.0000
  Se  Se3       1.0  0.733948614523891  0.26605138824825597  0.26605132532378556  1.0000
  Se  Se4       1.0  0.2660512982240328  0.7339486752239975  0.7339487430079936  1.0000
  Se  Se5       1.0  0.2660514363688495  0.7339486136807364  0.2660512791736486  1.0000
  Se  Se6       1.0  0.733948693290204  0.2660513595553523  0.7339486911488774  1.0000
