data_image0
_chemical_formula_structural       Y2TeO6
_chemical_formula_sum              "Y2 Te1 O6"
_cell_length_a       5.391922519134198
_cell_length_b       5.391922565391469
_cell_length_c       5.3919225919715235
_cell_angle_alpha    60.00000077972057
_cell_angle_beta     60.000000216581384
_cell_angle_gamma    60.00000032630737

_space_group_name_H-M_alt    "P 1"
_space_group_IT_number       1

loop_
  _space_group_symop_operation_xyz
  'x, y, z'

loop_
  _atom_site_type_symbol
  _atom_site_label
  _atom_site_symmetry_multiplicity
  _atom_site_fract_x
  _atom_site_fract_y
  _atom_site_fract_z
  _atom_site_occupancy
  Y   Y1        1.0  0.24999998151067987  0.25000003647320124  0.24999992987541494  1.0000
  Y   Y2        1.0  0.749999983989061  0.7500000617192869  0.7499999384087229  1.0000
  Te  Te1       1.0  1.535819375319782e-08  1.8171549654385237e-08  0.9999999832351285  1.0000
  O   O1        1.0  0.248839980175284  0.24884002789165616  0.7511600208770925  1.0000
  O   O2        1.0  0.751160009337955  0.7511599340142101  0.2488400407859326  1.0000
  O   O3        1.0  0.7511599996777668  0.24883997676120734  0.2488400314572725  1.0000
  O   O4        1.0  0.24884003190907844  0.7511599874161025  0.7511599913415941  1.0000
  O   O5        1.0  0.24883998683014094  0.7511599969354236  0.24884003070908864  1.0000
  O   O6        1.0  0.751160005214354  0.24883994452744937  0.7511600547468134  1.0000
