data_image0
_chemical_formula_structural       Y2TiN6
_chemical_formula_sum              "Y2 Ti1 N6"
_cell_length_a       5.272224328057937
_cell_length_b       5.272224212219026
_cell_length_c       5.2722238420811065
_cell_angle_alpha    60.0000018818567
_cell_angle_beta     60.0000012042448
_cell_angle_gamma    60.00000144588271

_space_group_name_H-M_alt    "P 1"
_space_group_IT_number       1

loop_
  _space_group_symop_operation_xyz
  'x, y, z'

loop_
  _atom_site_type_symbol
  _atom_site_label
  _atom_site_symmetry_multiplicity
  _atom_site_fract_x
  _atom_site_fract_y
  _atom_site_fract_z
  _atom_site_occupancy
  Y   Y1        1.0  0.250000023245876  0.24999999547625862  0.24999998043328883  1.0000
  Y   Y2        1.0  0.7499999945851796  0.75000006076521  0.7499999018764851  1.0000
  Ti  Ti1       1.0  0.9999999148951327  0.9999999070794556  0.9999999695185395  1.0000
  N   N1        1.0  0.27348941153725287  0.27348938546617313  0.7265105186137147  1.0000
  N   N2        1.0  0.7265107224366589  0.7265107822799485  0.27348923090497457  1.0000
  N   N3        1.0  0.7265106697788789  0.2734893721858666  0.2734892586729444  1.0000
  N   N4        1.0  0.2734890945213361  0.7265108861577825  0.7265108086767194  1.0000
  N   N5        1.0  0.2734892981283476  0.7265105042875816  0.27348947619560376  1.0000
  N   N6        1.0  0.7265109596106694  0.27348906876706336  0.726510766741935  1.0000
