data_image0
_chemical_formula_structural       Y2TiO6
_chemical_formula_sum              "Y2 Ti1 O6"
_cell_length_a       5.2575828390780535
_cell_length_b       5.2575827174901155
_cell_length_c       5.257582730304338
_cell_angle_alpha    60.00000132474938
_cell_angle_beta     60.00000114157781
_cell_angle_gamma    60.000000547779

_space_group_name_H-M_alt    "P 1"
_space_group_IT_number       1

loop_
  _space_group_symop_operation_xyz
  'x, y, z'

loop_
  _atom_site_type_symbol
  _atom_site_label
  _atom_site_symmetry_multiplicity
  _atom_site_fract_x
  _atom_site_fract_y
  _atom_site_fract_z
  _atom_site_occupancy
  Y   Y1        1.0  0.25000001144661893  0.24999997238445512  0.24999993073898055  1.0000
  Y   Y2        1.0  0.7499999203323484  0.7500000219800964  0.7500001163458121  1.0000
  Ti  Ti1       1.0  2.8551346280149298e-08  0.9999999999999997  0.9999999609981352  1.0000
  O   O1        1.0  0.25574552222459557  0.25574561157858705  0.7442544290324293  1.0000
  O   O2        1.0  0.7442544519265314  0.7442543874449294  0.25574556220255024  1.0000
  O   O3        1.0  0.7442544795903558  0.2557455176893464  0.2557455238983111  1.0000
  O   O4        1.0  0.25574549713384653  0.7442544999700336  0.7442545233027161  1.0000
  O   O5        1.0  0.2557456132210508  0.7442544743953667  0.25574543468017624  1.0000
  O   O6        1.0  0.7442544509766297  0.2557455246281504  0.7442545419637628  1.0000
