data_image0
_chemical_formula_structural       Y2TiS6
_chemical_formula_sum              "Y2 Ti1 S6"
_cell_length_a       6.340198952916167
_cell_length_b       6.340199007949544
_cell_length_c       6.340198932648692
_cell_angle_alpha    60.000000525765046
_cell_angle_beta     60.00000096843492
_cell_angle_gamma    60.000000082203464

_space_group_name_H-M_alt    "P 1"
_space_group_IT_number       1

loop_
  _space_group_symop_operation_xyz
  'x, y, z'

loop_
  _atom_site_type_symbol
  _atom_site_label
  _atom_site_symmetry_multiplicity
  _atom_site_fract_x
  _atom_site_fract_y
  _atom_site_fract_z
  _atom_site_occupancy
  Y   Y1        1.0  0.249999969837296  0.24999998842403756  0.25000002806179866  1.0000
  Y   Y2        1.0  0.7500000318282907  0.750000013564952  0.7499999878401127  1.0000
  Ti  Ti1       1.0  1.1792280238031762e-08  0.9999999864780047  2.1368946099260436e-08  1.0000
  S   S1        1.0  0.2567606486444761  0.2567606470683122  0.743239348926014  1.0000
  S   S2        1.0  0.7432393519542546  0.743239347193823  0.2567606682182773  1.0000
  S   S3        1.0  0.7432394108994581  0.2567606061822552  0.2567605983938396  1.0000
  S   S4        1.0  0.25676061122268723  0.7432394054653023  0.7432393456699556  1.0000
  S   S5        1.0  0.25676058056814427  0.7432394082500371  0.25676061930585964  1.0000
  S   S6        1.0  0.7432393840287964  0.25676059567066645  0.7432393826197659  1.0000
