data_image0
_chemical_formula_structural       Y2VN6
_chemical_formula_sum              "Y2 V1 N6"
_cell_length_a       5.310665666097222
_cell_length_b       5.310665608200568
_cell_length_c       5.310665593673017
_cell_angle_alpha    60.000001416150596
_cell_angle_beta     60.000000417902896
_cell_angle_gamma    59.9999991416435

_space_group_name_H-M_alt    "P 1"
_space_group_IT_number       1

loop_
  _space_group_symop_operation_xyz
  'x, y, z'

loop_
  _atom_site_type_symbol
  _atom_site_label
  _atom_site_symmetry_multiplicity
  _atom_site_fract_x
  _atom_site_fract_y
  _atom_site_fract_z
  _atom_site_occupancy
  Y   Y1        1.0  0.25000001976037584  0.2499999602609374  0.24999998854788702  1.0000
  Y   Y2        1.0  0.7499999953670372  0.7500000399105056  0.7500000234850371  1.0000
  V   V1        1.0  0.9999999956513906  0.9999999999999999  0.9999999871102796  1.0000
  N   N1        1.0  0.26006553800015425  0.26006555053699487  0.7399344443989879  1.0000
  N   N2        1.0  0.7399344329816956  0.7399344842274246  0.26006553286716405  1.0000
  N   N3        1.0  0.7399344762607225  0.2600654951641334  0.2600655336942733  1.0000
  N   N4        1.0  0.2600654507300879  0.7399345280692949  0.7399344958119348  1.0000
  N   N5        1.0  0.26006549605462725  0.7399344838984063  0.2600654797512263  1.0000
  N   N6        1.0  0.7399345439133943  0.26006546784286955  0.73993454595948  1.0000
