data_image0
_chemical_formula_structural       Y2VO6
_chemical_formula_sum              "Y2 V1 O6"
_cell_length_a       5.203532030914712
_cell_length_b       5.203532123915036
_cell_length_c       5.203531897815383
_cell_angle_alpha    59.99999940258324
_cell_angle_beta     60.00000129975785
_cell_angle_gamma    60.0000021272622

_space_group_name_H-M_alt    "P 1"
_space_group_IT_number       1

loop_
  _space_group_symop_operation_xyz
  'x, y, z'

loop_
  _atom_site_type_symbol
  _atom_site_label
  _atom_site_symmetry_multiplicity
  _atom_site_fract_x
  _atom_site_fract_y
  _atom_site_fract_z
  _atom_site_occupancy
  Y   Y1        1.0  0.24999987885026015  0.2500001723594824  0.2500000081313239  1.0000
  Y   Y2        1.0  0.7499999729382633  0.750000060464565  0.7500000422282035  1.0000
  V   V1        1.0  2.4140559212709e-08  1.4122079043129408e-08  3.9299403506655705e-09  1.0000
  O   O1        1.0  0.25352440321310066  0.25352431782164364  0.7464756445600549  1.0000
  O   O2        1.0  0.7464756753515055  0.7464756207924309  0.25352430691418015  1.0000
  O   O3        1.0  0.7464756400691736  0.2535243205017863  0.25352447003563094  1.0000
  O   O4        1.0  0.2535243368220115  0.7464755969291652  0.7464756312683711  1.0000
  O   O5        1.0  0.25352444003893726  0.7464755667786508  0.2535243242573375  1.0000
  O   O6        1.0  0.7464756382795447  0.25352434594494644  0.746475596084451  1.0000
