data_image0
_chemical_formula_structural       Y2VS6
_chemical_formula_sum              "Y2 V1 S6"
_cell_length_a       6.291553798599315
_cell_length_b       6.291553664884907
_cell_length_c       6.291553678466848
_cell_angle_alpha    60.00000039273108
_cell_angle_beta     60.0000011130843
_cell_angle_gamma    60.000000393224155

_space_group_name_H-M_alt    "P 1"
_space_group_IT_number       1

loop_
  _space_group_symop_operation_xyz
  'x, y, z'

loop_
  _atom_site_type_symbol
  _atom_site_label
  _atom_site_symmetry_multiplicity
  _atom_site_fract_x
  _atom_site_fract_y
  _atom_site_fract_z
  _atom_site_occupancy
  Y   Y1        1.0  0.24999994857187446  0.24999992755210992  0.2500001019928114  1.0000
  Y   Y2        1.0  0.749999987012769  0.7500000084676515  0.7499999491760575  1.0000
  V   V1        1.0  0.9999999569161295  1.3626545308212343e-08  7.671653065584426e-08  1.0000
  S   S1        1.0  0.2537126224422939  0.25371260418683234  0.7462873887422342  1.0000
  S   S2        1.0  0.7462874006236804  0.746287460311785  0.2537125989506527  1.0000
  S   S3        1.0  0.7462874786980693  0.2537124827263476  0.25371259093972803  1.0000
  S   S4        1.0  0.2537126637973196  0.7462873501210003  0.7462873718030274  1.0000
  S   S5        1.0  0.2537125483293394  0.746287469117647  0.2537125819371974  1.0000
  S   S6        1.0  0.7462873984674965  0.25371268103354006  0.7462873311289431  1.0000
