data_image0
_chemical_formula_structural       Y2VSe6
_chemical_formula_sum              "Y2 V1 Se6"
_cell_length_a       6.616624779982319
_cell_length_b       6.616624703183327
_cell_length_c       6.616624656653264
_cell_angle_alpha    60.000000016763174
_cell_angle_beta     59.99999989831243
_cell_angle_gamma    59.999999834577324

_space_group_name_H-M_alt    "P 1"
_space_group_IT_number       1

loop_
  _space_group_symop_operation_xyz
  'x, y, z'

loop_
  _atom_site_type_symbol
  _atom_site_label
  _atom_site_symmetry_multiplicity
  _atom_site_fract_x
  _atom_site_fract_y
  _atom_site_fract_z
  _atom_site_occupancy
  Y   Y1        1.0  0.2500000933591094  0.24999997792707282  0.2499999764469865  1.0000
  Y   Y2        1.0  0.7500000703930695  0.7500000392888766  0.7499998469195905  1.0000
  V   V1        1.0  0.9999999849288129  0.9999999666817921  6.04669681680158e-08  1.0000
  Se  Se1       1.0  0.25482441443754766  0.25482439532563833  0.7451756210294312  1.0000
  Se  Se2       1.0  0.7451755921452327  0.7451756274433455  0.25482444288189093  1.0000
  Se  Se3       1.0  0.7451755826044885  0.254824358435157  0.25482441950549306  1.0000
  Se  Se4       1.0  0.2548243951576249  0.7451756199095497  0.7451755812795573  1.0000
  Se  Se5       1.0  0.2548243500978357  0.7451756086725162  0.25482442157003826  1.0000
  Se  Se6       1.0  0.7451755263215304  0.25482440669242146  0.74517561439896  1.0000
