data_image0
_chemical_formula_structural       Y2VTe6
_chemical_formula_sum              "Y2 V1 Te6"
_cell_length_a       7.141664949665084
_cell_length_b       7.141665056016558
_cell_length_c       7.141664875446338
_cell_angle_alpha    59.99999986916547
_cell_angle_beta     59.99999977131759
_cell_angle_gamma    59.999999229615426

_space_group_name_H-M_alt    "P 1"
_space_group_IT_number       1

loop_
  _space_group_symop_operation_xyz
  'x, y, z'

loop_
  _atom_site_type_symbol
  _atom_site_label
  _atom_site_symmetry_multiplicity
  _atom_site_fract_x
  _atom_site_fract_y
  _atom_site_fract_z
  _atom_site_occupancy
  Y   Y1        1.0  0.24999995376733936  0.2499999602504432  0.2500000516027512  1.0000
  Y   Y2        1.0  0.7500000360339046  0.7500000162307223  0.7499998708811094  1.0000
  V   V1        1.0  2.6914817710184012e-08  1.714929013119551e-09  0.9999999562802183  1.0000
  Te  Te1       1.0  0.2580722938433849  0.25807229821702266  0.7419276988039799  1.0000
  Te  Te2       1.0  0.7419276911885575  0.741927702273148  0.25807238768901053  1.0000
  Te  Te3       1.0  0.7419277327108726  0.2580722850480006  0.2580722905107792  1.0000
  Te  Te4       1.0  0.2580722500176701  0.7419277514556802  0.7419277245180407  1.0000
  Te  Te5       1.0  0.2580722797583919  0.7419277094112559  0.258072320164644  1.0000
  Te  Te6       1.0  0.7419277313393174  0.25807228078934075  0.7419277052313684  1.0000
