data_image0
_chemical_formula_structural       Y2WN6
_chemical_formula_sum              "Y2 W1 N6"
_cell_length_a       5.344357144610235
_cell_length_b       5.3443566979626445
_cell_length_c       5.344357211753354
_cell_angle_alpha    59.99999898761508
_cell_angle_beta     59.99999797481002
_cell_angle_gamma    59.99999836723505

_space_group_name_H-M_alt    "P 1"
_space_group_IT_number       1

loop_
  _space_group_symop_operation_xyz
  'x, y, z'

loop_
  _atom_site_type_symbol
  _atom_site_label
  _atom_site_symmetry_multiplicity
  _atom_site_fract_x
  _atom_site_fract_y
  _atom_site_fract_z
  _atom_site_occupancy
  Y   Y1        1.0  0.24999998776780566  0.2499999931540903  0.24999998516938687  1.0000
  Y   Y2        1.0  0.7499999937689319  0.750000043628756  0.7499999905219876  1.0000
  W   W1        1.0  3.432992650250313e-08  0.9999999747917382  0.9999999580165186  1.0000
  N   N1        1.0  0.26336265303110373  0.2633627312351916  0.7366372749694272  1.0000
  N   N2        1.0  0.7366372082985394  0.7366372642977714  0.2633627477700535  1.0000
  N   N3        1.0  0.7366373886440328  0.2633626194554905  0.2633625844758229  1.0000
  N   N4        1.0  0.26336255640217837  0.73663744253562  0.7366375109957606  1.0000
  N   N5        1.0  0.2633626285615586  0.7366373592766204  0.26336256882361697  1.0000
  N   N6        1.0  0.736637487872156  0.26336259042314647  0.7366374783885585  1.0000
