data_image0
_chemical_formula_structural       Y2WO6
_chemical_formula_sum              "Y2 W1 O6"
_cell_length_a       5.4001852974187585
_cell_length_b       5.400185260981953
_cell_length_c       5.400185444652548
_cell_angle_alpha    59.99999795074644
_cell_angle_beta     59.99999908951473
_cell_angle_gamma    59.99999947716514

_space_group_name_H-M_alt    "P 1"
_space_group_IT_number       1

loop_
  _space_group_symop_operation_xyz
  'x, y, z'

loop_
  _atom_site_type_symbol
  _atom_site_label
  _atom_site_symmetry_multiplicity
  _atom_site_fract_x
  _atom_site_fract_y
  _atom_site_fract_z
  _atom_site_occupancy
  Y   Y1        1.0  0.25000002843524066  0.2499998861775446  0.2499999867986978  1.0000
  Y   Y2        1.0  0.7499999817574272  0.7499999306888275  0.7499999483118841  1.0000
  W   W1        1.0  6.3925288520931335e-09  3.8555460703851356e-08  1.2709981863374128e-08  1.0000
  O   O1        1.0  0.2517795988167667  0.2517796146593034  0.7482204554381818  1.0000
  O   O2        1.0  0.7482203703560036  0.7482204471476418  0.2517796091855929  1.0000
  O   O3        1.0  0.7482204278911732  0.2517796283616446  0.2517796212672825  1.0000
  O   O4        1.0  0.2517796319742545  0.748220424373429  0.7482203321781457  1.0000
  O   O5        1.0  0.2517795636359505  0.7482204114144869  0.2517796399155142  1.0000
  O   O6        1.0  0.7482203888198539  0.2517796299807439  0.748220402533259  1.0000
