data_image0
_chemical_formula_structural       Y2WS6
_chemical_formula_sum              "Y2 W1 S6"
_cell_length_a       6.4194216385767415
_cell_length_b       6.419421776838435
_cell_length_c       6.419421602288844
_cell_angle_alpha    60.00000188821048
_cell_angle_beta     60.000000957163934
_cell_angle_gamma    60.00000076190444

_space_group_name_H-M_alt    "P 1"
_space_group_IT_number       1

loop_
  _space_group_symop_operation_xyz
  'x, y, z'

loop_
  _atom_site_type_symbol
  _atom_site_label
  _atom_site_symmetry_multiplicity
  _atom_site_fract_x
  _atom_site_fract_y
  _atom_site_fract_z
  _atom_site_occupancy
  Y   Y1        1.0  0.2499999117860656  0.2499999831646867  0.2500000260719132  1.0000
  Y   Y2        1.0  0.7499999874184734  0.7500000944924897  0.7499999949615717  1.0000
  W   W1        1.0  3.408606619815813e-08  0.9999999732897618  0.9999999044034942  1.0000
  S   S1        1.0  0.2567231443906285  0.2567230131149005  0.7432769461121206  1.0000
  S   S2        1.0  0.7432768854345548  0.7432769748721932  0.2567230996214931  1.0000
  S   S3        1.0  0.7432769754654831  0.2567230549431918  0.2567230481873701  1.0000
  S   S4        1.0  0.2567229995426855  0.7432769463990204  0.7432769621973729  1.0000
  S   S5        1.0  0.25672303995545853  0.7432769595322848  0.2567230909336991  1.0000
  S   S6        1.0  0.7432770136900704  0.25672300556031946  0.7432769278548499  1.0000
