data_image0
_chemical_formula_structural       Y2WSe6
_chemical_formula_sum              "Y2 W1 Se6"
_cell_length_a       6.767399791278994
_cell_length_b       6.7673997692124725
_cell_length_c       6.767399643725517
_cell_angle_alpha    60.000000373078166
_cell_angle_beta     60.00000163782307
_cell_angle_gamma    59.99999977862671

_space_group_name_H-M_alt    "P 1"
_space_group_IT_number       1

loop_
  _space_group_symop_operation_xyz
  'x, y, z'

loop_
  _atom_site_type_symbol
  _atom_site_label
  _atom_site_symmetry_multiplicity
  _atom_site_fract_x
  _atom_site_fract_y
  _atom_site_fract_z
  _atom_site_occupancy
  Y   Y1        1.0  0.25000007272391805  0.25000000191773813  0.24999999619040436  1.0000
  Y   Y2        1.0  0.7500000638830153  0.7500000437584218  0.7499999994274595  1.0000
  W   W1        1.0  3.052359757605128e-08  0.9999999800925107  1.685703282166085e-08  1.0000
  Se  Se1       1.0  0.2564700247719902  0.2564699688729179  0.7435300438349525  1.0000
  Se  Se2       1.0  0.7435299810052517  0.7435299881244289  0.25647001720698936  1.0000
  Se  Se3       1.0  0.7435300440515309  0.25646999225495376  0.2564699394691095  1.0000
  Se  Se4       1.0  0.25646992737556346  0.7435300063671436  0.7435299982440623  1.0000
  Se  Se5       1.0  0.2564699022932848  0.7435300220493477  0.25646995720613985  1.0000
  Se  Se6       1.0  0.7435299527970023  0.256469992860696  0.7435300364421512  1.0000
