data_image0
_chemical_formula_structural       Y2WTe6
_chemical_formula_sum              "Y2 W1 Te6"
_cell_length_a       7.2491959931601695
_cell_length_b       7.249196033473849
_cell_length_c       7.249196083368053
_cell_angle_alpha    59.99999991068566
_cell_angle_beta     59.99999942768712
_cell_angle_gamma    59.99999962285817

_space_group_name_H-M_alt    "P 1"
_space_group_IT_number       1

loop_
  _space_group_symop_operation_xyz
  'x, y, z'

loop_
  _atom_site_type_symbol
  _atom_site_label
  _atom_site_symmetry_multiplicity
  _atom_site_fract_x
  _atom_site_fract_y
  _atom_site_fract_z
  _atom_site_occupancy
  Y   Y1        1.0  0.24999999939625747  0.25000003179791247  0.24999999378470178  1.0000
  Y   Y2        1.0  0.7499999356169955  0.7500000632934157  0.7499999597169894  1.0000
  W   W1        1.0  2.53726711920638e-08  3.378981246213985e-08  1.3182120684781608e-08  1.0000
  Te  Te1       1.0  0.2605765912557629  0.2605765668401579  0.7394234328586644  1.0000
  Te  Te2       1.0  0.7394233849816304  0.7394233711285423  0.260576653083289  1.0000
  Te  Te3       1.0  0.7394234664723821  0.2605765273641074  0.2605765955836823  1.0000
  Te  Te4       1.0  0.2605766399301476  0.7394233785042702  0.7394233764910885  1.0000
  Te  Te5       1.0  0.2605765709333913  0.7394234349051365  0.2605765796291418  1.0000
  Te  Te6       1.0  0.7394233823909659  0.26057659091707586  0.739423395213165  1.0000
