data_image0
_chemical_formula_structural       Y2ZrN6
_chemical_formula_sum              "Y2 Zr1 N6"
_cell_length_a       5.325024303522218
_cell_length_b       5.325024211606935
_cell_length_c       5.325024079681261
_cell_angle_alpha    60.000000026800784
_cell_angle_beta     60.00000156740252
_cell_angle_gamma    59.999998497520394

_space_group_name_H-M_alt    "P 1"
_space_group_IT_number       1

loop_
  _space_group_symop_operation_xyz
  'x, y, z'

loop_
  _atom_site_type_symbol
  _atom_site_label
  _atom_site_symmetry_multiplicity
  _atom_site_fract_x
  _atom_site_fract_y
  _atom_site_fract_z
  _atom_site_occupancy
  Y   Y1        1.0  0.2500000058756908  0.2500000311382138  0.2500000085282645  1.0000
  Y   Y2        1.0  0.7499999622360616  0.749999927816088  0.7500000346715843  1.0000
  Zr  Zr1       1.0  0.9999999897065136  0.999999933300582  4.976400726888067e-08  1.0000
  N   N1        1.0  0.28345117478223386  0.28345117998954567  0.7165488063312678  1.0000
  N   N2        1.0  0.7165486827802463  0.7165489284634553  0.28345105025847184  1.0000
  N   N3        1.0  0.7165488661200188  0.2834512092566278  0.28345117372991246  1.0000
  N   N4        1.0  0.2834513053668189  0.7165486599984514  0.7165489816453258  1.0000
  N   N5        1.0  0.2834514184553725  0.716548760779184  0.28345105289988487  1.0000
  N   N6        1.0  0.7165486400281049  0.2834513108741333  0.7165488587177804  1.0000
