data_image0
_chemical_formula_structural       Y2ZrO6
_chemical_formula_sum              "Y2 Zr1 O6"
_cell_length_a       5.380230348348253
_cell_length_b       5.38023003415175
_cell_length_c       5.38023022607537
_cell_angle_alpha    60.00000033086908
_cell_angle_beta     59.9999997184221
_cell_angle_gamma    60.00000033143926

_space_group_name_H-M_alt    "P 1"
_space_group_IT_number       1

loop_
  _space_group_symop_operation_xyz
  'x, y, z'

loop_
  _atom_site_type_symbol
  _atom_site_label
  _atom_site_symmetry_multiplicity
  _atom_site_fract_x
  _atom_site_fract_y
  _atom_site_fract_z
  _atom_site_occupancy
  Y   Y1        1.0  0.24999987490645662  0.25000003018877126  0.25000007195255497  1.0000
  Y   Y2        1.0  0.7500000620887224  0.7500000017874928  0.7499999449122555  1.0000
  Zr  Zr1       1.0  1.0623107196083347e-08  0.9999999681306779  0.9999999883192286  1.0000
  O   O1        1.0  0.26519158770688883  0.265191477306764  0.7348085230807249  1.0000
  O   O2        1.0  0.7348085026647285  0.7348085774333043  0.2651914577563458  1.0000
  O   O3        1.0  0.7348085037025589  0.2651914581564604  0.2651915317801917  1.0000
  O   O4        1.0  0.2651914705590078  0.7348085328449626  0.7348085222533186  1.0000
  O   O5        1.0  0.26519148522471353  0.7348084455707617  0.2651915433312346  1.0000
  O   O6        1.0  0.7348084861542065  0.26519150900857774  0.7348084560083796  1.0000
