data_image0
_chemical_formula_structural       Y2ZrTe6
_chemical_formula_sum              "Y2 Zr1 Te6"
_cell_length_a       7.361000455256502
_cell_length_b       7.361000381811159
_cell_length_c       7.3610005289181695
_cell_angle_alpha    59.999999504548875
_cell_angle_beta     59.999999330917355
_cell_angle_gamma    60.00000050213985

_space_group_name_H-M_alt    "P 1"
_space_group_IT_number       1

loop_
  _space_group_symop_operation_xyz
  'x, y, z'

loop_
  _atom_site_type_symbol
  _atom_site_label
  _atom_site_symmetry_multiplicity
  _atom_site_fract_x
  _atom_site_fract_y
  _atom_site_fract_z
  _atom_site_occupancy
  Y   Y1        1.0  0.2499999339763255  0.2500001146702347  0.2500000155005171  1.0000
  Y   Y2        1.0  0.7500000465226146  0.7499999114150662  0.7499999598205903  1.0000
  Zr  Zr1       1.0  2.113767538167958e-08  0.9999999883531947  3.057585024080209e-08  1.0000
  Te  Te1       1.0  0.26517153184072834  0.26517154501427004  0.7348284532228728  1.0000
  Te  Te2       1.0  0.7348284487533677  0.7348284760795428  0.26517152726342236  1.0000
  Te  Te3       1.0  0.7348284886476439  0.2651715297721546  0.26517151285381446  1.0000
  Te  Te4       1.0  0.26517154493337514  0.7348284547174124  0.734828474384763  1.0000
  Te  Te5       1.0  0.2651715259058263  0.7348284365973013  0.26517154939251364  1.0000
  Te  Te6       1.0  0.734828465875621  0.26517154622843575  0.7348284731628744  1.0000
