data_image0
_chemical_formula_structural       Y2ZrS6
_chemical_formula_sum              "Y2 Zr1 S6"
_cell_length_a       6.449056628595664
_cell_length_b       6.4490566748713105
_cell_length_c       6.4490567341215685
_cell_angle_alpha    59.999999556646145
_cell_angle_beta     60.00000003014167
_cell_angle_gamma    59.999999429642756

_space_group_name_H-M_alt    "P 1"
_space_group_IT_number       1

loop_
  _space_group_symop_operation_xyz
  'x, y, z'

loop_
  _atom_site_type_symbol
  _atom_site_label
  _atom_site_symmetry_multiplicity
  _atom_site_fract_x
  _atom_site_fract_y
  _atom_site_fract_z
  _atom_site_occupancy
  Y   Y1        1.0  0.24999999778344642  0.2499999790393297  0.25000000045564397  1.0000
  Y   Y2        1.0  0.7500000560890157  0.7499999959903062  0.7499999281565203  1.0000
  Zr  Zr1       1.0  1.9496859661204603e-08  0.9999999791098225  3.636078934012581e-08  1.0000
  S   S1        1.0  0.2647002014118785  0.26470016688732556  0.7352998083224103  1.0000
  S   S2        1.0  0.7352997543991561  0.7352998176378456  0.26470023900218914  1.0000
  S   S3        1.0  0.7352998277612128  0.26470017284365743  0.26470020191269317  1.0000
  S   S4        1.0  0.264700213360559  0.7352998135806204  0.7352998049082131  1.0000
  S   S5        1.0  0.2647001426397245  0.7352998457263517  0.2647002008520276  1.0000
  S   S6        1.0  0.7352997864751994  0.26470022425863565  0.7352997845278172  1.0000
