data_image0
_chemical_formula_structural       Zn2AsO6
_chemical_formula_sum              "Zn2 As1 O6"
_cell_length_a       5.133032235923582
_cell_length_b       5.133032125434271
_cell_length_c       5.133031315468866
_cell_angle_alpha    60.000002445951644
_cell_angle_beta     60.00000369896611
_cell_angle_gamma    60.000000561939416

_space_group_name_H-M_alt    "P 1"
_space_group_IT_number       1

loop_
  _space_group_symop_operation_xyz
  'x, y, z'

loop_
  _atom_site_type_symbol
  _atom_site_label
  _atom_site_symmetry_multiplicity
  _atom_site_fract_x
  _atom_site_fract_y
  _atom_site_fract_z
  _atom_site_occupancy
  Zn  Zn1       1.0  0.25000002451408027  0.25000017133564123  0.24999992422755885  1.0000
  Zn  Zn2       1.0  0.7500000064966188  0.7499999795414478  0.7500000403194061  1.0000
  As  As1       1.0  5.8059496802812464e-08  0.9999998258215197  0.9999999801328318  1.0000
  O   O1        1.0  0.250034848356539  0.2500349311055966  0.7499651055870737  1.0000
  O   O2        1.0  0.7499653035411428  0.7499650933131422  0.25003483057491044  1.0000
  O   O3        1.0  0.7499651002341707  0.2500347884738087  0.25003495540018517  1.0000
  O   O4        1.0  0.2500346856693965  0.7499652001548365  0.7499651095717471  1.0000
  O   O5        1.0  0.25003497000434594  0.7499652784652168  0.2500345319028381  1.0000
  O   O6        1.0  0.7499651666689184  0.25003475788355967  0.7499652071933461  1.0000
