data_image0
_chemical_formula_structural       Zn2AsS6
_chemical_formula_sum              "Zn2 As1 S6"
_cell_length_a       6.585277222517662
_cell_length_b       6.585276765571803
_cell_length_c       6.58527676481433
_cell_angle_alpha    60.000002357019916
_cell_angle_beta     59.99999994976364
_cell_angle_gamma    59.99999905540379

_space_group_name_H-M_alt    "P 1"
_space_group_IT_number       1

loop_
  _space_group_symop_operation_xyz
  'x, y, z'

loop_
  _atom_site_type_symbol
  _atom_site_label
  _atom_site_symmetry_multiplicity
  _atom_site_fract_x
  _atom_site_fract_y
  _atom_site_fract_z
  _atom_site_occupancy
  Zn  Zn1       1.0  0.24999995064283081  0.24999980667707591  0.2500000146839596  1.0000
  Zn  Zn2       1.0  0.7499999461589529  0.7500002104559619  0.7499996715770907  1.0000
  As  As1       1.0  1.5355662399635323e-08  2.231787124013044e-08  0.9999998854952724  1.0000
  S   S1        1.0  0.25214044140218594  0.2521402927475812  0.7478597506473349  1.0000
  S   S2        1.0  0.7478595340559457  0.7478597987783919  0.25214042550414384  1.0000
  S   S3        1.0  0.7478596566930102  0.252140235724718  0.252140493590084  1.0000
  S   S4        1.0  0.2521403035340784  0.7478597962869221  0.7478597047486912  1.0000
  S   S5        1.0  0.25214032543283427  0.7478596763716301  0.2521403684393615  1.0000
  S   S6        1.0  0.7478598699917158  0.2521401287416085  0.7478596845257428  1.0000
