data_image0
_chemical_formula_structural       Zn2BO6
_chemical_formula_sum              "Zn2 B1 O6"
_cell_length_a       4.787851522195022
_cell_length_b       4.787851319701863
_cell_length_c       4.787851718820376
_cell_angle_alpha    59.99999992041402
_cell_angle_beta     60.000000664932074
_cell_angle_gamma    60.00000189891448

_space_group_name_H-M_alt    "P 1"
_space_group_IT_number       1

loop_
  _space_group_symop_operation_xyz
  'x, y, z'

loop_
  _atom_site_type_symbol
  _atom_site_label
  _atom_site_symmetry_multiplicity
  _atom_site_fract_x
  _atom_site_fract_y
  _atom_site_fract_z
  _atom_site_occupancy
  Zn  Zn1       1.0  0.24999995810585  0.2499999569730939  0.2500000535550377  1.0000
  Zn  Zn2       1.0  0.7500000089814379  0.7500000602132161  0.749999931850387  1.0000
  B   B1        1.0  1.0232102995262366e-08  0.999999969303686  0.9999999663710976  1.0000
  O   O1        1.0  0.23107819325657092  0.23107821028644296  0.7689217774445958  1.0000
  O   O2        1.0  0.7689217152177169  0.7689218452702563  0.23107818257560436  1.0000
  O   O3        1.0  0.7689218550283641  0.2310780942453457  0.23107821329656303  1.0000
  O   O4        1.0  0.23107817810361003  0.7689217899236099  0.7689218578106792  1.0000
  O   O5        1.0  0.23107818083090928  0.7689218211945544  0.23107817496084246  1.0000
  O   O6        1.0  0.7689218522257647  0.23107819343373212  0.7689218079795737  1.0000
