data_image0
_chemical_formula_structural       Zn2BTe6
_chemical_formula_sum              "Zn2 B1 Te6"
_cell_length_a       7.256858216224859
_cell_length_b       7.256859973675336
_cell_length_c       7.256858605459147
_cell_angle_alpha    60.00000279286608
_cell_angle_beta     59.999998230488515
_cell_angle_gamma    60.00000499603801

_space_group_name_H-M_alt    "P 1"
_space_group_IT_number       1

loop_
  _space_group_symop_operation_xyz
  'x, y, z'

loop_
  _atom_site_type_symbol
  _atom_site_label
  _atom_site_symmetry_multiplicity
  _atom_site_fract_x
  _atom_site_fract_y
  _atom_site_fract_z
  _atom_site_occupancy
  Zn  Zn1       1.0  0.250000012396053  0.2500000217375647  0.2499998975126458  1.0000
  Zn  Zn2       1.0  0.7499999805508492  0.7499999200699488  0.749999995994958  1.0000
  B   B1        1.0  0.9999999638247677  0.9999997552825772  5.648724068591852e-07  1.0000
  Te  Te1       1.0  0.22279082635917113  0.2227910451082095  0.7772089860668795  1.0000
  Te  Te2       1.0  0.7772093441854115  0.7772091515429489  0.22279065676988682  1.0000
  Te  Te3       1.0  0.7772092944250788  0.22279086452722724  0.2227907992349741  1.0000
  Te  Te4       1.0  0.2227910635845369  0.7772087076726106  0.7772092646619416  1.0000
  Te  Te5       1.0  0.22279071575373588  0.777209178258235  0.22279087178039406  1.0000
  Te  Te6       1.0  0.777208809053561  0.22279133736940385  0.7772089771549753  1.0000
