data_image0
_chemical_formula_structural       Zn2GaS6
_chemical_formula_sum              "Zn2 Ga1 S6"
_cell_length_a       6.35793847325389
_cell_length_b       6.357938095531137
_cell_length_c       6.357938666864979
_cell_angle_alpha    59.999996222947104
_cell_angle_beta     59.999998111903196
_cell_angle_gamma    60.00000023222972

_space_group_name_H-M_alt    "P 1"
_space_group_IT_number       1

loop_
  _space_group_symop_operation_xyz
  'x, y, z'

loop_
  _atom_site_type_symbol
  _atom_site_label
  _atom_site_symmetry_multiplicity
  _atom_site_fract_x
  _atom_site_fract_y
  _atom_site_fract_z
  _atom_site_occupancy
  Zn  Zn1       1.0  0.2499998982677105  0.25000002916943115  0.25000003098471485  1.0000
  Zn  Zn2       1.0  0.7500001484391609  0.7500000451291844  0.7499994201931478  1.0000
  Ga  Ga1       1.0  0.9999999034856137  7.705295824515128e-08  9.938241258529817e-08  1.0000
  S   S1        1.0  0.25956850935961256  0.2595687312873105  0.7404313328243258  1.0000
  S   S2        1.0  0.7404311834172518  0.7404313314533431  0.2595690010099061  1.0000
  S   S3        1.0  0.7404315629740709  0.25956842576347505  0.2595688142766244  1.0000
  S   S4        1.0  0.25956884410926195  0.7404312266701814  0.7404312653234765  1.0000
  S   S5        1.0  0.25956859516668085  0.7404313161396123  0.2595687950745691  1.0000
  S   S6        1.0  0.7404313656111312  0.2595688198013667  0.7404312344678947  1.0000
