data_image0
_chemical_formula_structural       Zn2IrS6
_chemical_formula_sum              "Zn2 Ir1 S6"
_cell_length_a       6.339702873416065
_cell_length_b       6.339702826254114
_cell_length_c       6.3397028547317875
_cell_angle_alpha    60.00000083229315
_cell_angle_beta     60.000001522187745
_cell_angle_gamma    60.00000024622433

_space_group_name_H-M_alt    "P 1"
_space_group_IT_number       1

loop_
  _space_group_symop_operation_xyz
  'x, y, z'

loop_
  _atom_site_type_symbol
  _atom_site_label
  _atom_site_symmetry_multiplicity
  _atom_site_fract_x
  _atom_site_fract_y
  _atom_site_fract_z
  _atom_site_occupancy
  Zn  Zn1       1.0  0.2500000360405634  0.250000108753793  0.24999982214809194  1.0000
  Zn  Zn2       1.0  0.7499999645138045  0.7500000248904751  0.7500000927380814  1.0000
  Ir  Ir1       1.0  0.9999999458731269  3.670543137290297e-08  5.129946739817199e-08  1.0000
  S   S1        1.0  0.25636667065024016  0.2563665932546392  0.743633444520584  1.0000
  S   S2        1.0  0.743633420111434  0.7436333626580682  0.2563664857352187  1.0000
  S   S3        1.0  0.7436334480529428  0.2563665322408918  0.2563665877014606  1.0000
  S   S4        1.0  0.2563665423687553  0.7436333367379009  0.7436334866668374  1.0000
  S   S5        1.0  0.2563665790049048  0.7436334189449908  0.25636650468048733  1.0000
  S   S6        1.0  0.7436334055643291  0.256366565945689  0.7436335083486562  1.0000
