data_image0
_chemical_formula_structural       Zn2IrO6
_chemical_formula_sum              "Zn2 Ir1 O6"
_cell_length_a       5.334592060883077
_cell_length_b       5.33459207025121
_cell_length_c       5.334592025281149
_cell_angle_alpha    60.000000456055496
_cell_angle_beta     60.00000064140391
_cell_angle_gamma    60.000000312591716

_space_group_name_H-M_alt    "P 1"
_space_group_IT_number       1

loop_
  _space_group_symop_operation_xyz
  'x, y, z'

loop_
  _atom_site_type_symbol
  _atom_site_label
  _atom_site_symmetry_multiplicity
  _atom_site_fract_x
  _atom_site_fract_y
  _atom_site_fract_z
  _atom_site_occupancy
  Zn  Zn1       1.0  0.249999834121837  0.2500000158414469  0.25000006628011  1.0000
  Zn  Zn2       1.0  0.7499999769502749  0.749999980944552  0.7499999685940374  1.0000
  Ir  Ir1       1.0  1.9829824552532135e-08  5.739636930665709e-08  1.5749073480434693e-08  1.0000
  O   O1        1.0  0.24697157813549186  0.24697150121867836  0.753028527932855  1.0000
  O   O2        1.0  0.7530286056561082  0.7530284358750963  0.2469714741484627  1.0000
  O   O3        1.0  0.7530284544599164  0.2469714571965853  0.2469715530800664  1.0000
  O   O4        1.0  0.24697161303476803  0.7530285625479612  0.75302841333671  1.0000
  O   O5        1.0  0.24697154289907103  0.7530284613181812  0.24697142901178964  1.0000
  O   O6        1.0  0.7530284143572586  0.24697151250926988  0.75302853862585  1.0000
