data_image0
_chemical_formula_structural       Zn2MoSe6
_chemical_formula_sum              "Zn2 Mo1 Se6"
_cell_length_a       6.913327559989443
_cell_length_b       6.913327646222608
_cell_length_c       6.913327516389327
_cell_angle_alpha    59.99999992556597
_cell_angle_beta     60.00000072901907
_cell_angle_gamma    60.00000018382988

_space_group_name_H-M_alt    "P 1"
_space_group_IT_number       1

loop_
  _space_group_symop_operation_xyz
  'x, y, z'

loop_
  _atom_site_type_symbol
  _atom_site_label
  _atom_site_symmetry_multiplicity
  _atom_site_fract_x
  _atom_site_fract_y
  _atom_site_fract_z
  _atom_site_occupancy
  Zn  Zn1       1.0  0.2499999846125623  0.2500000238889331  0.2500000246088511  1.0000
  Zn  Zn2       1.0  0.7499999863830331  0.7500000291491037  0.7499999457364352  1.0000
  Mo  Mo1       1.0  3.666162918872112e-08  0.9999999751980099  1.2874439549899443e-08  1.0000
  Se  Se1       1.0  0.24907771730339023  0.24907774279857553  0.7509222542300515  1.0000
  Se  Se2       1.0  0.7509222869467774  0.7509222305187796  0.2490777335623642  1.0000
  Se  Se3       1.0  0.7509222458391822  0.24907776060760659  0.2490777815462297  1.0000
  Se  Se4       1.0  0.2490777556436208  0.750922241054879  0.7509222831391529  1.0000
  Se  Se5       1.0  0.24907771294801256  0.750922245999457  0.249077728359636  1.0000
  Se  Se6       1.0  0.7509222793064314  0.24907774326203452  0.7509222415472774  1.0000
