data_image0
_chemical_formula_structural       Zn2MoO6
_chemical_formula_sum              "Zn2 Mo1 O6"
_cell_length_a       5.2707972143155555
_cell_length_b       5.270797454464235
_cell_length_c       5.2707974007727465
_cell_angle_alpha    59.99999906686226
_cell_angle_beta     59.9999994771499
_cell_angle_gamma    59.99999981057918

_space_group_name_H-M_alt    "P 1"
_space_group_IT_number       1

loop_
  _space_group_symop_operation_xyz
  'x, y, z'

loop_
  _atom_site_type_symbol
  _atom_site_label
  _atom_site_symmetry_multiplicity
  _atom_site_fract_x
  _atom_site_fract_y
  _atom_site_fract_z
  _atom_site_occupancy
  Zn  Zn1       1.0  0.24999990960779733  0.24999995121527496  0.2499999829624852  1.0000
  Zn  Zn2       1.0  0.7499999300839223  0.7499999070896005  0.749999836713272  1.0000
  Mo  Mo1       1.0  9.302384397880008e-10  0.9999999512035088  0.9999999878854502  1.0000
  O   O1        1.0  0.2566943840807912  0.25669451470959975  0.7433056365234121  1.0000
  O   O2        1.0  0.7433055580635688  0.7433055620176571  0.256694599477658  1.0000
  O   O3        1.0  0.7433055348286712  0.2566944725112268  0.25669446453250305  1.0000
  O   O4        1.0  0.25669452988766456  0.7433055716850375  0.7433055841546161  1.0000
  O   O5        1.0  0.25669448594102184  0.7433056217073105  0.2566944168128995  1.0000
  O   O6        1.0  0.7433056210184423  0.25669446663816203  0.7433054938157444  1.0000
