data_image0
_chemical_formula_structural       Zn2NO6
_chemical_formula_sum              "Zn2 N1 O6"
_cell_length_a       4.694161240434427
_cell_length_b       4.694161714700144
_cell_length_c       4.694162121203452
_cell_angle_alpha    60.000003921174084
_cell_angle_beta     59.999998874752855
_cell_angle_gamma    60.00000436647168

_space_group_name_H-M_alt    "P 1"
_space_group_IT_number       1

loop_
  _space_group_symop_operation_xyz
  'x, y, z'

loop_
  _atom_site_type_symbol
  _atom_site_label
  _atom_site_symmetry_multiplicity
  _atom_site_fract_x
  _atom_site_fract_y
  _atom_site_fract_z
  _atom_site_occupancy
  Zn  Zn1       1.0  0.24999912556750023  0.24999941391005553  0.24999865207344654  1.0000
  Zn  Zn2       1.0  0.749999210947553  0.7499994027714537  0.7499986275854201  1.0000
  N   N1        1.0  0.9999844916980035  0.9999892297114069  0.9999745679803905  1.0000
  O   O1        1.0  0.2426252960196522  0.24262519627731602  0.7573740574425512  1.0000
  O   O2        1.0  0.7573901703182759  0.7573903446134814  0.2426089453019546  1.0000
  O   O3        1.0  0.7573712960969806  0.2426282968275774  0.2426280580798722  1.0000
  O   O4        1.0  0.242605959779077  0.7573933806225166  0.7573931069690522  1.0000
  O   O5        1.0  0.24262961702180666  0.7573698691800638  0.24262937708173102  1.0000
  O   O6        1.0  0.7573948617149773  0.24260475349556576  0.7573945159268958  1.0000
