data_image0
_chemical_formula_structural       Zn2PS6
_chemical_formula_sum              "Zn2 P1 S6"
_cell_length_a       6.4402467387074696
_cell_length_b       6.440247007167475
_cell_length_c       6.4402457638784325
_cell_angle_alpha    60.00000109657083
_cell_angle_beta     60.000000915539786
_cell_angle_gamma    60.00000199534696

_space_group_name_H-M_alt    "P 1"
_space_group_IT_number       1

loop_
  _space_group_symop_operation_xyz
  'x, y, z'

loop_
  _atom_site_type_symbol
  _atom_site_label
  _atom_site_symmetry_multiplicity
  _atom_site_fract_x
  _atom_site_fract_y
  _atom_site_fract_z
  _atom_site_occupancy
  Zn  Zn1       1.0  0.24999994398378853  0.2499995991034984  0.2500001933508593  1.0000
  Zn  Zn2       1.0  0.7500003296776804  0.7500002140805431  0.7499999069549715  1.0000
  P   P1        1.0  1.3579022191289774e-09  2.2820454680307334e-08  4.691478006158183e-08  1.0000
  S   S1        1.0  0.23820014906370807  0.23820044189010406  0.7617997025604871  1.0000
  S   S2        1.0  0.7617995198407227  0.7617999322968523  0.23820018515929958  1.0000
  S   S3        1.0  0.7617998315053095  0.23820008439762358  0.238200503843184  1.0000
  S   S4        1.0  0.23820021417870302  0.7617998371835883  0.7617996593582641  1.0000
  S   S5        1.0  0.23820024496867914  0.7617998795016765  0.23820021936015026  1.0000
  S   S6        1.0  0.7617998250925625  0.23820001735738636  0.7617996552049039  1.0000
