data_image0
_chemical_formula_structural       Zn2PO6
_chemical_formula_sum              "Zn2 P1 O6"
_cell_length_a       4.811562926605671
_cell_length_b       4.811562578172804
_cell_length_c       4.811564147691914
_cell_angle_alpha    59.999999274725596
_cell_angle_beta     59.999999924203344
_cell_angle_gamma    60.00000424560971

_space_group_name_H-M_alt    "P 1"
_space_group_IT_number       1

loop_
  _space_group_symop_operation_xyz
  'x, y, z'

loop_
  _atom_site_type_symbol
  _atom_site_label
  _atom_site_symmetry_multiplicity
  _atom_site_fract_x
  _atom_site_fract_y
  _atom_site_fract_z
  _atom_site_occupancy
  Zn  Zn1       1.0  0.24999987488087919  0.25000005954845117  0.25000002931130455  1.0000
  Zn  Zn2       1.0  0.7499999923305662  0.7500000259201599  0.7499999222594231  1.0000
  P   P1        1.0  3.842249729709523e-08  0.9999999567278625  4.606967017386226e-08  1.0000
  O   O1        1.0  0.2471386352406505  0.24713857237676026  0.7528614019120213  1.0000
  O   O2        1.0  0.7528612033182116  0.7528615054555614  0.24713824358424763  1.0000
  O   O3        1.0  0.7528615475551609  0.24713822847310699  0.24713875502585367  1.0000
  O   O4        1.0  0.2471385276942419  0.752861686452388  0.7528614770764311  1.0000
  O   O5        1.0  0.24713853989083714  0.7528614002860177  0.24713862558835717  1.0000
  O   O6        1.0  0.7528615804482405  0.24713841536808243  0.7528615192968401  1.0000
