data_image0
_chemical_formula_structural       Zn2PSe6
_chemical_formula_sum              "Zn2 P1 Se6"
_cell_length_a       6.505319964507906
_cell_length_b       6.505320187910357
_cell_length_c       6.5053203777544315
_cell_angle_alpha    59.999999179107014
_cell_angle_beta     60.00000010170583
_cell_angle_gamma    60.00000194957521

_space_group_name_H-M_alt    "P 1"
_space_group_IT_number       1

loop_
  _space_group_symop_operation_xyz
  'x, y, z'

loop_
  _atom_site_type_symbol
  _atom_site_label
  _atom_site_symmetry_multiplicity
  _atom_site_fract_x
  _atom_site_fract_y
  _atom_site_fract_z
  _atom_site_occupancy
  Zn  Zn1       1.0  0.2500000114105776  0.2500000666589875  0.2499999348291406  1.0000
  Zn  Zn2       1.0  0.7500000009219326  0.7500000230048609  0.7499999834141304  1.0000
  P   P1        1.0  0.9999999352044919  0.9999999228100411  0.9999999111235883  1.0000
  Se  Se1       1.0  0.24942488062020882  0.24942481360887594  0.7505751899371073  1.0000
  Se  Se2       1.0  0.7505751912751435  0.7505751932169684  0.24942485830840028  1.0000
  Se  Se3       1.0  0.7505751002302627  0.249424891262817  0.24942485498628586  1.0000
  Se  Se4       1.0  0.24942476583470358  0.750575173926163  0.7505752316371674  1.0000
  Se  Se5       1.0  0.24942486292608815  0.7505751528025606  0.249424821236821  1.0000
  Se  Se6       1.0  0.7505752499575737  0.24942475235846134  0.7505752050820312  1.0000
