data_image0
_chemical_formula_structural       Zn2RhSe6
_chemical_formula_sum              "Zn2 Rh1 Se6"
_cell_length_a       6.683889104558489
_cell_length_b       6.6838889914905915
_cell_length_c       6.683889067857351
_cell_angle_alpha    59.99999871734059
_cell_angle_beta     59.999999888188896
_cell_angle_gamma    59.99999948857483

_space_group_name_H-M_alt    "P 1"
_space_group_IT_number       1

loop_
  _space_group_symop_operation_xyz
  'x, y, z'

loop_
  _atom_site_type_symbol
  _atom_site_label
  _atom_site_symmetry_multiplicity
  _atom_site_fract_x
  _atom_site_fract_y
  _atom_site_fract_z
  _atom_site_occupancy
  Zn  Zn1       1.0  0.2500000314256593  0.24999999537781406  0.24999998225057526  1.0000
  Zn  Zn2       1.0  0.7500000295358425  0.7499999989601274  0.7499999742050858  1.0000
  Rh  Rh1       1.0  2.2515668487895665e-09  0.9999999725142451  3.8051388290658045e-08  1.0000
  Se  Se1       1.0  0.2592362074776221  0.2592362635552651  0.7407638357673327  1.0000
  Se  Se2       1.0  0.7407637988986796  0.7407637546036623  0.2592362752109852  1.0000
  Se  Se3       1.0  0.7407637366404386  0.2592362662633379  0.25923618060509096  1.0000
  Se  Se4       1.0  0.25923625195398625  0.7407637482308239  0.7407637316376561  1.0000
  Se  Se5       1.0  0.2592362363434037  0.7407637837859268  0.25923620717124135  1.0000
  Se  Se6       1.0  0.740763706932535  0.2592362215463164  0.740763760738272  1.0000
