data_image0
_chemical_formula_structural       Zn2RuS6
_chemical_formula_sum              "Zn2 Ru1 S6"
_cell_length_a       6.272197825332593
_cell_length_b       6.272197978717795
_cell_length_c       6.272198081512808
_cell_angle_alpha    60.0000007301481
_cell_angle_beta     60.00000249180347
_cell_angle_gamma    60.00000197037553

_space_group_name_H-M_alt    "P 1"
_space_group_IT_number       1

loop_
  _space_group_symop_operation_xyz
  'x, y, z'

loop_
  _atom_site_type_symbol
  _atom_site_label
  _atom_site_symmetry_multiplicity
  _atom_site_fract_x
  _atom_site_fract_y
  _atom_site_fract_z
  _atom_site_occupancy
  Zn  Zn1       1.0  0.24999993703928233  0.25000005579227524  0.25000008487332825  1.0000
  Zn  Zn2       1.0  0.750000110438678  0.7499999818744544  0.7500000382770217  1.0000
  Ru  Ru1       1.0  1.7253886347475785e-07  0.9999995762735263  3.8547080272074507e-07  1.0000
  S   S1        1.0  0.26058374247805494  0.26058388597148885  0.7394161748813196  1.0000
  S   S2        1.0  0.7394162230457999  0.7394162981444827  0.26058362425771625  1.0000
  S   S3        1.0  0.7394162056509205  0.26058378286286893  0.260583729090443  1.0000
  S   S4        1.0  0.26058373471503576  0.7394162723777689  0.7394162044613535  1.0000
  S   S5        1.0  0.2605836361015569  0.7394163192886266  0.2605836789536301  1.0000
  S   S6        1.0  0.7394162144263176  0.26058384530077827  0.7394160583053462  1.0000
