data_image0
_chemical_formula_structural       Zn2RuO6
_chemical_formula_sum              "Zn2 Ru1 O6"
_cell_length_a       5.336236933489037
_cell_length_b       5.336237075395548
_cell_length_c       5.336236854510366
_cell_angle_alpha    60.00000020051364
_cell_angle_beta     59.99999990919254
_cell_angle_gamma    60.000001237800134

_space_group_name_H-M_alt    "P 1"
_space_group_IT_number       1

loop_
  _space_group_symop_operation_xyz
  'x, y, z'

loop_
  _atom_site_type_symbol
  _atom_site_label
  _atom_site_symmetry_multiplicity
  _atom_site_fract_x
  _atom_site_fract_y
  _atom_site_fract_z
  _atom_site_occupancy
  Zn  Zn1       1.0  0.24999998659032693  0.2500000215262901  0.24999979638334577  1.0000
  Zn  Zn2       1.0  0.7499999999286506  0.7499997363728391  0.7500002546564386  1.0000
  Ru  Ru1       1.0  8.591840722251768e-09  0.999999889832943  7.702332612429737e-08  1.0000
  O   O1        1.0  0.24528038567277952  0.2452805854770274  0.7547197502068231  1.0000
  O   O2        1.0  0.7547195705254217  0.7547194386591535  0.24528038151667855  1.0000
  O   O3        1.0  0.754719420952716  0.2452807897926263  0.24528021467378008  1.0000
  O   O4        1.0  0.24528067656914743  0.7547196153379635  0.7547193897855522  1.0000
  O   O5        1.0  0.24528036126383204  0.7547195704772226  0.24528067236120413  1.0000
  O   O6        1.0  0.7547195811223067  0.24528034578704883  0.7547194808507092  1.0000
