data_image0
_chemical_formula_structural       Zn2RuSe6
_chemical_formula_sum              "Zn2 Ru1 Se6"
_cell_length_a       6.709594697890466
_cell_length_b       6.709594620288662
_cell_length_c       6.709594518143935
_cell_angle_alpha    60.00000086668968
_cell_angle_beta     59.9999999274586
_cell_angle_gamma    60.00000075983611

_space_group_name_H-M_alt    "P 1"
_space_group_IT_number       1

loop_
  _space_group_symop_operation_xyz
  'x, y, z'

loop_
  _atom_site_type_symbol
  _atom_site_label
  _atom_site_symmetry_multiplicity
  _atom_site_fract_x
  _atom_site_fract_y
  _atom_site_fract_z
  _atom_site_occupancy
  Zn  Zn1       1.0  0.24999996491978313  0.2500000270815298  0.24999996277139727  1.0000
  Zn  Zn2       1.0  0.749999997131682  0.7500000374358681  0.749999890330849  1.0000
  Ru  Ru1       1.0  1.0516692624214e-08  2.007899744545654e-08  0.9999999534036913  1.0000
  Se  Se1       1.0  0.2584500244685148  0.25845003620405177  0.741550000075392  1.0000
  Se  Se2       1.0  0.7415500024250535  0.7415499370451769  0.258450085329132  1.0000
  Se  Se3       1.0  0.7415499666914721  0.2584500080307989  0.2584500553272491  1.0000
  Se  Se4       1.0  0.25845004775564634  0.7415499560916124  0.7415500125462509  1.0000
  Se  Se5       1.0  0.2584500217699225  0.7415499706065709  0.2584500408933333  1.0000
  Se  Se6       1.0  0.7415499607781151  0.2584500117694742  0.7415499965428151  1.0000
