data_image0
_chemical_formula_structural       Zn2RhO6
_chemical_formula_sum              "Zn2 Rh1 O6"
_cell_length_a       5.279398736889139
_cell_length_b       5.279398391774481
_cell_length_c       5.2793987508607945
_cell_angle_alpha    59.999997785044364
_cell_angle_beta     59.99999931061142
_cell_angle_gamma    59.99999931119269

_space_group_name_H-M_alt    "P 1"
_space_group_IT_number       1

loop_
  _space_group_symop_operation_xyz
  'x, y, z'

loop_
  _atom_site_type_symbol
  _atom_site_label
  _atom_site_symmetry_multiplicity
  _atom_site_fract_x
  _atom_site_fract_y
  _atom_site_fract_z
  _atom_site_occupancy
  Zn  Zn1       1.0  0.25000017724778284  0.25000019945614393  0.24999979818354653  1.0000
  Zn  Zn2       1.0  0.7500002164939086  0.7499997724993531  0.7500001621020292  1.0000
  Rh  Rh1       1.0  2.8543275742268075e-08  3.2477997813541136e-08  0.9999999808542936  1.0000
  O   O1        1.0  0.25355964587966023  0.25355976151835646  0.7464402874751171  1.0000
  O   O2        1.0  0.7464402662156971  0.746440349628548  0.2535596432574848  1.0000
  O   O3        1.0  0.746440223394415  0.2535598046803885  0.25355964496378114  1.0000
  O   O4        1.0  0.2535596640696227  0.7464401835140972  0.7464402875827968  1.0000
  O   O5        1.0  0.25355970094592956  0.7464401868372618  0.25355974778832646  1.0000
  O   O6        1.0  0.7464400983030727  0.2535597248019435  0.746440467923849  1.0000
