data_image0
_chemical_formula_structural       Zn2SbSe6
_chemical_formula_sum              "Zn2 Sb1 Se6"
_cell_length_a       6.776498962287661
_cell_length_b       6.776499131559846
_cell_length_c       6.776498899854776
_cell_angle_alpha    60.00000211052532
_cell_angle_beta     60.00000106793672
_cell_angle_gamma    59.99999100951185

_space_group_name_H-M_alt    "P 1"
_space_group_IT_number       1

loop_
  _space_group_symop_operation_xyz
  'x, y, z'

loop_
  _atom_site_type_symbol
  _atom_site_label
  _atom_site_symmetry_multiplicity
  _atom_site_fract_x
  _atom_site_fract_y
  _atom_site_fract_z
  _atom_site_occupancy
  Zn  Zn1       1.0  0.24999996526901427  0.24999997344915217  0.2500001077284997  1.0000
  Zn  Zn2       1.0  0.7500000568433703  0.7499998155216214  0.7500000442132454  1.0000
  Sb  Sb1       1.0  0.9999996703585272  0.9999999512018128  0.999999789308304  1.0000
  Se  Se1       1.0  0.2999111006453057  0.2999108109379395  0.7000890939259166  1.0000
  Se  Se2       1.0  0.7000891991384324  0.7000894587856705  0.2999106920849334  1.0000
  Se  Se3       1.0  0.700089059887079  0.2999107140479934  0.29991066308398184  1.0000
  Se  Se4       1.0  0.29991068641999824  0.7000891815559697  0.7000896900231955  1.0000
  Se  Se5       1.0  0.2999108883640375  0.7000892668264328  0.29991057050581704  1.0000
  Se  Se6       1.0  0.7000893626098456  0.29991082216302195  0.7000893804504379  1.0000
