data_image0
_chemical_formula_structural       Zn2SbS6
_chemical_formula_sum              "Zn2 Sb1 S6"
_cell_length_a       6.822486575548931
_cell_length_b       6.822486570813576
_cell_length_c       6.822486866765671
_cell_angle_alpha    59.99999870331093
_cell_angle_beta     59.999998676322
_cell_angle_gamma    59.99999761394682

_space_group_name_H-M_alt    "P 1"
_space_group_IT_number       1

loop_
  _space_group_symop_operation_xyz
  'x, y, z'

loop_
  _atom_site_type_symbol
  _atom_site_label
  _atom_site_symmetry_multiplicity
  _atom_site_fract_x
  _atom_site_fract_y
  _atom_site_fract_z
  _atom_site_occupancy
  Zn  Zn1       1.0  0.25000014233707707  0.24999996701150531  0.24999982213574412  1.0000
  Zn  Zn2       1.0  0.7500000562527633  0.7499999064200001  0.7500001005420097  1.0000
  Sb  Sb1       1.0  1.281824378097072e-09  2.154190930747202e-08  0.9999999622047918  1.0000
  S   S1        1.0  0.25445385363069895  0.2544539888884637  0.7455460899104346  1.0000
  S   S2        1.0  0.7455460747557439  0.7455460604686395  0.2544539121525252  1.0000
  S   S3        1.0  0.7455460555887213  0.2544539389148856  0.2544539453835762  1.0000
  S   S4        1.0  0.2544538608652241  0.7455460853099902  0.7455461074580522  1.0000
  S   S5        1.0  0.2544539027194611  0.7455461259927634  0.25445392993038946  1.0000
  S   S6        1.0  0.745546040899412  0.25445392336433953  0.7455461583237915  1.0000
