data_image0
_chemical_formula_structural       Zn2SbO6
_chemical_formula_sum              "Zn2 Sb1 O6"
_cell_length_a       5.302734366516732
_cell_length_b       5.302734704160488
_cell_length_c       5.302734459132466
_cell_angle_alpha    60.000000226482754
_cell_angle_beta     59.99999999289908
_cell_angle_gamma    60.00000066527046

_space_group_name_H-M_alt    "P 1"
_space_group_IT_number       1

loop_
  _space_group_symop_operation_xyz
  'x, y, z'

loop_
  _atom_site_type_symbol
  _atom_site_label
  _atom_site_symmetry_multiplicity
  _atom_site_fract_x
  _atom_site_fract_y
  _atom_site_fract_z
  _atom_site_occupancy
  Zn  Zn1       1.0  0.24999997507805743  0.25000002286684914  0.25000000349909346  1.0000
  Zn  Zn2       1.0  0.7500000202314648  0.7500001494382141  0.7499998942925081  1.0000
  Sb  Sb1       1.0  0.9999999783338602  3.233506662980599e-08  7.86627257748213e-09  1.0000
  O   O1        1.0  0.26266128309316195  0.2626611053498175  0.7373388233484296  1.0000
  O   O2        1.0  0.737338837816646  0.7373387228177477  0.26266126291620057  1.0000
  O   O3        1.0  0.7373388054995764  0.2626611967509008  0.262661205903839  1.0000
  O   O4        1.0  0.26266118114504333  0.7373388970261432  0.737338735484224  1.0000
  O   O5        1.0  0.2626611907214044  0.7373386902589697  0.26266121078944027  1.0000
  O   O6        1.0  0.7373387340535345  0.26266118410155115  0.7373388335253368  1.0000
