data_image0
_chemical_formula_structural       Zn2SbTe6
_chemical_formula_sum              "Zn2 Sb1 Te6"
_cell_length_a       7.497264107002832
_cell_length_b       7.497264042766466
_cell_length_c       7.4972642046141456
_cell_angle_alpha    59.99999948737146
_cell_angle_beta     59.99999940594743
_cell_angle_gamma    60.000001159707345

_space_group_name_H-M_alt    "P 1"
_space_group_IT_number       1

loop_
  _space_group_symop_operation_xyz
  'x, y, z'

loop_
  _atom_site_type_symbol
  _atom_site_label
  _atom_site_symmetry_multiplicity
  _atom_site_fract_x
  _atom_site_fract_y
  _atom_site_fract_z
  _atom_site_occupancy
  Zn  Zn1       1.0  0.24999998552214125  0.25000002011298605  0.24999999561290695  1.0000
  Zn  Zn2       1.0  0.7499999833257744  0.7500000031633407  0.7500000313908911  1.0000
  Sb  Sb1       1.0  8.16794491914948e-09  0.9999999754961639  2.6841423773562058e-08  1.0000
  Te  Te1       1.0  0.2785759191421391  0.2785759075321984  0.7214240727894322  1.0000
  Te  Te2       1.0  0.7214241339022452  0.7214240618356897  0.27857587504699693  1.0000
  Te  Te3       1.0  0.7214240608847634  0.27857594787878653  0.2785759570882649  1.0000
  Te  Te4       1.0  0.27857591004784454  0.7214240737639511  0.7214240936987396  1.0000
  Te  Te5       1.0  0.2785759158096109  0.7214241002500956  0.27857588530264393  1.0000
  Te  Te6       1.0  0.7214240866576309  0.27857590995751874  0.7214240553981146  1.0000
