data_image0
_chemical_formula_structural       Zn2TaTe6
_chemical_formula_sum              "Zn2 Ta1 Te6"
_cell_length_a       7.312941277139379
_cell_length_b       7.312941477812628
_cell_length_c       7.312941507314942
_cell_angle_alpha    60.00000014072411
_cell_angle_beta     60.00000016087727
_cell_angle_gamma    60.0000001803199

_space_group_name_H-M_alt    "P 1"
_space_group_IT_number       1

loop_
  _space_group_symop_operation_xyz
  'x, y, z'

loop_
  _atom_site_type_symbol
  _atom_site_label
  _atom_site_symmetry_multiplicity
  _atom_site_fract_x
  _atom_site_fract_y
  _atom_site_fract_z
  _atom_site_occupancy
  Zn  Zn1       1.0  0.24999999536291898  0.2499999909641853  0.2499999954510955  1.0000
  Zn  Zn2       1.0  0.7499999970294189  0.7500000063878292  0.7499999791771458  1.0000
  Ta  Ta1       1.0  0.9999999978627631  1.674763672115804e-09  1.598675413171744e-09  1.0000
  Te  Te1       1.0  0.26551764200834765  0.2655176603000271  0.7344823426032043  1.0000
  Te  Te2       1.0  0.734482372935784  0.7344823688724968  0.2655176431271723  1.0000
  Te  Te3       1.0  0.734482365158104  0.2655176184711132  0.2655176739863763  1.0000
  Te  Te4       1.0  0.26551768039424717  0.7344823236136999  0.734482339983746  1.0000
  Te  Te5       1.0  0.26551760638533994  0.7344823628058386  0.2655176929585977  1.0000
  Te  Te6       1.0  0.7344823453994967  0.2655176663666858  0.7344823339234972  1.0000
