data_image0
_chemical_formula_structural       Zn2TaSe6
_chemical_formula_sum              "Zn2 Ta1 Se6"
_cell_length_a       6.824720274055403
_cell_length_b       6.824720361511454
_cell_length_c       6.824720302259939
_cell_angle_alpha    60.000002201904735
_cell_angle_beta     60.00000180182912
_cell_angle_gamma    60.00000500048778

_space_group_name_H-M_alt    "P 1"
_space_group_IT_number       1

loop_
  _space_group_symop_operation_xyz
  'x, y, z'

loop_
  _atom_site_type_symbol
  _atom_site_label
  _atom_site_symmetry_multiplicity
  _atom_site_fract_x
  _atom_site_fract_y
  _atom_site_fract_z
  _atom_site_occupancy
  Zn  Zn1       1.0  0.25000008190430967  0.24999997696574836  0.24999992786073924  1.0000
  Zn  Zn2       1.0  0.7499999085538723  0.7500000439552358  0.7500000949083133  1.0000
  Ta  Ta1       1.0  1.850868641656729e-08  5.383714151387775e-09  0.9999999265128164  1.0000
  Se  Se1       1.0  0.2612005542533692  0.2612005581788276  0.738799514065406  1.0000
  Se  Se2       1.0  0.7387994709320598  0.7387994753041591  0.26120054953052907  1.0000
  Se  Se3       1.0  0.7387994561998857  0.261200574878703  0.261200542078321  1.0000
  Se  Se4       1.0  0.2612006070644608  0.7387993545191389  0.738799372828299  1.0000
  Se  Se5       1.0  0.2612006096628626  0.7387993745696662  0.2612006313521161  1.0000
  Se  Se6       1.0  0.7387992821673454  0.26120064276217125  0.7387994264076188  1.0000
