data_image0
_chemical_formula_structural       Zr2AsN6
_chemical_formula_sum              "Zr2 As1 N6"
_cell_length_a       4.966709933639069
_cell_length_b       4.966709493962578
_cell_length_c       4.966709859741541
_cell_angle_alpha    60.00000310216247
_cell_angle_beta     60.00000265220241
_cell_angle_gamma    60.00000311069467

_space_group_name_H-M_alt    "P 1"
_space_group_IT_number       1

loop_
  _space_group_symop_operation_xyz
  'x, y, z'

loop_
  _atom_site_type_symbol
  _atom_site_label
  _atom_site_symmetry_multiplicity
  _atom_site_fract_x
  _atom_site_fract_y
  _atom_site_fract_z
  _atom_site_occupancy
  Zr  Zr1       1.0  0.250000016252536  0.24999997766323662  0.2499999713049321  1.0000
  Zr  Zr2       1.0  0.7499999743372493  0.7499999749101486  0.7500000429154539  1.0000
  As  As1       1.0  0.9999999400688356  5.424997606282486e-08  6.324275472412779e-08  1.0000
  N   N1        1.0  0.2640144328654981  0.2640145122673844  0.7359855287522522  1.0000
  N   N2        1.0  0.7359856006519567  0.7359854649650815  0.26401445570157106  1.0000
  N   N3        1.0  0.735985431011687  0.26401453784989665  0.2640145305534269  1.0000
  N   N4        1.0  0.2640145761101176  0.7359854418484769  0.7359854719054832  1.0000
  N   N5        1.0  0.2640144790621322  0.7359854999093489  0.264014517414668  1.0000
  N   N6        1.0  0.735985592757428  0.2640144600617627  0.7359854565187794  1.0000
