data_image0
_chemical_formula_structural       Zr2BiN6
_chemical_formula_sum              "Zr2 Bi1 N6"
_cell_length_a       5.539904972010119
_cell_length_b       5.539904906977976
_cell_length_c       5.539905128238386
_cell_angle_alpha    60.00000091194372
_cell_angle_beta     60.000001175246105
_cell_angle_gamma    60.00000073332657

_space_group_name_H-M_alt    "P 1"
_space_group_IT_number       1

loop_
  _space_group_symop_operation_xyz
  'x, y, z'

loop_
  _atom_site_type_symbol
  _atom_site_label
  _atom_site_symmetry_multiplicity
  _atom_site_fract_x
  _atom_site_fract_y
  _atom_site_fract_z
  _atom_site_occupancy
  Zr  Zr1       1.0  0.2499999466271495  0.24999997997783882  0.25000010552907526  1.0000
  Zr  Zr2       1.0  0.7500000850307047  0.7500000548934878  0.7499999090918998  1.0000
  Bi  Bi1       1.0  0.9999999771770829  3.0950762275903394e-08  0.9999999923259074  1.0000
  N   N1        1.0  0.265899106878355  0.2658991057413835  0.7341008034522989  1.0000
  N   N2        1.0  0.7341008133417609  0.7341009070222532  0.2658991461701786  1.0000
  N   N3        1.0  0.7341009499139735  0.2658990478736883  0.2658992180487217  1.0000
  N   N4        1.0  0.2658990212368754  0.7341008808807389  0.734100903350309  1.0000
  N   N5        1.0  0.2658991264695585  0.7341008042239533  0.26589916178390244  1.0000
  N   N6        1.0  0.7341009167261895  0.26589920853968496  0.7341008075795881  1.0000
