data_image0
_chemical_formula_structural       Zr2SbN6
_chemical_formula_sum              "Zr2 Sb1 N6"
_cell_length_a       5.174784789535446
_cell_length_b       5.174786386849556
_cell_length_c       5.174784916008132
_cell_angle_alpha    59.9999993294841
_cell_angle_beta     59.99999703359286
_cell_angle_gamma    60.000001415738524

_space_group_name_H-M_alt    "P 1"
_space_group_IT_number       1

loop_
  _space_group_symop_operation_xyz
  'x, y, z'

loop_
  _atom_site_type_symbol
  _atom_site_label
  _atom_site_symmetry_multiplicity
  _atom_site_fract_x
  _atom_site_fract_y
  _atom_site_fract_z
  _atom_site_occupancy
  Zr  Zr1       1.0  0.24999934228715126  0.250000304959655  0.25000015751866705  1.0000
  Zr  Zr2       1.0  0.7500006674415299  0.7499994664251869  0.7499999074120789  1.0000
  Sb  Sb1       1.0  0.9999999927876001  0.9999999881662249  4.0442247946011495e-08  1.0000
  N   N1        1.0  0.27188726175480415  0.27188732134725635  0.7281127517243913  1.0000
  N   N2        1.0  0.7281130420891632  0.7281125115731675  0.2718873498825797  1.0000
  N   N3        1.0  0.7281129325852504  0.27188752955069645  0.27188714904132827  1.0000
  N   N4        1.0  0.27188681400833864  0.7281128571903174  0.7281125426691936  1.0000
  N   N5        1.0  0.2718872233699395  0.7281124487820438  0.27188751674334233  1.0000
  N   N6        1.0  0.7281126786597972  0.27188766578218054  0.7281125077450589  1.0000
