data_image0
_chemical_formula_structural       Zr2YN6
_chemical_formula_sum              "Zr2 Y1 N6"
_cell_length_a       5.174401866693643
_cell_length_b       5.174401954657536
_cell_length_c       5.174402145142035
_cell_angle_alpha    59.99999866184008
_cell_angle_beta     59.99999956154992
_cell_angle_gamma    60.00000069389871

_space_group_name_H-M_alt    "P 1"
_space_group_IT_number       1

loop_
  _space_group_symop_operation_xyz
  'x, y, z'

loop_
  _atom_site_type_symbol
  _atom_site_label
  _atom_site_symmetry_multiplicity
  _atom_site_fract_x
  _atom_site_fract_y
  _atom_site_fract_z
  _atom_site_occupancy
  Zr  Zr1       1.0  0.2499997915452225  0.2499998183948311  0.25000015045834284  1.0000
  Zr  Zr2       1.0  0.7500000532936945  0.7499999096351182  0.7500003776312654  1.0000
  Y   Y1        1.0  0.9999999501630817  0.9999999218912983  1.9732154831978212e-07  1.0000
  N   N1        1.0  0.2887489509247794  0.2887491631311498  0.7112510741269018  1.0000
  N   N2        1.0  0.7112508579111767  0.7112508536643002  0.2887487980516617  1.0000
  N   N3        1.0  0.7112511262448251  0.28874939961411816  0.28874883725186773  1.0000
  N   N4        1.0  0.2887488959121304  0.7112510550634407  0.7112508426738823  1.0000
  N   N5        1.0  0.2887492737996449  0.7112510222781553  0.2887489320132783  1.0000
  N   N6        1.0  0.7112510848595387  0.28874887143692535  0.711250792501936  1.0000
