data_image0
_chemical_formula_structural       Ag2AsI6
_chemical_formula_sum              "Ag2 As1 I6"
_cell_length_a       7.747204455944619
_cell_length_b       7.747204443468128
_cell_length_c       7.747204373796489
_cell_angle_alpha    59.999999871351484
_cell_angle_beta     60.00000110688131
_cell_angle_gamma    59.99999999878531

_space_group_name_H-M_alt    "P 1"
_space_group_IT_number       1

loop_
  _space_group_symop_operation_xyz
  'x, y, z'

loop_
  _atom_site_type_symbol
  _atom_site_label
  _atom_site_symmetry_multiplicity
  _atom_site_fract_x
  _atom_site_fract_y
  _atom_site_fract_z
  _atom_site_occupancy
  Ag  Ag1       1.0  0.24999999292611919  0.24999999437549325  0.24999999833750047  1.0000
  Ag  Ag2       1.0  0.750000004266212  0.750000027391294  0.7499999691716844  1.0000
  As  As1       1.0  3.5755858578651974e-08  2.6875065807373142e-08  0.9999999570674442  1.0000
  I   I1        1.0  0.25706671358517863  0.2570667479615265  0.7429332577605834  1.0000
  I   I2        1.0  0.7429332671525535  0.7429332247977877  0.25706675667830786  1.0000
  I   I3        1.0  0.742933259692594  0.25706671610879966  0.2570667555963262  1.0000
  I   I4        1.0  0.25706674067702256  0.7429332692976041  0.7429332775543595  1.0000
  I   I5        1.0  0.25706672108101014  0.7429332856800329  0.2570667125411443  1.0000
  I   I6        1.0  0.7429332631491197  0.2570667123734604  0.7429333120294344  1.0000
