data_image0
_chemical_formula_structural       Ag2AsF6
_chemical_formula_sum              "Ag2 As1 F6"
_cell_length_a       5.852364814582969
_cell_length_b       5.852364379508484
_cell_length_c       5.852365207907117
_cell_angle_alpha    60.0000009148566
_cell_angle_beta     59.999999238883156
_cell_angle_gamma    60.00000278084316

_space_group_name_H-M_alt    "P 1"
_space_group_IT_number       1

loop_
  _space_group_symop_operation_xyz
  'x, y, z'

loop_
  _atom_site_type_symbol
  _atom_site_label
  _atom_site_symmetry_multiplicity
  _atom_site_fract_x
  _atom_site_fract_y
  _atom_site_fract_z
  _atom_site_occupancy
  Ag  Ag1       1.0  0.2500000218317551  0.24999995032620936  0.24999999924388544  1.0000
  Ag  Ag2       1.0  0.7499999074084176  0.750000070715814  0.7500000352549294  1.0000
  As  As1       1.0  0.9999999948570473  6.278205204078954e-08  0.9999999438410792  1.0000
  F   F1        1.0  0.2287258298629818  0.22872584835553378  0.7712741785772798  1.0000
  F   F2        1.0  0.7712742617246062  0.7712742124484673  0.22872581638043302  1.0000
  F   F3        1.0  0.7712742197457658  0.22872573598837784  0.22872582528995913  1.0000
  F   F4        1.0  0.228725833300767  0.7712741385621916  0.7712742205513978  1.0000
  F   F5        1.0  0.22872573983916938  0.7712742410689402  0.2287257647274595  1.0000
  F   F6        1.0  0.7712741974334206  0.22872573811838015  0.7712742730128096  1.0000
