data_image0
_chemical_formula_structural       Ag2AsCl6
_chemical_formula_sum              "Ag2 As1 Cl6"
_cell_length_a       6.690826290243378
_cell_length_b       6.690826415206969
_cell_length_c       6.6908267281623575
_cell_angle_alpha    59.9999985869656
_cell_angle_beta     59.999997770168044
_cell_angle_gamma    59.99999777456714

_space_group_name_H-M_alt    "P 1"
_space_group_IT_number       1

loop_
  _space_group_symop_operation_xyz
  'x, y, z'

loop_
  _atom_site_type_symbol
  _atom_site_label
  _atom_site_symmetry_multiplicity
  _atom_site_fract_x
  _atom_site_fract_y
  _atom_site_fract_z
  _atom_site_occupancy
  Ag  Ag1       1.0  0.24999994082476454  0.2500000845222076  0.2499999748911697  1.0000
  Ag  Ag2       1.0  0.7500000069462073  0.7500000522134089  0.7499999211574903  1.0000
  As  As1       1.0  7.007873906326452e-09  0.9999999945085486  0.9999999319855261  1.0000
  Cl  Cl1       1.0  0.2508320906281636  0.2508321573993117  0.7491678943276447  1.0000
  Cl  Cl2       1.0  0.7491679814212125  0.74916776700019  0.2508321712948939  1.0000
  Cl  Cl3       1.0  0.7491677967137611  0.2508321176145875  0.25083217365528904  1.0000
  Cl  Cl4       1.0  0.2508321020919021  0.7491679019700711  0.7491678876536029  1.0000
  Cl  Cl5       1.0  0.25083215176552887  0.7491678626496956  0.25083216919872237  1.0000
  Cl  Cl6       1.0  0.7491679400871462  0.2508320489364198  0.7491678779830236  1.0000
