data_image0
_chemical_formula_structural       Ag2AsBr6
_chemical_formula_sum              "Ag2 As1 Br6"
_cell_length_a       7.151689817186817
_cell_length_b       7.151690098872141
_cell_length_c       7.151689761663227
_cell_angle_alpha    60.00000108099084
_cell_angle_beta     60.000000119428236
_cell_angle_gamma    60.00000011848027

_space_group_name_H-M_alt    "P 1"
_space_group_IT_number       1

loop_
  _space_group_symop_operation_xyz
  'x, y, z'

loop_
  _atom_site_type_symbol
  _atom_site_label
  _atom_site_symmetry_multiplicity
  _atom_site_fract_x
  _atom_site_fract_y
  _atom_site_fract_z
  _atom_site_occupancy
  Ag  Ag1       1.0  0.24999998694224151  0.24999996923521042  0.2500000220291392  1.0000
  Ag  Ag2       1.0  0.7500000120344401  0.750000044707636  0.7499999160517188  1.0000
  As  As1       1.0  0.9999999887147144  0.9999999708870738  5.935069244991931e-08  1.0000
  Br  Br1       1.0  0.25505591238727116  0.2550559863342283  0.7449440562103739  1.0000
  Br  Br2       1.0  0.7449440910413992  0.7449440481589187  0.2550559700448475  1.0000
  Br  Br3       1.0  0.7449440513523844  0.25505596433909755  0.25505594505852597  1.0000
  Br  Br4       1.0  0.25505599619337205  0.7449439862403208  0.7449440549520758  1.0000
  Br  Br5       1.0  0.25505595273658543  0.744944031457839  0.2550559371709001  1.0000
  Br  Br6       1.0  0.744944018400401  0.25505600303530856  0.7449440297235322  1.0000
