data_image0
_chemical_formula_structural       Ag2BI6
_chemical_formula_sum              "Ag2 B1 I6"
_cell_length_a       7.340863503645742
_cell_length_b       7.340863550611175
_cell_length_c       7.3408636162498535
_cell_angle_alpha    59.999999347461404
_cell_angle_beta     59.99999928735904
_cell_angle_gamma    60.00000069704373

_space_group_name_H-M_alt    "P 1"
_space_group_IT_number       1

loop_
  _space_group_symop_operation_xyz
  'x, y, z'

loop_
  _atom_site_type_symbol
  _atom_site_label
  _atom_site_symmetry_multiplicity
  _atom_site_fract_x
  _atom_site_fract_y
  _atom_site_fract_z
  _atom_site_occupancy
  Ag  Ag1       1.0  0.25000000417838175  0.25000000883370815  0.2499999886008937  1.0000
  Ag  Ag2       1.0  0.7499999843333568  0.749999993133255  0.7500000224700237  1.0000
  B   B1        1.0  0.9999999685732122  0.999999943274622  4.271384560129262e-08  1.0000
  I   I1        1.0  0.2377632533639751  0.23776326198247674  0.7622367377411132  1.0000
  I   I2        1.0  0.762236747175444  0.7622367416528802  0.23776325694610428  1.0000
  I   I3        1.0  0.7622367589427752  0.23776327734283245  0.23776325328309944  1.0000
  I   I4        1.0  0.23776326045599055  0.7622367546552136  0.7622367164308625  1.0000
  I   I5        1.0  0.2377632625420756  0.7622367563696058  0.23776325592047032  1.0000
  I   I6        1.0  0.762236753250023  0.2377632722916534  0.7622367186274565  1.0000
