data_image0
_chemical_formula_structural       Ag2BBr6
_chemical_formula_sum              "Ag2 B1 Br6"
_cell_length_a       6.9008959848562474
_cell_length_b       6.900896300387431
_cell_length_c       6.900896197734739
_cell_angle_alpha    59.99999946721285
_cell_angle_beta     59.99999903829794
_cell_angle_gamma    59.9999975463766

_space_group_name_H-M_alt    "P 1"
_space_group_IT_number       1

loop_
  _space_group_symop_operation_xyz
  'x, y, z'

loop_
  _atom_site_type_symbol
  _atom_site_label
  _atom_site_symmetry_multiplicity
  _atom_site_fract_x
  _atom_site_fract_y
  _atom_site_fract_z
  _atom_site_occupancy
  Ag  Ag1       1.0  0.24999998343719884  0.250000045631593  0.2500000113370309  1.0000
  Ag  Ag2       1.0  0.750000075910721  0.7499999558690479  0.7499999501446871  1.0000
  B   B1        1.0  5.411854955585344e-08  2.839619170215481e-08  0.9999999007791432  1.0000
  Br  Br1       1.0  0.23136930849485246  0.2313693035778963  0.7686307128897758  1.0000
  Br  Br2       1.0  0.7686306593485861  0.7686306411303616  0.23136934592576905  1.0000
  Br  Br3       1.0  0.7686306965199333  0.23136931465398428  0.2313693231742488  1.0000
  Br  Br4       1.0  0.2313692450732434  0.7686307489633317  0.7686306791682871  1.0000
  Br  Br5       1.0  0.23136926205572772  0.7686307020816449  0.23136937127448215  1.0000
  Br  Br6       1.0  0.7686307227899999  0.2313692869956636  0.7686306742444384  1.0000
