data_image0
_chemical_formula_structural       Ag2BiI6
_chemical_formula_sum              "Ag2 Bi1 I6"
_cell_length_a       8.048920861676663
_cell_length_b       8.04892075442307
_cell_length_c       8.048920842231622
_cell_angle_alpha    59.999999992803204
_cell_angle_beta     59.999998460875844
_cell_angle_gamma    59.999999460124364

_space_group_name_H-M_alt    "P 1"
_space_group_IT_number       1

loop_
  _space_group_symop_operation_xyz
  'x, y, z'

loop_
  _atom_site_type_symbol
  _atom_site_label
  _atom_site_symmetry_multiplicity
  _atom_site_fract_x
  _atom_site_fract_y
  _atom_site_fract_z
  _atom_site_occupancy
  Ag  Ag1       1.0  0.2499999922875472  0.25000000809359  0.2500000084616911  1.0000
  Ag  Ag2       1.0  0.749999997715362  0.7500000090645077  0.7499999865371693  1.0000
  Bi  Bi1       1.0  0.999999990897539  1.2629497664922812e-07  1.302489343942088e-07  1.0000
  I   I1        1.0  0.266959363105342  0.26695922037256314  0.7330407265517175  1.0000
  I   I2        1.0  0.7330406266091968  0.7330407115744675  0.26695935095374407  1.0000
  I   I3        1.0  0.7330407488800988  0.2669592892152724  0.2669592062387017  1.0000
  I   I4        1.0  0.26695934695283047  0.7330405696936987  0.7330406770630243  1.0000
  I   I5        1.0  0.26695934667956817  0.7330407095280098  0.2669592190401625  1.0000
  I   I6        1.0  0.7330405927492158  0.2669593517572468  0.7330406897291963  1.0000
