data_image0
_chemical_formula_structural       Ag2BiBr6
_chemical_formula_sum              "Ag2 Bi1 Br6"
_cell_length_a       7.401679525786604
_cell_length_b       7.401679415276634
_cell_length_c       7.401679625506289
_cell_angle_alpha    60.00000069901456
_cell_angle_beta     59.99999997493991
_cell_angle_gamma    60.00000009401854

_space_group_name_H-M_alt    "P 1"
_space_group_IT_number       1

loop_
  _space_group_symop_operation_xyz
  'x, y, z'

loop_
  _atom_site_type_symbol
  _atom_site_label
  _atom_site_symmetry_multiplicity
  _atom_site_fract_x
  _atom_site_fract_y
  _atom_site_fract_z
  _atom_site_occupancy
  Ag  Ag1       1.0  0.2500000762780742  0.25000001955051143  0.249999928583427  1.0000
  Ag  Ag2       1.0  0.749999985214675  0.7500000172844083  0.750000014710477  1.0000
  Bi  Bi1       1.0  4.27351271948766e-08  4.964055373939706e-08  0.9999999983966352  1.0000
  Br  Br1       1.0  0.26523205425859864  0.26523202654497174  0.7347679346099727  1.0000
  Br  Br2       1.0  0.7347679159319068  0.734767998707152  0.2652320493180929  1.0000
  Br  Br3       1.0  0.7347680403604261  0.26523194145441586  0.26523200212296943  1.0000
  Br  Br4       1.0  0.26523198689236044  0.7347679547322704  0.7347680272639858  1.0000
  Br  Br5       1.0  0.2652319327372491  0.7347680129441703  0.2652320393731563  1.0000
  Br  Br6       1.0  0.7347679631385556  0.26523198252362173  0.7347679925512909  1.0000
