data_image0
_chemical_formula_structural       Ag2BCl6
_chemical_formula_sum              "Ag2 B1 Cl6"
_cell_length_a       6.566486567566192
_cell_length_b       6.566486629040326
_cell_length_c       6.566486973204121
_cell_angle_alpha    59.999999359536254
_cell_angle_beta     59.99999939797134
_cell_angle_gamma    59.999999714235926

_space_group_name_H-M_alt    "P 1"
_space_group_IT_number       1

loop_
  _space_group_symop_operation_xyz
  'x, y, z'

loop_
  _atom_site_type_symbol
  _atom_site_label
  _atom_site_symmetry_multiplicity
  _atom_site_fract_x
  _atom_site_fract_y
  _atom_site_fract_z
  _atom_site_occupancy
  Ag  Ag1       1.0  0.2500000013293209  0.24999999538153345  0.2500000039053708  1.0000
  Ag  Ag2       1.0  0.7500000175224192  0.7500000141217733  0.7499999818229921  1.0000
  B   B1        1.0  5.116980528226494e-07  3.1707460725877095e-08  0.9999994739755689  1.0000
  Cl  Cl1       1.0  0.22227115770169642  0.22227109913373877  0.7777288844895522  1.0000
  Cl  Cl2       1.0  0.7777286231890472  0.7777288171123252  0.22227130492003488  1.0000
  Cl  Cl3       1.0  0.777728679368676  0.2222711977959314  0.2222713241259044  1.0000
  Cl  Cl4       1.0  0.22227108778943525  0.777728854605708  0.777728886307965  1.0000
  Cl  Cl5       1.0  0.222271132838628  0.7777288376907739  0.2222712881652147  1.0000
  Cl  Cl6       1.0  0.7777287658333694  0.22227114197021558  0.7777288898362686  1.0000
