data_image0
_chemical_formula_structural       Ag2BiCl6
_chemical_formula_sum              "Ag2 Bi1 Cl6"
_cell_length_a       6.9490255906011
_cell_length_b       6.949025692828779
_cell_length_c       6.949025577914447
_cell_angle_alpha    60.00000039255786
_cell_angle_beta     60.00000058831946
_cell_angle_gamma    59.99999999889241

_space_group_name_H-M_alt    "P 1"
_space_group_IT_number       1

loop_
  _space_group_symop_operation_xyz
  'x, y, z'

loop_
  _atom_site_type_symbol
  _atom_site_label
  _atom_site_symmetry_multiplicity
  _atom_site_fract_x
  _atom_site_fract_y
  _atom_site_fract_z
  _atom_site_occupancy
  Ag  Ag1       1.0  0.24999999239584658  0.2500000468789119  0.24999996538871694  1.0000
  Ag  Ag2       1.0  0.7500000137473046  0.7499999661522145  0.750000038520114  1.0000
  Bi  Bi1       1.0  2.2776723370692326e-08  0.9999999964750602  0.9999999543978413  1.0000
  Cl  Cl1       1.0  0.26048024552961624  0.26048020389133875  0.7395197619343096  1.0000
  Cl  Cl2       1.0  0.7395197229998497  0.7395197774153294  0.26048025793593416  1.0000
  Cl  Cl3       1.0  0.7395197705376978  0.2604802300623747  0.2604802453312142  1.0000
  Cl  Cl4       1.0  0.26048021380211506  0.7395197935435711  0.7395197598747238  1.0000
  Cl  Cl5       1.0  0.26048020568785685  0.7395197653760907  0.2604802561897055  1.0000
  Cl  Cl6       1.0  0.739519811902702  0.26048022826786654  0.7395197588842597  1.0000
