data_image0
_chemical_formula_structural       Ag2BiF6
_chemical_formula_sum              "Ag2 Bi1 F6"
_cell_length_a       5.908046953735195
_cell_length_b       5.908046734631276
_cell_length_c       5.908046829785971
_cell_angle_alpha    59.99999968686147
_cell_angle_beta     59.999999831406384
_cell_angle_gamma    59.99999926116815

_space_group_name_H-M_alt    "P 1"
_space_group_IT_number       1

loop_
  _space_group_symop_operation_xyz
  'x, y, z'

loop_
  _atom_site_type_symbol
  _atom_site_label
  _atom_site_symmetry_multiplicity
  _atom_site_fract_x
  _atom_site_fract_y
  _atom_site_fract_z
  _atom_site_occupancy
  Ag  Ag1       1.0  0.25000001171389713  0.24999993663337491  0.25000006779116557  1.0000
  Ag  Ag2       1.0  0.7499999917270084  0.7499999342808141  0.7500000934936165  1.0000
  Bi  Bi1       1.0  9.060924012375146e-09  3.731420691293711e-08  0.9999999683494007  1.0000
  F   F1        1.0  0.25191424172602517  0.2519143324591708  0.7480856998712959  1.0000
  F   F2        1.0  0.748085729078461  0.7480857125879832  0.25191422648235823  1.0000
  F   F3        1.0  0.7480856438933874  0.2519143873372672  0.2519142754599391  1.0000
  F   F4        1.0  0.25191425374605914  0.7480857364843237  0.7480856920967929  1.0000
  F   F5        1.0  0.25191436733460426  0.7480856900983676  0.2519142867282574  1.0000
  F   F6        1.0  0.7480857858675651  0.25191425337122353  0.748085678767853  1.0000
