data_image0
_chemical_formula_structural       Ag2BF6
_chemical_formula_sum              "Ag2 B1 F6"
_cell_length_a       5.43346047453259
_cell_length_b       5.433460514531645
_cell_length_c       5.433460313853247
_cell_angle_alpha    60.00000411593978
_cell_angle_beta     60.00000341725682
_cell_angle_gamma    60.00000185155661

_space_group_name_H-M_alt    "P 1"
_space_group_IT_number       1

loop_
  _space_group_symop_operation_xyz
  'x, y, z'

loop_
  _atom_site_type_symbol
  _atom_site_label
  _atom_site_symmetry_multiplicity
  _atom_site_fract_x
  _atom_site_fract_y
  _atom_site_fract_z
  _atom_site_occupancy
  Ag  Ag1       1.0  0.25000005912010326  0.24999996249931958  0.2499999832683009  1.0000
  Ag  Ag2       1.0  0.7499999658933455  0.7500000182345342  0.7500000821924853  1.0000
  B   B1        1.0  0.9999999864534079  7.889275767054074e-08  0.9999999286775152  1.0000
  F   F1        1.0  0.20771184528252254  0.20771188059866677  0.7922880766256215  1.0000
  F   F2        1.0  0.7922881345867869  0.792288127184129  0.2077118156784323  1.0000
  F   F3        1.0  0.7922880791511943  0.20771187451596285  0.20771185723141786  1.0000
  F   F4        1.0  0.20771193083506104  0.7922881512994662  0.7922881471909834  1.0000
  F   F5        1.0  0.20771190854979793  0.7922881623026026  0.20771183561818551  1.0000
  F   F6        1.0  0.7922880921844341  0.20771186576690548  0.7922881704627401  1.0000
