data_image0
_chemical_formula_structural       Ag2BiCl6
_chemical_formula_sum              "Ag2 Bi1 Cl6"
_cell_length_a       6.944025537058941
_cell_length_b       6.94402556455851
_cell_length_c       6.944025514879461
_cell_angle_alpha    60.00000113507388
_cell_angle_beta     59.99999985546909
_cell_angle_gamma    60.00000098499058

_space_group_name_H-M_alt    "P 1"
_space_group_IT_number       1

loop_
  _space_group_symop_operation_xyz
  'x, y, z'

loop_
  _atom_site_type_symbol
  _atom_site_label
  _atom_site_symmetry_multiplicity
  _atom_site_fract_x
  _atom_site_fract_y
  _atom_site_fract_z
  _atom_site_occupancy
  Ag  Ag1       1.0  0.2500000230294692  0.2500000129719265  0.24999999799361367  1.0000
  Ag  Ag2       1.0  0.7500000036832132  0.749999980712392  0.7499999664997455  1.0000
  Bi  Bi1       1.0  0.999999994659832  0.9999999312141798  2.842247236267464e-08  1.0000
  Cl  Cl1       1.0  0.2605717561296213  0.2605717571180235  0.7394282237888091  1.0000
  Cl  Cl2       1.0  0.7394282839522708  0.739428291242204  0.2605717714859004  1.0000
  Cl  Cl3       1.0  0.7394282735154168  0.2605717035823219  0.2605716829203821  1.0000
  Cl  Cl4       1.0  0.2605717068213646  0.7394283095031254  0.7394283411431434  1.0000
  Cl  Cl5       1.0  0.2605717535614137  0.7394282477337821  0.2605717225012655  1.0000
  Cl  Cl6       1.0  0.7394282101466771  0.2605717653516646  0.7394282609136518  1.0000
