data_image0
_chemical_formula_structural       Ag2BiBr6
_chemical_formula_sum              "Ag2 Bi1 Br6"
_cell_length_a       7.403879665923829
_cell_length_b       7.403879667641126
_cell_length_c       7.403879585949004
_cell_angle_alpha    60.00000010698041
_cell_angle_beta     59.9999992615568
_cell_angle_gamma    59.999998700210426

_space_group_name_H-M_alt    "P 1"
_space_group_IT_number       1

loop_
  _space_group_symop_operation_xyz
  'x, y, z'

loop_
  _atom_site_type_symbol
  _atom_site_label
  _atom_site_symmetry_multiplicity
  _atom_site_fract_x
  _atom_site_fract_y
  _atom_site_fract_z
  _atom_site_occupancy
  Ag  Ag1       1.0  0.249999976946486  0.2500000277474549  0.24999998118706418  1.0000
  Ag  Ag2       1.0  0.7500000039833709  0.750000036924949  0.7499999504075923  1.0000
  Bi  Bi1       1.0  0.9999999965348666  0.9999999636077457  6.31492780253997e-08  1.0000
  Br  Br1       1.0  0.2650996674254815  0.26509962774170404  0.7349003637577143  1.0000
  Br  Br2       1.0  0.7349003437204171  0.734900379033931  0.265099692430052  1.0000
  Br  Br3       1.0  0.7349004603368547  0.2650995679497056  0.26509957524822253  1.0000
  Br  Br4       1.0  0.2650996438978844  0.7349003279949715  0.7349003898630014  1.0000
  Br  Br5       1.0  0.2650996028339334  0.7349003638160757  0.26509963605381404  1.0000
  Br  Br6       1.0  0.7349003019436701  0.26509971408987615  0.7349003324027684  1.0000
