data_image0
_chemical_formula_structural       Ag2BiI6
_chemical_formula_sum              "Ag2 Bi1 I6"
_cell_length_a       8.050773076610945
_cell_length_b       8.050773114939275
_cell_length_c       8.050773304537975
_cell_angle_alpha    59.99999842400056
_cell_angle_beta     59.999998728247355
_cell_angle_gamma    60.000001273256466

_space_group_name_H-M_alt    "P 1"
_space_group_IT_number       1

loop_
  _space_group_symop_operation_xyz
  'x, y, z'

loop_
  _atom_site_type_symbol
  _atom_site_label
  _atom_site_symmetry_multiplicity
  _atom_site_fract_x
  _atom_site_fract_y
  _atom_site_fract_z
  _atom_site_occupancy
  Ag  Ag1       1.0  0.2500000243379822  0.24999999801177614  0.2499999950989805  1.0000
  Ag  Ag2       1.0  0.7499999768306607  0.7499999985991546  0.7499999988116371  1.0000
  Bi  Bi1       1.0  0.9999999962341268  0.9999999467553357  7.446358710858882e-08  1.0000
  I   I1        1.0  0.26690861864380877  0.2669086255716183  0.7330913787711663  1.0000
  I   I2        1.0  0.7330914039369973  0.7330914014648349  0.26690862275775923  1.0000
  I   I3        1.0  0.7330913432987017  0.26690865267096914  0.2669086539610555  1.0000
  I   I4        1.0  0.26690868184741784  0.7330913150357165  0.7330913250233125  1.0000
  I   I5        1.0  0.26690864802369735  0.7330913566888296  0.26690865789979423  1.0000
  I   I6        1.0  0.7330913094928106  0.26690869773059234  0.7330913016060774  1.0000
