data_image0
_chemical_formula_structural       Ag2GaI6
_chemical_formula_sum              "Ag2 Ga1 I6"
_cell_length_a       7.646053553510537
_cell_length_b       7.646053583638927
_cell_length_c       7.646053369623467
_cell_angle_alpha    59.99999952425176
_cell_angle_beta     59.99999979592506
_cell_angle_gamma    59.99999841291295

_space_group_name_H-M_alt    "P 1"
_space_group_IT_number       1

loop_
  _space_group_symop_operation_xyz
  'x, y, z'

loop_
  _atom_site_type_symbol
  _atom_site_label
  _atom_site_symmetry_multiplicity
  _atom_site_fract_x
  _atom_site_fract_y
  _atom_site_fract_z
  _atom_site_occupancy
  Ag  Ag1       1.0  0.249999973889145  0.2500000690375278  0.24999995113670523  1.0000
  Ag  Ag2       1.0  0.7500000946434288  0.7499998739381745  0.7499999858238963  1.0000
  Ga  Ga1       1.0  1.0830448648889841e-08  1.2814400218635261e-08  0.9999999737910684  1.0000
  I   I1        1.0  0.2557135390592769  0.2557136787819872  0.7442863577149538  1.0000
  I   I2        1.0  0.7442864045984596  0.7442863715143181  0.2557136272586927  1.0000
  I   I3        1.0  0.7442863517084727  0.2557136308469128  0.2557136059162931  1.0000
  I   I4        1.0  0.255713589219424  0.7442863778025913  0.7442864496366522  1.0000
  I   I5        1.0  0.25571365320148154  0.744286377313071  0.25571357129724415  1.0000
  I   I6        1.0  0.7442863736398341  0.2557136137166312  0.7442864749583132  1.0000
