data_image0
_chemical_formula_structural       Ag2GaF6
_chemical_formula_sum              "Ag2 Ga1 F6"
_cell_length_a       5.596413506208438
_cell_length_b       5.596413334975753
_cell_length_c       5.596413617944186
_cell_angle_alpha    59.99999944258189
_cell_angle_beta     59.99999940659371
_cell_angle_gamma    59.99999870386501

_space_group_name_H-M_alt    "P 1"
_space_group_IT_number       1

loop_
  _space_group_symop_operation_xyz
  'x, y, z'

loop_
  _atom_site_type_symbol
  _atom_site_label
  _atom_site_symmetry_multiplicity
  _atom_site_fract_x
  _atom_site_fract_y
  _atom_site_fract_z
  _atom_site_occupancy
  Ag  Ag1       1.0  0.2500000049562346  0.24999997529481274  0.25000000335752187  1.0000
  Ag  Ag2       1.0  0.750000023683224  0.750000004668497  0.7499999519784079  1.0000
  Ga  Ga1       1.0  2.826021654484732e-08  3.2826690753446964e-08  0.9999999390799499  1.0000
  F   F1        1.0  0.24223595011871799  0.2422358365810184  0.7577641020343386  1.0000
  F   F2        1.0  0.757764009642062  0.7577640405253265  0.2422359999226056  1.0000
  F   F3        1.0  0.7577640834918322  0.2422359272688657  0.24223585800463474  1.0000
  F   F4        1.0  0.24223591465601457  0.757764100840259  0.7577641635522564  1.0000
  F   F5        1.0  0.24223591875018488  0.7577640813229477  0.242235863858301  1.0000
  F   F6        1.0  0.757764123080686  0.24223596429374544  0.7577641235295768  1.0000
