data_image0
_chemical_formula_structural       Ag2GaCl6
_chemical_formula_sum              "Ag2 Ga1 Cl6"
_cell_length_a       6.674100115146324
_cell_length_b       6.674100140939924
_cell_length_c       6.674100289063965
_cell_angle_alpha    60.00000028719363
_cell_angle_beta     59.999998880311864
_cell_angle_gamma    60.000000683350834

_space_group_name_H-M_alt    "P 1"
_space_group_IT_number       1

loop_
  _space_group_symop_operation_xyz
  'x, y, z'

loop_
  _atom_site_type_symbol
  _atom_site_label
  _atom_site_symmetry_multiplicity
  _atom_site_fract_x
  _atom_site_fract_y
  _atom_site_fract_z
  _atom_site_occupancy
  Ag  Ag1       1.0  0.25000000843289377  0.2499999720233285  0.2500000075390741  1.0000
  Ag  Ag2       1.0  0.7499999913408627  0.7500000335145389  0.7499999793755265  1.0000
  Ga  Ga1       1.0  0.9999999449658733  1.3396019247634001e-07  0.9999998766305276  1.0000
  Cl  Cl1       1.0  0.24897797413784462  0.2489779629408295  0.7510220869777521  1.0000
  Cl  Cl2       1.0  0.751021879954828  0.7510221215050972  0.24897800524316807  1.0000
  Cl  Cl3       1.0  0.7510220537848191  0.24897796539522735  0.24897802888151774  1.0000
  Cl  Cl4       1.0  0.24897793013900577  0.7510219942658615  0.7510220083747184  1.0000
  Cl  Cl5       1.0  0.24897809788978503  0.7510218374883263  0.24897802469220678  1.0000
  Cl  Cl6       1.0  0.751022125999297  0.2489779680267881  0.7510219996209725  1.0000
