data_image0
_chemical_formula_structural       Ag2GaBr6
_chemical_formula_sum              "Ag2 Ga1 Br6"
_cell_length_a       7.033780833747238
_cell_length_b       7.033780642160957
_cell_length_c       7.033780570169054
_cell_angle_alpha    59.99999875707358
_cell_angle_beta     60.00000002740991
_cell_angle_gamma    59.9999979266645

_space_group_name_H-M_alt    "P 1"
_space_group_IT_number       1

loop_
  _space_group_symop_operation_xyz
  'x, y, z'

loop_
  _atom_site_type_symbol
  _atom_site_label
  _atom_site_symmetry_multiplicity
  _atom_site_fract_x
  _atom_site_fract_y
  _atom_site_fract_z
  _atom_site_occupancy
  Ag  Ag1       1.0  0.25000000499475533  0.24999999383508376  0.2500000372351885  1.0000
  Ag  Ag2       1.0  0.7499999630972914  0.7500000337422342  0.7500000361799023  1.0000
  Ga  Ga1       1.0  1.0231144547506446e-08  8.70616376970155e-09  0.9999999677839769  1.0000
  Br  Br1       1.0  0.25300812469489553  0.2530081546978797  0.7469918862153619  1.0000
  Br  Br2       1.0  0.7469919176697277  0.7469918519846456  0.2530081022207041  1.0000
  Br  Br3       1.0  0.7469919142670742  0.2530081036070349  0.2530080779314047  1.0000
  Br  Br4       1.0  0.2530081196076376  0.7469918891456291  0.7469919046540217  1.0000
  Br  Br5       1.0  0.25300811671213186  0.7469918469846842  0.2530080752071081  1.0000
  Br  Br6       1.0  0.7469918414646066  0.25300812661442124  0.7469919093093473  1.0000
