data_image0
_chemical_formula_structural       Ag2GaBr6
_chemical_formula_sum              "Ag2 Ga1 Br6"
_cell_length_a       7.034817141452175
_cell_length_b       7.034817041557465
_cell_length_c       7.034816864765242
_cell_angle_alpha    60.00000154469908
_cell_angle_beta     60.00000120105393
_cell_angle_gamma    59.999998977377224

_space_group_name_H-M_alt    "P 1"
_space_group_IT_number       1

loop_
  _space_group_symop_operation_xyz
  'x, y, z'

loop_
  _atom_site_type_symbol
  _atom_site_label
  _atom_site_symmetry_multiplicity
  _atom_site_fract_x
  _atom_site_fract_y
  _atom_site_fract_z
  _atom_site_occupancy
  Ag  Ag1       1.0  0.25000000815949736  0.2500000346997805  0.24999993816701196  1.0000
  Ag  Ag2       1.0  0.7499999773271834  0.7499999944178467  0.7500000279600428  1.0000
  Ga  Ga1       1.0  0.9999999979603189  2.0891714182325735e-08  4.4591025853597085e-08  1.0000
  Br  Br1       1.0  0.2531067548255551  0.2531067864190286  0.7468932241875983  1.0000
  Br  Br2       1.0  0.7468932163862945  0.7468932165839569  0.2531068019362237  1.0000
  Br  Br3       1.0  0.7468933108377067  0.25310670309559  0.2531067031971725  1.0000
  Br  Br4       1.0  0.2531067789879618  0.7468932198224904  0.7468932468021476  1.0000
  Br  Br5       1.0  0.25310671210467967  0.7468932643899919  0.2531067434313591  1.0000
  Br  Br6       1.0  0.7468932533039159  0.25310675602275495  0.7468932427731829  1.0000
