data_image0
_chemical_formula_structural       Ag2GaCl6
_chemical_formula_sum              "Ag2 Ga1 Cl6"
_cell_length_a       6.667429296596359
_cell_length_b       6.66742942954116
_cell_length_c       6.66743033788448
_cell_angle_alpha    59.999997392670295
_cell_angle_beta     59.99999393657695
_cell_angle_gamma    59.99999648999402

_space_group_name_H-M_alt    "P 1"
_space_group_IT_number       1

loop_
  _space_group_symop_operation_xyz
  'x, y, z'

loop_
  _atom_site_type_symbol
  _atom_site_label
  _atom_site_symmetry_multiplicity
  _atom_site_fract_x
  _atom_site_fract_y
  _atom_site_fract_z
  _atom_site_occupancy
  Ag  Ag1       1.0  0.2500000031708457  0.25000002670586524  0.2499999706155871  1.0000
  Ag  Ag2       1.0  0.750000020131786  0.7500000378687319  0.7500000026529778  1.0000
  Ga  Ga1       1.0  0.9999999989674808  2.3879791736668587e-08  0.9999999210840953  1.0000
  Cl  Cl1       1.0  0.24916204548079757  0.24916217438071075  0.7508378757754895  1.0000
  Cl  Cl2       1.0  0.7508377479926593  0.7508378938677036  0.24916215807676892  1.0000
  Cl  Cl3       1.0  0.7508378664542968  0.24916219619155736  0.24916236659825342  1.0000
  Cl  Cl4       1.0  0.2491621961407432  0.7508377453102598  0.7508377220520767  1.0000
  Cl  Cl5       1.0  0.24916225811089948  0.750837754850706  0.24916232555182816  1.0000
  Cl  Cl6       1.0  0.7508378947866463  0.2491621131748193  0.7508376466977635  1.0000
