data_image0
_chemical_formula_structural       Ag2IrF6
_chemical_formula_sum              "Ag2 Ir1 F6"
_cell_length_a       5.8768136999715095
_cell_length_b       5.876814470017307
_cell_length_c       5.876813846149835
_cell_angle_alpha    60.00000108450282
_cell_angle_beta     59.999999569429505
_cell_angle_gamma    60.000000502966536

_space_group_name_H-M_alt    "P 1"
_space_group_IT_number       1

loop_
  _space_group_symop_operation_xyz
  'x, y, z'

loop_
  _atom_site_type_symbol
  _atom_site_label
  _atom_site_symmetry_multiplicity
  _atom_site_fract_x
  _atom_site_fract_y
  _atom_site_fract_z
  _atom_site_occupancy
  Ag  Ag1       1.0  0.25000002109647607  0.250000051194345  0.24999997650267503  1.0000
  Ag  Ag2       1.0  0.750000045469724  0.7499999889447897  0.7500000037209796  1.0000
  Ir  Ir1       1.0  0.9999999906525432  0.9999999749916602  0.9999999763394434  1.0000
  F   F1        1.0  0.2354165718614503  0.23541653332914575  0.7645834495442229  1.0000
  F   F2        1.0  0.7645834095423509  0.7645834734655369  0.23541655760241378  1.0000
  F   F3        1.0  0.7645833967754352  0.23541656779189138  0.23541660246550386  1.0000
  F   F4        1.0  0.23541656763947216  0.7645834369187624  0.7645834448464358  1.0000
  F   F5        1.0  0.23541661882336082  0.7645834126664902  0.2354165985674055  1.0000
  F   F6        1.0  0.7645833511285076  0.23541661080041928  0.764583434896323  1.0000
