data_image0
_chemical_formula_structural       Ag2IrI6
_chemical_formula_sum              "Ag2 Ir1 I6"
_cell_length_a       7.493597617071377
_cell_length_b       7.49359769465827
_cell_length_c       7.493597579780462
_cell_angle_alpha    60.00000053578393
_cell_angle_beta     60.00000086202886
_cell_angle_gamma    59.999999785203755

_space_group_name_H-M_alt    "P 1"
_space_group_IT_number       1

loop_
  _space_group_symop_operation_xyz
  'x, y, z'

loop_
  _atom_site_type_symbol
  _atom_site_label
  _atom_site_symmetry_multiplicity
  _atom_site_fract_x
  _atom_site_fract_y
  _atom_site_fract_z
  _atom_site_occupancy
  Ag  Ag1       1.0  0.24999999269593826  0.2500000081667206  0.24999999561726488  1.0000
  Ag  Ag2       1.0  0.7500000108209425  0.7500000048875013  0.749999997639704  1.0000
  Ir  Ir1       1.0  0.9999999499429056  3.922532069955207e-08  0.9999999360233158  1.0000
  I   I1        1.0  0.25218329241253373  0.25218333243630425  0.7478166929921118  1.0000
  I   I2        1.0  0.7478167044893586  0.747816677349141  0.252183309210157  1.0000
  I   I3        1.0  0.7478166806440777  0.25218332035544244  0.2521832959657871  1.0000
  I   I4        1.0  0.25218331744087896  0.7478166812580613  0.7478167337514257  1.0000
  I   I5        1.0  0.25218332300851787  0.7478166725968243  0.25218328414767466  1.0000
  I   I6        1.0  0.747816722519062  0.25218326527553375  0.7478167630601071  1.0000
