data_image0
_chemical_formula_structural       Ag2IrCl6
_chemical_formula_sum              "Ag2 Ir1 Cl6"
_cell_length_a       6.723252937998463
_cell_length_b       6.7232529705676685
_cell_length_c       6.723252841824376
_cell_angle_alpha    60.00000051109166
_cell_angle_beta     60.00000120115788
_cell_angle_gamma    60.000000610769874

_space_group_name_H-M_alt    "P 1"
_space_group_IT_number       1

loop_
  _space_group_symop_operation_xyz
  'x, y, z'

loop_
  _atom_site_type_symbol
  _atom_site_label
  _atom_site_symmetry_multiplicity
  _atom_site_fract_x
  _atom_site_fract_y
  _atom_site_fract_z
  _atom_site_occupancy
  Ag  Ag1       1.0  0.2499999860225102  0.24999998122210393  0.2500000099493671  1.0000
  Ag  Ag2       1.0  0.7499999929884592  0.750000003780933  0.7500000076157058  1.0000
  Ir  Ir1       1.0  0.9999999819055053  1.821655183485841e-08  5.88847240583598e-09  1.0000
  Cl  Cl1       1.0  0.24413274688264194  0.2441327556872756  0.7558672555105624  1.0000
  Cl  Cl2       1.0  0.7558672153524517  0.755867238424037  0.24413278522418908  1.0000
  Cl  Cl3       1.0  0.7558672024971759  0.24413278814868683  0.24413276513459123  1.0000
  Cl  Cl4       1.0  0.24413281499172454  0.7558672205358676  0.7558672020148791  1.0000
  Cl  Cl5       1.0  0.24413282144417156  0.7558672208316606  0.2441327256194525  1.0000
  Cl  Cl6       1.0  0.7558672356507894  0.24413278238792843  0.7558672155352191  1.0000
