data_image0
_chemical_formula_structural       Ag2MoCl6
_chemical_formula_sum              "Ag2 Mo1 Cl6"
_cell_length_a       6.753141145687218
_cell_length_b       6.753141099133921
_cell_length_c       6.753141136442524
_cell_angle_alpha    59.99999959518396
_cell_angle_beta     60.00000011828571
_cell_angle_gamma    59.9999989851445

_space_group_name_H-M_alt    "P 1"
_space_group_IT_number       1

loop_
  _space_group_symop_operation_xyz
  'x, y, z'

loop_
  _atom_site_type_symbol
  _atom_site_label
  _atom_site_symmetry_multiplicity
  _atom_site_fract_x
  _atom_site_fract_y
  _atom_site_fract_z
  _atom_site_occupancy
  Ag  Ag1       1.0  0.25000003985562186  0.2500000087135127  0.24999998310115557  1.0000
  Ag  Ag2       1.0  0.7499999472847014  0.7500000043774244  0.7500000300373891  1.0000
  Mo  Mo1       1.0  0.9999999994813941  2.7203893765849143e-08  0.9999999451951692  1.0000
  Cl  Cl1       1.0  0.247597744878248  0.24759777113525863  0.7524022126252601  1.0000
  Cl  Cl2       1.0  0.7524022355441053  0.7524022056838205  0.24759775685333354  1.0000
  Cl  Cl3       1.0  0.7524022825022445  0.24759773689955494  0.24759763382424504  1.0000
  Cl  Cl4       1.0  0.24759769225409162  0.7524022979544972  0.7524023953558291  1.0000
  Cl  Cl5       1.0  0.2475977925382142  0.752402226820804  0.24759764900866313  1.0000
  Cl  Cl6       1.0  0.7524022630325722  0.2475977246079734  0.7524024022079169  1.0000
