data_image0
_chemical_formula_structural       Ag2MoF6
_chemical_formula_sum              "Ag2 Mo1 F6"
_cell_length_a       5.836906670732991
_cell_length_b       5.8369057717722965
_cell_length_c       5.8369066462133405
_cell_angle_alpha    59.99999975641152
_cell_angle_beta     59.99999917351455
_cell_angle_gamma    59.9999998513468

_space_group_name_H-M_alt    "P 1"
_space_group_IT_number       1

loop_
  _space_group_symop_operation_xyz
  'x, y, z'

loop_
  _atom_site_type_symbol
  _atom_site_label
  _atom_site_symmetry_multiplicity
  _atom_site_fract_x
  _atom_site_fract_y
  _atom_site_fract_z
  _atom_site_occupancy
  Ag  Ag1       1.0  0.2499999836649924  0.2499999923297146  0.25000006823320736  1.0000
  Ag  Ag2       1.0  0.7500000509063854  0.7500000630185206  0.7499999489717893  1.0000
  Mo  Mo1       1.0  2.8374683251225968e-08  3.357244235599035e-08  0.9999999570337845  1.0000
  F   F1        1.0  0.24047483857468338  0.24047475915143635  0.7595252411464142  1.0000
  F   F2        1.0  0.7595251896230384  0.7595252500346928  0.24047483830442312  1.0000
  F   F3        1.0  0.7595252086088365  0.24047475368776078  0.24047481476837354  1.0000
  F   F4        1.0  0.2404748345374271  0.7595251631741445  0.7595251577452208  1.0000
  F   F5        1.0  0.24047472814450008  0.759525236369368  0.24047472285784724  1.0000
  F   F6        1.0  0.7595251507431865  0.24047478750468887  0.7595252251686413  1.0000
