data_image0
_chemical_formula_structural       Ag2MoI6
_chemical_formula_sum              "Ag2 Mo1 I6"
_cell_length_a       7.6871833711421145
_cell_length_b       7.687183355907214
_cell_length_c       7.687183614640506
_cell_angle_alpha    59.99999843753858
_cell_angle_beta     59.99999917537542
_cell_angle_gamma    59.99999922688538

_space_group_name_H-M_alt    "P 1"
_space_group_IT_number       1

loop_
  _space_group_symop_operation_xyz
  'x, y, z'

loop_
  _atom_site_type_symbol
  _atom_site_label
  _atom_site_symmetry_multiplicity
  _atom_site_fract_x
  _atom_site_fract_y
  _atom_site_fract_z
  _atom_site_occupancy
  Ag  Ag1       1.0  0.24999999680679447  0.24999999813242246  0.25000000895657737  1.0000
  Ag  Ag2       1.0  0.7500000043793441  0.7499999975837267  0.7500000495178192  1.0000
  Mo  Mo1       1.0  0.9999999983911367  3.18645943385416e-08  0.9999999627574031  1.0000
  I   I1        1.0  0.2535034282031137  0.2535034419834228  0.7464965456582057  1.0000
  I   I2        1.0  0.746496538601066  0.746496571258254  0.25350338985688514  1.0000
  I   I3        1.0  0.7464965074795511  0.25350349064650085  0.253503474177118  1.0000
  I   I4        1.0  0.25350345251175216  0.7464965385274724  0.7464965439363216  1.0000
  I   I5        1.0  0.2535034988754203  0.7464964952493456  0.25350347887646113  1.0000
  I   I6        1.0  0.7464965740033722  0.25350344311053435  0.7464965438106794  1.0000
