data_image0
_chemical_formula_structural       Ag2MoBr6
_chemical_formula_sum              "Ag2 Mo1 Br6"
_cell_length_a       7.148672796138739
_cell_length_b       7.148672829785885
_cell_length_c       7.148672753786453
_cell_angle_alpha    59.99999960892122
_cell_angle_beta     59.99999956233987
_cell_angle_gamma    59.9999993233642

_space_group_name_H-M_alt    "P 1"
_space_group_IT_number       1

loop_
  _space_group_symop_operation_xyz
  'x, y, z'

loop_
  _atom_site_type_symbol
  _atom_site_label
  _atom_site_symmetry_multiplicity
  _atom_site_fract_x
  _atom_site_fract_y
  _atom_site_fract_z
  _atom_site_occupancy
  Ag  Ag1       1.0  0.2499999756280278  0.2500000344256984  0.24999999840264228  1.0000
  Ag  Ag2       1.0  0.7500000332649125  0.7500000021954678  0.7500000289287139  1.0000
  Mo  Mo1       1.0  4.5146266308541775e-08  0.9999999760145287  3.1385434403796235e-08  1.0000
  Br  Br1       1.0  0.24957621662425192  0.24957623727269615  0.7504237699257287  1.0000
  Br  Br2       1.0  0.7504237248530841  0.7504237205390668  0.24957628295685574  1.0000
  Br  Br3       1.0  0.7504237828324269  0.24957622574279975  0.24957620221272508  1.0000
  Br  Br4       1.0  0.2495762601126968  0.7504237474881942  0.7504237502605172  1.0000
  Br  Br5       1.0  0.2495761984106026  0.7504238258890675  0.24957618834203138  1.0000
  Br  Br6       1.0  0.7504237659071544  0.24957623300432244  0.7504237368330583  1.0000
