data_image0
_chemical_formula_structural       Ag2NCl6
_chemical_formula_sum              "Ag2 N1 Cl6"
_cell_length_a       6.513174707336175
_cell_length_b       6.513174556108365
_cell_length_c       6.51317451587986
_cell_angle_alpha    59.999999886476076
_cell_angle_beta     60.000000610460354
_cell_angle_gamma    59.99999944579009

_space_group_name_H-M_alt    "P 1"
_space_group_IT_number       1

loop_
  _space_group_symop_operation_xyz
  'x, y, z'

loop_
  _atom_site_type_symbol
  _atom_site_label
  _atom_site_symmetry_multiplicity
  _atom_site_fract_x
  _atom_site_fract_y
  _atom_site_fract_z
  _atom_site_occupancy
  Ag  Ag1       1.0  0.24999996495389398  0.2500000093031397  0.24999997505505211  1.0000
  Ag  Ag2       1.0  0.749999975823754  0.7499999658558371  0.7499999878723433  1.0000
  N   N1        1.0  1.4861998577366532e-07  0.9999997987959619  0.9999999802315377  1.0000
  Cl  Cl1       1.0  0.23450391052567732  0.23450373956956477  0.7654961743802403  1.0000
  Cl  Cl2       1.0  0.7654962059995353  0.765496192339945  0.2345038804391164  1.0000
  Cl  Cl3       1.0  0.7654961422022858  0.23450380844318242  0.2345038539589571  1.0000
  Cl  Cl4       1.0  0.2345038217823877  0.7654962513343141  0.7654963421660439  1.0000
  Cl  Cl5       1.0  0.2345037515481461  0.7654962976512216  0.23450368817235376  1.0000
  Cl  Cl6       1.0  0.7654961113982809  0.2345039163200245  0.765496129779833  1.0000
