data_image0
_chemical_formula_structural       Ag2NCl6
_chemical_formula_sum              "Ag2 N1 Cl6"
_cell_length_a       6.513657453043836
_cell_length_b       6.513657458836219
_cell_length_c       6.513657377931204
_cell_angle_alpha    60.000000438803774
_cell_angle_beta     59.99999880386591
_cell_angle_gamma    59.999999199364716

_space_group_name_H-M_alt    "P 1"
_space_group_IT_number       1

loop_
  _space_group_symop_operation_xyz
  'x, y, z'

loop_
  _atom_site_type_symbol
  _atom_site_label
  _atom_site_symmetry_multiplicity
  _atom_site_fract_x
  _atom_site_fract_y
  _atom_site_fract_z
  _atom_site_occupancy
  Ag  Ag1       1.0  0.25000000560614066  0.2499999959416901  0.25000001641505054  1.0000
  Ag  Ag2       1.0  0.7500000196111566  0.7500000273107847  0.7499999513441371  1.0000
  N   N1        1.0  0.999999976828426  3.760544319450516e-08  9.670659472299786e-09  1.0000
  Cl  Cl1       1.0  0.23448447757210888  0.23448448613111578  0.7655155264664553  1.0000
  Cl  Cl2       1.0  0.7655154948931978  0.765515514558094  0.23448450197889775  1.0000
  Cl  Cl3       1.0  0.7655155468294613  0.23448445311145916  0.23448448444247103  1.0000
  Cl  Cl4       1.0  0.2344844787473399  0.7655154892893135  0.7655155158866366  1.0000
  Cl  Cl5       1.0  0.23448448181769932  0.7655155160398996  0.23448449039227648  1.0000
  Cl  Cl6       1.0  0.76551552495638  0.23448448276903752  0.7655154895988744  1.0000
