data_image0
_chemical_formula_structural       Ag2NF6
_chemical_formula_sum              "Ag2 N1 F6"
_cell_length_a       5.385149361803121
_cell_length_b       5.385149519209552
_cell_length_c       5.38514919308295
_cell_angle_alpha    60.000002281441915
_cell_angle_beta     60.00000044664562
_cell_angle_gamma    60.00000101931695

_space_group_name_H-M_alt    "P 1"
_space_group_IT_number       1

loop_
  _space_group_symop_operation_xyz
  'x, y, z'

loop_
  _atom_site_type_symbol
  _atom_site_label
  _atom_site_symmetry_multiplicity
  _atom_site_fract_x
  _atom_site_fract_y
  _atom_site_fract_z
  _atom_site_occupancy
  Ag  Ag1       1.0  0.2499999774435395  0.2500000254278993  0.25000012117698417  1.0000
  Ag  Ag2       1.0  0.7500000143986328  0.7499999330027621  0.7500000543139583  1.0000
  N   N1        1.0  2.7377044724180885e-08  0.9999999886284969  0.9999999418593424  1.0000
  F   F1        1.0  0.23227264259241684  0.23227264482766144  0.7677272548946394  1.0000
  F   F2        1.0  0.7677273244071525  0.7677273045057964  0.2322726404528037  1.0000
  F   F3        1.0  0.767727273685055  0.23227277572155564  0.2322726167431037  1.0000
  F   F4        1.0  0.23227258733287157  0.7677274465279671  0.7677273622634185  1.0000
  F   F5        1.0  0.23227275415844403  0.7677272707996194  0.23227263062248515  1.0000
  F   F6        1.0  0.7677274125593979  0.23227258756181665  0.7677273719072443  1.0000
