data_image0
_chemical_formula_structural       Ag2PBr6
_chemical_formula_sum              "Ag2 P1 Br6"
_cell_length_a       7.02905332698763
_cell_length_b       7.029053403916523
_cell_length_c       7.029053106893369
_cell_angle_alpha    59.99999955721887
_cell_angle_beta     59.999999269100336
_cell_angle_gamma    60.00000112762778

_space_group_name_H-M_alt    "P 1"
_space_group_IT_number       1

loop_
  _space_group_symop_operation_xyz
  'x, y, z'

loop_
  _atom_site_type_symbol
  _atom_site_label
  _atom_site_symmetry_multiplicity
  _atom_site_fract_x
  _atom_site_fract_y
  _atom_site_fract_z
  _atom_site_occupancy
  Ag  Ag1       1.0  0.2499998314069725  0.25000001556335977  0.2500002413516047  1.0000
  Ag  Ag2       1.0  0.7499998285113476  0.7500001477495055  0.7500000511265266  1.0000
  P   P1        1.0  1.816994328688061e-08  0.9999999947727889  1.3445967974201059e-08  1.0000
  Br  Br1       1.0  0.2502680397826979  0.2502679605412357  0.7497319379731375  1.0000
  Br  Br2       1.0  0.7497321000391178  0.7497319901983891  0.2502679035851819  1.0000
  Br  Br3       1.0  0.7497320908200532  0.2502679208581615  0.2502679769130695  1.0000
  Br  Br4       1.0  0.2502679998529847  0.7497319654125244  0.7497319982781133  1.0000
  Br  Br5       1.0  0.2502680715115702  0.7497319742422084  0.2502679325655951  1.0000
  Br  Br6       1.0  0.7497320255644477  0.2502680357391408  0.7497319604967633  1.0000
