data_image0
_chemical_formula_structural       Ag2PF6
_chemical_formula_sum              "Ag2 P1 F6"
_cell_length_a       5.990374713348456
_cell_length_b       5.990376541748697
_cell_length_c       5.990375286991724
_cell_angle_alpha    60.00000360267867
_cell_angle_beta     60.000000697170066
_cell_angle_gamma    60.00000635180678

_space_group_name_H-M_alt    "P 1"
_space_group_IT_number       1

loop_
  _space_group_symop_operation_xyz
  'x, y, z'

loop_
  _atom_site_type_symbol
  _atom_site_label
  _atom_site_symmetry_multiplicity
  _atom_site_fract_x
  _atom_site_fract_y
  _atom_site_fract_z
  _atom_site_occupancy
  Ag  Ag1       1.0  0.24999976281873032  0.2500002166523415  0.24999995894888566  1.0000
  Ag  Ag2       1.0  0.7500000420017595  0.7499999159741393  0.7500000974348959  1.0000
  P   P1        1.0  1.0787179835866145e-08  0.9999999734212354  0.9999999644928366  1.0000
  F   F1        1.0  0.1924775141456153  0.19247736879189206  0.8075225614863125  1.0000
  F   F2        1.0  0.8075224693598183  0.8075225920948647  0.19247746972339053  1.0000
  F   F3        1.0  0.8075226006479463  0.1924773437961258  0.19247751934982846  1.0000
  F   F4        1.0  0.19247745238782954  0.807522576200217  0.8075225559669706  1.0000
  F   F5        1.0  0.19247745573728975  0.8075225347716974  0.19247745120588042  1.0000
  F   F6        1.0  0.8075225707598331  0.19247739544724876  0.8075226189141865  1.0000
