data_image0
_chemical_formula_structural       Ag2PCl6
_chemical_formula_sum              "Ag2 P1 Cl6"
_cell_length_a       6.678239858244831
_cell_length_b       6.678239670324313
_cell_length_c       6.678239865535862
_cell_angle_alpha    59.999999000631384
_cell_angle_beta     60.00000038429235
_cell_angle_gamma    60.000000247977006

_space_group_name_H-M_alt    "P 1"
_space_group_IT_number       1

loop_
  _space_group_symop_operation_xyz
  'x, y, z'

loop_
  _atom_site_type_symbol
  _atom_site_label
  _atom_site_symmetry_multiplicity
  _atom_site_fract_x
  _atom_site_fract_y
  _atom_site_fract_z
  _atom_site_occupancy
  Ag  Ag1       1.0  0.25000001351981  0.24999999138861145  0.24999998289037623  1.0000
  Ag  Ag2       1.0  0.7500000314257529  0.7499999393210937  0.7499999841369426  1.0000
  P   P1        1.0  0.9999999743609201  1.4671469259320012e-08  4.591361989768358e-08  1.0000
  Cl  Cl1       1.0  0.2404809366836049  0.24048095003403736  0.7595190610095905  1.0000
  Cl  Cl2       1.0  0.7595190592701722  0.7595191017152917  0.24048092988983075  1.0000
  Cl  Cl3       1.0  0.7595190406433074  0.24048094996678168  0.24048094956821484  1.0000
  Cl  Cl4       1.0  0.24048093898193265  0.7595190210894642  0.7595190404277984  1.0000
  Cl  Cl5       1.0  0.24048093550074245  0.7595190716209556  0.24048096199716304  1.0000
  Cl  Cl6       1.0  0.7595190659548354  0.2404809636229704  0.7595190418910619  1.0000
