data_image0
_chemical_formula_structural       Ag2RuI6
_chemical_formula_sum              "Ag2 Ru1 I6"
_cell_length_a       7.514611107085388
_cell_length_b       7.5146111155498385
_cell_length_c       7.51461111812379
_cell_angle_alpha    60.00000004251736
_cell_angle_beta     60.00000001211466
_cell_angle_gamma    60.00000001582538

_space_group_name_H-M_alt    "P 1"
_space_group_IT_number       1

loop_
  _space_group_symop_operation_xyz
  'x, y, z'

loop_
  _atom_site_type_symbol
  _atom_site_label
  _atom_site_symmetry_multiplicity
  _atom_site_fract_x
  _atom_site_fract_y
  _atom_site_fract_z
  _atom_site_occupancy
  Ag  Ag1       1.0  0.24999999972351955  0.25000000476277207  0.2499999967673869  1.0000
  Ag  Ag2       1.0  0.7500000005367365  0.7499999963603178  0.7500000052367753  1.0000
  Ru  Ru1       1.0  1.3099770233636497e-08  1.140872622664997e-08  0.9999999850842701  1.0000
  I   I1        1.0  0.2523744806338656  0.25237449173443377  0.7476255129532762  1.0000
  I   I2        1.0  0.7476254968569154  0.7476254947202937  0.25237450510832293  1.0000
  I   I3        1.0  0.7476255122656478  0.2523744849743697  0.2523744881599441  1.0000
  I   I4        1.0  0.25237450463364713  0.7476255031101758  0.7476255053902665  1.0000
  I   I5        1.0  0.25237448983443816  0.7476255143301914  0.252374489994932  1.0000
  I   I6        1.0  0.7476255020130878  0.25237449820162455  0.7476255118419731  1.0000
