data_image0
_chemical_formula_structural       Ag2RhF6
_chemical_formula_sum              "Ag2 Rh1 F6"
_cell_length_a       5.74737022822581
_cell_length_b       5.747370377139135
_cell_length_c       5.747370470375462
_cell_angle_alpha    60.000000285198766
_cell_angle_beta     59.999999742639055
_cell_angle_gamma    60.00000078957314

_space_group_name_H-M_alt    "P 1"
_space_group_IT_number       1

loop_
  _space_group_symop_operation_xyz
  'x, y, z'

loop_
  _atom_site_type_symbol
  _atom_site_label
  _atom_site_symmetry_multiplicity
  _atom_site_fract_x
  _atom_site_fract_y
  _atom_site_fract_z
  _atom_site_occupancy
  Ag  Ag1       1.0  0.2500000219705849  0.24999998946529498  0.2499999779400095  1.0000
  Ag  Ag2       1.0  0.7500000212032967  0.7500000301938877  0.7499999966122268  1.0000
  Rh  Rh1       1.0  0.9999999706957877  0.9999999914761373  0.9999999841155148  1.0000
  F   F1        1.0  0.23984366473882757  0.23984365429120152  0.760156343969117  1.0000
  F   F2        1.0  0.7601563396738237  0.76015636110605  0.23984367297381318  1.0000
  F   F3        1.0  0.7601563287849851  0.23984365665692203  0.2398436989289173  1.0000
  F   F4        1.0  0.23984367175225996  0.7601563161210171  0.7601563238621107  1.0000
  F   F5        1.0  0.23984364963856059  0.7601563284245244  0.23984372400055382  1.0000
  F   F6        1.0  0.7601563083211916  0.23984369975852055  0.7601563045561506  1.0000
