data_image0
_chemical_formula_structural       Ag2RhI6
_chemical_formula_sum              "Ag2 Rh1 I6"
_cell_length_a       7.485276905853626
_cell_length_b       7.485276966737711
_cell_length_c       7.485276909563794
_cell_angle_alpha    59.99999978743194
_cell_angle_beta     60.00000047322776
_cell_angle_gamma    59.99999975508517

_space_group_name_H-M_alt    "P 1"
_space_group_IT_number       1

loop_
  _space_group_symop_operation_xyz
  'x, y, z'

loop_
  _atom_site_type_symbol
  _atom_site_label
  _atom_site_symmetry_multiplicity
  _atom_site_fract_x
  _atom_site_fract_y
  _atom_site_fract_z
  _atom_site_occupancy
  Ag  Ag1       1.0  0.25000000745701484  0.24999998765384399  0.24999998982820307  1.0000
  Ag  Ag2       1.0  0.7499999605562531  0.749999995685635  0.7500000321243664  1.0000
  Rh  Rh1       1.0  6.280147163119159e-09  0.9999999672758971  0.9999999744792563  1.0000
  I   I1        1.0  0.2517896739395502  0.2517896472841465  0.748210336820921  1.0000
  I   I2        1.0  0.748210338793904  0.74821036387082  0.2517896408480761  1.0000
  I   I3        1.0  0.7482103477954867  0.2517896732506398  0.2517896456361182  1.0000
  I   I4        1.0  0.2517896396008704  0.7482103722646346  0.748210379623554  1.0000
  I   I5        1.0  0.25178966483089715  0.7482103725288303  0.25178961519358484  1.0000
  I   I6        1.0  0.7482103626123484  0.2517896222640843  0.7482103820049254  1.0000
