data_image0
_chemical_formula_structural       Ag2RhCl6
_chemical_formula_sum              "Ag2 Rh1 Cl6"
_cell_length_a       6.696782087498734
_cell_length_b       6.6967821087914094
_cell_length_c       6.696782085655777
_cell_angle_alpha    59.99999978713882
_cell_angle_beta     60.00000041743883
_cell_angle_gamma    59.99999941410287

_space_group_name_H-M_alt    "P 1"
_space_group_IT_number       1

loop_
  _space_group_symop_operation_xyz
  'x, y, z'

loop_
  _atom_site_type_symbol
  _atom_site_label
  _atom_site_symmetry_multiplicity
  _atom_site_fract_x
  _atom_site_fract_y
  _atom_site_fract_z
  _atom_site_occupancy
  Ag  Ag1       1.0  0.25000001574559083  0.2500000016714979  0.24999998056980047  1.0000
  Ag  Ag2       1.0  0.7499999818194194  0.7499999995279265  0.7500000353982869  1.0000
  Rh  Rh1       1.0  2.251999690957339e-08  0.9999999945134327  0.9999999556451773  1.0000
  Cl  Cl1       1.0  0.2458637452556199  0.24586367592055722  0.7541362872249697  1.0000
  Cl  Cl2       1.0  0.7541362521360939  0.7541362740709048  0.2458637365146933  1.0000
  Cl  Cl3       1.0  0.7541362796585867  0.24586373414088505  0.24586370609358413  1.0000
  Cl  Cl4       1.0  0.2458637161642163  0.7541362981490877  0.7541363175991503  1.0000
  Cl  Cl5       1.0  0.2458636804041841  0.7541363319088668  0.24586369355884458  1.0000
  Cl  Cl6       1.0  0.7541363145131635  0.24586368757911575  0.7541362802439414  1.0000
