data_image0
_chemical_formula_structural       Ag2RuF6
_chemical_formula_sum              "Ag2 Ru1 F6"
_cell_length_a       5.867323013760757
_cell_length_b       5.867322665933301
_cell_length_c       5.8673230421225195
_cell_angle_alpha    59.99999793729198
_cell_angle_beta     59.99999910444227
_cell_angle_gamma    59.9999998211311

_space_group_name_H-M_alt    "P 1"
_space_group_IT_number       1

loop_
  _space_group_symop_operation_xyz
  'x, y, z'

loop_
  _atom_site_type_symbol
  _atom_site_label
  _atom_site_symmetry_multiplicity
  _atom_site_fract_x
  _atom_site_fract_y
  _atom_site_fract_z
  _atom_site_occupancy
  Ag  Ag1       1.0  0.24999993161655393  0.24999999326350483  0.2500000071251569  1.0000
  Ag  Ag2       1.0  0.7499999987289795  0.7499999526543198  0.7499999636822938  1.0000
  Ru  Ru1       1.0  4.689480648213758e-08  0.9999999833008015  0.9999999814934862  1.0000
  F   F1        1.0  0.23384858220963267  0.23384855388744846  0.7661514730013584  1.0000
  F   F2        1.0  0.7661514696141316  0.7661515235365758  0.2338485451580628  1.0000
  F   F3        1.0  0.766151457676301  0.23384853153509644  0.23384863699340253  1.0000
  F   F4        1.0  0.23384861218032915  0.7661513914213325  0.766151399957095  1.0000
  F   F5        1.0  0.233848541910935  0.7661514605618104  0.23384861310418026  1.0000
  F   F6        1.0  0.7661513792083706  0.23384862521181038  0.7661513724931607  1.0000
