data_image0
_chemical_formula_structural       Ag2RuBr6
_chemical_formula_sum              "Ag2 Ru1 Br6"
_cell_length_a       7.078283473575772
_cell_length_b       7.0782835462337115
_cell_length_c       7.078283627426024
_cell_angle_alpha    59.999999587244226
_cell_angle_beta     59.99999827400378
_cell_angle_gamma    59.999999009038426

_space_group_name_H-M_alt    "P 1"
_space_group_IT_number       1

loop_
  _space_group_symop_operation_xyz
  'x, y, z'

loop_
  _atom_site_type_symbol
  _atom_site_label
  _atom_site_symmetry_multiplicity
  _atom_site_fract_x
  _atom_site_fract_y
  _atom_site_fract_z
  _atom_site_occupancy
  Ag  Ag1       1.0  0.25000003984079733  0.24999997332002843  0.2499999683251552  1.0000
  Ag  Ag2       1.0  0.7499999402062559  0.7500000272377647  0.7499999706629044  1.0000
  Ru  Ru1       1.0  0.9999999870313503  2.4223991915366976e-08  0.9999999971978727  1.0000
  Br  Br1       1.0  0.24803724454130238  0.24803729013296796  0.7519627183614758  1.0000
  Br  Br2       1.0  0.751962709981256  0.7519627086945403  0.24803729924148002  1.0000
  Br  Br3       1.0  0.7519627514316908  0.24803732698760372  0.24803725877818045  1.0000
  Br  Br4       1.0  0.248037245290517  0.7519627116364623  0.7519627404310215  1.0000
  Br  Br5       1.0  0.2480373455316966  0.7519626562703967  0.24803732763762504  1.0000
  Br  Br6       1.0  0.7519627418381449  0.248037276806276  0.7519627256429277  1.0000
