data_image0
_chemical_formula_structural       Ag2RhBr6
_chemical_formula_sum              "Ag2 Rh1 Br6"
_cell_length_a       7.040231261589233
_cell_length_b       7.040231175278241
_cell_length_c       7.040231271300967
_cell_angle_alpha    59.99999945830389
_cell_angle_beta     59.99999975340683
_cell_angle_gamma    60.00000063996959

_space_group_name_H-M_alt    "P 1"
_space_group_IT_number       1

loop_
  _space_group_symop_operation_xyz
  'x, y, z'

loop_
  _atom_site_type_symbol
  _atom_site_label
  _atom_site_symmetry_multiplicity
  _atom_site_fract_x
  _atom_site_fract_y
  _atom_site_fract_z
  _atom_site_occupancy
  Ag  Ag1       1.0  0.2500000135665524  0.24999996894155685  0.2500000002905965  1.0000
  Ag  Ag2       1.0  0.7500000308075729  0.7499999955461727  0.7499999742407513  1.0000
  Rh  Rh1       1.0  0.9999999787775967  0.9999999947810878  2.6004328704335137e-08  1.0000
  Br  Br1       1.0  0.24833656100467302  0.24833655891395937  0.7516634435700709  1.0000
  Br  Br2       1.0  0.7516634344294147  0.7516634490647018  0.2483365606735795  1.0000
  Br  Br3       1.0  0.7516634264003511  0.24833657774702328  0.24833659195887148  1.0000
  Br  Br4       1.0  0.24833659973318803  0.7516633971785297  0.7516634234044626  1.0000
  Br  Br5       1.0  0.24833654336792957  0.751663451241545  0.24833656305815105  1.0000
  Br  Br6       1.0  0.7516634063069209  0.24833660544696012  0.7516634226653015  1.0000
