data_image0
_chemical_formula_structural       Ag2SbBr6
_chemical_formula_sum              "Ag2 Sb1 Br6"
_cell_length_a       7.258612866379536
_cell_length_b       7.258612974871305
_cell_length_c       7.258612792216759
_cell_angle_alpha    60.000000483906504
_cell_angle_beta     60.00000036644802
_cell_angle_gamma    59.999999913471974

_space_group_name_H-M_alt    "P 1"
_space_group_IT_number       1

loop_
  _space_group_symop_operation_xyz
  'x, y, z'

loop_
  _atom_site_type_symbol
  _atom_site_label
  _atom_site_symmetry_multiplicity
  _atom_site_fract_x
  _atom_site_fract_y
  _atom_site_fract_z
  _atom_site_occupancy
  Ag  Ag1       1.0  0.24999999678408952  0.25000002726106724  0.249999969999124  1.0000
  Ag  Ag2       1.0  0.7499999414731141  0.7499999754833799  0.7500000771356515  1.0000
  Sb  Sb1       1.0  4.70485288682435e-08  3.543327374534086e-08  0.999999918806561  1.0000
  Br  Br1       1.0  0.25598471886452795  0.25598476252242974  0.7440152446052338  1.0000
  Br  Br2       1.0  0.7440152109892947  0.7440152081633412  0.25598478005268516  1.0000
  Br  Br3       1.0  0.7440152323985862  0.2559847836120072  0.25598478045895207  1.0000
  Br  Br4       1.0  0.25598476675841664  0.7440152511911157  0.7440152477500598  1.0000
  Br  Br5       1.0  0.2559848189537029  0.7440151991781381  0.2559847669865575  1.0000
  Br  Br6       1.0  0.7440152787861056  0.25598475463464393  0.7440152083406637  1.0000
