data_image0
_chemical_formula_structural       Ag2SbBr6
_chemical_formula_sum              "Ag2 Sb1 Br6"
_cell_length_a       7.254528911456616
_cell_length_b       7.254528875309591
_cell_length_c       7.254528696502388
_cell_angle_alpha    59.999999030046666
_cell_angle_beta     59.99999873856892
_cell_angle_gamma    59.99999844614802

_space_group_name_H-M_alt    "P 1"
_space_group_IT_number       1

loop_
  _space_group_symop_operation_xyz
  'x, y, z'

loop_
  _atom_site_type_symbol
  _atom_site_label
  _atom_site_symmetry_multiplicity
  _atom_site_fract_x
  _atom_site_fract_y
  _atom_site_fract_z
  _atom_site_occupancy
  Ag  Ag1       1.0  0.2500000316016753  0.2499999975654145  0.25000001940270117  1.0000
  Ag  Ag2       1.0  0.7499999702830874  0.7499999842550035  0.7499999303283438  1.0000
  Sb  Sb1       1.0  6.816415218414162e-09  3.2076724942668745e-08  0.9999999902025745  1.0000
  Br  Br1       1.0  0.2560239081730938  0.256023926322249  0.7439761209316602  1.0000
  Br  Br2       1.0  0.743976080784993  0.74397606562766  0.2560239129049351  1.0000
  Br  Br3       1.0  0.7439761244514026  0.2560238742521991  0.25602386421792195  1.0000
  Br  Br4       1.0  0.25602391450856665  0.7439761109447152  0.7439761245605908  1.0000
  Br  Br5       1.0  0.2560238478575704  0.7439761386342088  0.25602388303413676  1.0000
  Br  Br6       1.0  0.7439761126265253  0.25602387188643616  0.7439761612678838  1.0000
