data_image0
_chemical_formula_structural       Ag2SbI6
_chemical_formula_sum              "Ag2 Sb1 I6"
_cell_length_a       7.9353071826947295
_cell_length_b       7.935307344797053
_cell_length_c       7.93530732367092
_cell_angle_alpha    59.999999810151145
_cell_angle_beta     59.99999938519254
_cell_angle_gamma    60.00000141096079

_space_group_name_H-M_alt    "P 1"
_space_group_IT_number       1

loop_
  _space_group_symop_operation_xyz
  'x, y, z'

loop_
  _atom_site_type_symbol
  _atom_site_label
  _atom_site_symmetry_multiplicity
  _atom_site_fract_x
  _atom_site_fract_y
  _atom_site_fract_z
  _atom_site_occupancy
  Ag  Ag1       1.0  0.25000000161232344  0.24999997605619412  0.2500000128784859  1.0000
  Ag  Ag2       1.0  0.7500000023074543  0.7500000099694187  0.7500000078211317  1.0000
  Sb  Sb1       1.0  6.95543556549543e-08  0.9999999135689285  2.104026445495293e-08  1.0000
  I   I1        1.0  0.26297893023574914  0.262978939926237  0.7370210436870963  1.0000
  I   I2        1.0  0.7370210845458933  0.7370210615334963  0.2629789046355687  1.0000
  I   I3        1.0  0.7370209897298327  0.26297900303888216  0.2629789983116271  1.0000
  I   I4        1.0  0.26297894557626184  0.7370210709612138  0.7370210555540724  1.0000
  I   I5        1.0  0.26297897024157285  0.7370210322774012  0.262978953472099  1.0000
  I   I6        1.0  0.7370210042953969  0.2629789938769236  0.7370209988450347  1.0000
