data_image0
_chemical_formula_structural       Ag2SbCl6
_chemical_formula_sum              "Ag2 Sb1 Cl6"
_cell_length_a       6.865827251233233
_cell_length_b       6.865827148873367
_cell_length_c       6.865827213047594
_cell_angle_alpha    59.999998933252385
_cell_angle_beta     59.99999975193555
_cell_angle_gamma    60.00000024158652

_space_group_name_H-M_alt    "P 1"
_space_group_IT_number       1

loop_
  _space_group_symop_operation_xyz
  'x, y, z'

loop_
  _atom_site_type_symbol
  _atom_site_label
  _atom_site_symmetry_multiplicity
  _atom_site_fract_x
  _atom_site_fract_y
  _atom_site_fract_z
  _atom_site_occupancy
  Ag  Ag1       1.0  0.25000002087411094  0.24999997374392144  0.25000002425351214  1.0000
  Ag  Ag2       1.0  0.750000008157347  0.7500000139907756  0.7499999938974852  1.0000
  Sb  Sb1       1.0  0.9999999716803079  4.459567849336629e-08  0.999999956906277  1.0000
  Cl  Cl1       1.0  0.25016359058361887  0.25016360429981443  0.7498364027783148  1.0000
  Cl  Cl2       1.0  0.7498364179600833  0.7498363994893271  0.2501635593297886  1.0000
  Cl  Cl3       1.0  0.7498363623858183  0.2501636031390007  0.25016363824581356  1.0000
  Cl  Cl4       1.0  0.25016363756230814  0.7498363810280418  0.7498363714703683  1.0000
  Cl  Cl5       1.0  0.25016361090664296  0.7498363363400525  0.2501636709159663  1.0000
  Cl  Cl6       1.0  0.7498363718328287  0.25016363890785387  0.7498363824503746  1.0000
