data_image0
_chemical_formula_structural       Ag2SbI6
_chemical_formula_sum              "Ag2 Sb1 I6"
_cell_length_a       7.932414706331786
_cell_length_b       7.932414713576994
_cell_length_c       7.932414417662346
_cell_angle_alpha    60.00000048285334
_cell_angle_beta     60.0000007378723
_cell_angle_gamma    59.999997418055415

_space_group_name_H-M_alt    "P 1"
_space_group_IT_number       1

loop_
  _space_group_symop_operation_xyz
  'x, y, z'

loop_
  _atom_site_type_symbol
  _atom_site_label
  _atom_site_symmetry_multiplicity
  _atom_site_fract_x
  _atom_site_fract_y
  _atom_site_fract_z
  _atom_site_occupancy
  Ag  Ag1       1.0  0.25000001777693975  0.2500000002020493  0.24999999516153798  1.0000
  Ag  Ag2       1.0  0.7499999622112015  0.7500000206778245  0.7499999743645267  1.0000
  Sb  Sb1       1.0  0.9999999537110523  8.646259396656009e-08  0.9999998349384009  1.0000
  I   I1        1.0  0.2629840666476714  0.2629840358810768  0.7370159642604279  1.0000
  I   I2        1.0  0.7370159339116523  0.7370159494873741  0.2629841009812726  1.0000
  I   I3        1.0  0.7370160065437044  0.2629839752487159  0.262984019885493  1.0000
  I   I4        1.0  0.2629839646372458  0.7370160240155097  0.737016048054906  1.0000
  I   I5        1.0  0.2629840646501832  0.737015957738621  0.26298399226220304  1.0000
  I   I6        1.0  0.7370160486444082  0.2629839427112097  0.7370160653744249  1.0000
