data_image0
_chemical_formula_structural       Ag2SbF6
_chemical_formula_sum              "Ag2 Sb1 F6"
_cell_length_a       5.945605066837238
_cell_length_b       5.945604900482044
_cell_length_c       5.945605192800434
_cell_angle_alpha    60.00000023437274
_cell_angle_beta     59.99999773789963
_cell_angle_gamma    59.99999990932864

_space_group_name_H-M_alt    "P 1"
_space_group_IT_number       1

loop_
  _space_group_symop_operation_xyz
  'x, y, z'

loop_
  _atom_site_type_symbol
  _atom_site_label
  _atom_site_symmetry_multiplicity
  _atom_site_fract_x
  _atom_site_fract_y
  _atom_site_fract_z
  _atom_site_occupancy
  Ag  Ag1       1.0  0.2499999679101533  0.2500000227995093  0.25000000077070417  1.0000
  Ag  Ag2       1.0  0.7500000278099502  0.7500000457394495  0.7499999616933923  1.0000
  Sb  Sb1       1.0  1.8242980239861452e-09  6.179750291368841e-09  4.309158386186708e-08  1.0000
  F   F1        1.0  0.23469043782800336  0.23469041869275678  0.7653095667540428  1.0000
  F   F2        1.0  0.7653096028366203  0.7653095674495493  0.23469042620952055  1.0000
  F   F3        1.0  0.7653095856778294  0.23469042357199904  0.23469038000110454  1.0000
  F   F4        1.0  0.2346903898571755  0.7653095831694686  0.76530958813408  1.0000
  F   F5        1.0  0.2346904074528138  0.7653095379473926  0.23469045087749132  1.0000
  F   F6        1.0  0.7653095777153447  0.23469040493667032  0.7653096049187424  1.0000
