data_image0
_chemical_formula_structural       Ag2SbCl6
_chemical_formula_sum              "Ag2 Sb1 Cl6"
_cell_length_a       6.858672936116519
_cell_length_b       6.858672903247575
_cell_length_c       6.858673013993249
_cell_angle_alpha    59.99999915163128
_cell_angle_beta     59.99999942823994
_cell_angle_gamma    60.00000108533946

_space_group_name_H-M_alt    "P 1"
_space_group_IT_number       1

loop_
  _space_group_symop_operation_xyz
  'x, y, z'

loop_
  _atom_site_type_symbol
  _atom_site_label
  _atom_site_symmetry_multiplicity
  _atom_site_fract_x
  _atom_site_fract_y
  _atom_site_fract_z
  _atom_site_occupancy
  Ag  Ag1       1.0  0.25000002256553294  0.2499999463246679  0.24999998878432697  1.0000
  Ag  Ag2       1.0  0.7499999893656315  0.7500000032572828  0.7499999642010482  1.0000
  Sb  Sb1       1.0  2.8553481806598154e-08  0.9999999446436765  4.5809385544377936e-07  1.0000
  Cl  Cl1       1.0  0.25045065374983844  0.2504506453889925  0.7495493736684395  1.0000
  Cl  Cl2       1.0  0.7495493449491147  0.7495494095485399  0.2504506280257691  1.0000
  Cl  Cl3       1.0  0.7495493554884527  0.2504506395501636  0.25045067096979934  1.0000
  Cl  Cl4       1.0  0.25045078672482723  0.7495492171760227  0.749549139371722  1.0000
  Cl  Cl5       1.0  0.2504506125394859  0.7495494042955291  0.25045062609202523  1.0000
  Cl  Cl6       1.0  0.7495492117808276  0.2504507899256516  0.7495491350822663  1.0000
