data_image0
_chemical_formula_structural       Ag2TaBr6
_chemical_formula_sum              "Ag2 Ta1 Br6"
_cell_length_a       7.227596892654443
_cell_length_b       7.227596921450216
_cell_length_c       7.227596932068657
_cell_angle_alpha    59.99999867302349
_cell_angle_beta     59.999999028602
_cell_angle_gamma    59.99999999552843

_space_group_name_H-M_alt    "P 1"
_space_group_IT_number       1

loop_
  _space_group_symop_operation_xyz
  'x, y, z'

loop_
  _atom_site_type_symbol
  _atom_site_label
  _atom_site_symmetry_multiplicity
  _atom_site_fract_x
  _atom_site_fract_y
  _atom_site_fract_z
  _atom_site_occupancy
  Ag  Ag1       1.0  0.24999994844369522  0.25000000685582285  0.25000001483833273  1.0000
  Ag  Ag2       1.0  0.7500000015441572  0.7499999832875993  0.7500000251723826  1.0000
  Ta  Ta1       1.0  0.9999999834422539  3.050171129892645e-08  3.453558917841599e-08  1.0000
  Br  Br1       1.0  0.24733256621151908  0.24733253995273805  0.752667428927679  1.0000
  Br  Br2       1.0  0.7526674778591415  0.7526674315507506  0.24733253600478394  1.0000
  Br  Br3       1.0  0.7526674331237264  0.24733255226799314  0.2473325371859611  1.0000
  Br  Br4       1.0  0.24733256789128452  0.7526674429590482  0.7526674706186081  1.0000
  Br  Br5       1.0  0.24733252213299745  0.752667472495469  0.24733250441815063  1.0000
  Br  Br6       1.0  0.7526674848848732  0.24733254306604777  0.7526674459430074  1.0000
