data_image0
_chemical_formula_structural       Ag2TaI6
_chemical_formula_sum              "Ag2 Ta1 I6"
_cell_length_a       7.860425840373029
_cell_length_b       7.860425638392189
_cell_length_c       7.860425803430403
_cell_angle_alpha    60.00000012365057
_cell_angle_beta     59.99999865676552
_cell_angle_gamma    60.00000067476493

_space_group_name_H-M_alt    "P 1"
_space_group_IT_number       1

loop_
  _space_group_symop_operation_xyz
  'x, y, z'

loop_
  _atom_site_type_symbol
  _atom_site_label
  _atom_site_symmetry_multiplicity
  _atom_site_fract_x
  _atom_site_fract_y
  _atom_site_fract_z
  _atom_site_occupancy
  Ag  Ag1       1.0  0.24999999797905592  0.25000000760866004  0.25000001478513784  1.0000
  Ag  Ag2       1.0  0.7500000068323518  0.7499999885474452  0.749999992709499  1.0000
  Ta  Ta1       1.0  1.141088908032735e-08  0.9999999922094241  0.9999999956454518  1.0000
  I   I1        1.0  0.24819617723823645  0.2481961539240378  0.7518038467001453  1.0000
  I   I2        1.0  0.7518038114879371  0.7518038640456797  0.24819614775273688  1.0000
  I   I3        1.0  0.7518038602596134  0.24819615736621858  0.24819612612971886  1.0000
  I   I4        1.0  0.24819615234237102  0.7518038154181579  0.7518038319066864  1.0000
  I   I5        1.0  0.2481961973552137  0.7518038265924033  0.24819622592945745  1.0000
  I   I6        1.0  0.7518037854058285  0.2481961960516603  0.7518038136956673  1.0000
