data_image0
_chemical_formula_structural       Ag2TaCl6
_chemical_formula_sum              "Ag2 Ta1 Cl6"
_cell_length_a       6.8166588800789025
_cell_length_b       6.816658921196383
_cell_length_c       6.8166591344172085
_cell_angle_alpha    59.99999970391758
_cell_angle_beta     59.99999920742867
_cell_angle_gamma    59.999999124987994

_space_group_name_H-M_alt    "P 1"
_space_group_IT_number       1

loop_
  _space_group_symop_operation_xyz
  'x, y, z'

loop_
  _atom_site_type_symbol
  _atom_site_label
  _atom_site_symmetry_multiplicity
  _atom_site_fract_x
  _atom_site_fract_y
  _atom_site_fract_z
  _atom_site_occupancy
  Ag  Ag1       1.0  0.2500001211006997  0.24999998166615925  0.24999990577928533  1.0000
  Ag  Ag2       1.0  0.7499999944842427  0.7500000096794578  0.7499999823648533  1.0000
  Ta  Ta1       1.0  0.9999999844815435  0.9999999550826553  2.728391172447497e-08  1.0000
  Cl  Cl1       1.0  0.2458898461813384  0.24588995457347163  0.7541101085029431  1.0000
  Cl  Cl2       1.0  0.7541100884074866  0.7541101122332867  0.24588987495151782  1.0000
  Cl  Cl3       1.0  0.7541101767618237  0.2458898428628499  0.24588986178825262  1.0000
  Cl  Cl4       1.0  0.24588986733717533  0.7541100478679164  0.7541102224308538  1.0000
  Cl  Cl5       1.0  0.24588980156531812  0.7541101774159854  0.2458898817835095  1.0000
  Cl  Cl6       1.0  0.7541100828717244  0.24588994329158742  0.7541101540752241  1.0000
