data_image0
_chemical_formula_structural       Ag2TaF6
_chemical_formula_sum              "Ag2 Ta1 F6"
_cell_length_a       6.010677444786926
_cell_length_b       6.010676440990698
_cell_length_c       6.010676528718833
_cell_angle_alpha    60.000002867375876
_cell_angle_beta     60.000001553814684
_cell_angle_gamma    60.0000020037033

_space_group_name_H-M_alt    "P 1"
_space_group_IT_number       1

loop_
  _space_group_symop_operation_xyz
  'x, y, z'

loop_
  _atom_site_type_symbol
  _atom_site_label
  _atom_site_symmetry_multiplicity
  _atom_site_fract_x
  _atom_site_fract_y
  _atom_site_fract_z
  _atom_site_occupancy
  Ag  Ag1       1.0  0.25000008089439407  0.25000009808665424  0.24999989621462032  1.0000
  Ag  Ag2       1.0  0.7499999823916981  0.7499999743542992  0.7500000652551577  1.0000
  Ta  Ta1       1.0  4.657210322693294e-08  0.999999975548615  1.389523254169302e-08  1.0000
  F   F1        1.0  0.22887588855792643  0.22887592907725232  0.7711240944850093  1.0000
  F   F2        1.0  0.7711241073372063  0.7711240170315249  0.22887591060773566  1.0000
  F   F3        1.0  0.7711240849306519  0.22887591779757852  0.22887596321769488  1.0000
  F   F4        1.0  0.2288759186288105  0.7711240629506695  0.7711241039084622  1.0000
  F   F5        1.0  0.2288759149136995  0.7711241024517008  0.2288759739390553  1.0000
  F   F6        1.0  0.7711240235620356  0.2288758660708521  0.7711241534699956  1.0000
