data_image0
_chemical_formula_structural       Ag2YCl6
_chemical_formula_sum              "Ag2 Y1 Cl6"
_cell_length_a       6.980852563008504
_cell_length_b       6.98085280159284
_cell_length_c       6.9808525817111935
_cell_angle_alpha    59.99999976547636
_cell_angle_beta     60.000000481828444
_cell_angle_gamma    59.99999826809352

_space_group_name_H-M_alt    "P 1"
_space_group_IT_number       1

loop_
  _space_group_symop_operation_xyz
  'x, y, z'

loop_
  _atom_site_type_symbol
  _atom_site_label
  _atom_site_symmetry_multiplicity
  _atom_site_fract_x
  _atom_site_fract_y
  _atom_site_fract_z
  _atom_site_occupancy
  Ag  Ag1       1.0  0.2499999998583884  0.24999999047820765  0.25000000480771545  1.0000
  Ag  Ag2       1.0  0.749999981646684  0.7500000152954843  0.7500000601890368  1.0000
  Y   Y1        1.0  5.304569230639671e-08  1.3860032260480846e-07  0.9999998683647469  1.0000
  Cl  Cl1       1.0  0.2602336479967756  0.26023361572850917  0.7397663808286128  1.0000
  Cl  Cl2       1.0  0.7397663215799142  0.7397663216222402  0.26023363696192575  1.0000
  Cl  Cl3       1.0  0.7397664074273204  0.2602335951469539  0.2602336023621809  1.0000
  Cl  Cl4       1.0  0.26023359337653146  0.7397663527304015  0.7397663830915554  1.0000
  Cl  Cl5       1.0  0.2602336049707195  0.7397663940373246  0.2602336289667206  1.0000
  Cl  Cl6       1.0  0.739766388815395  0.26023357489324317  0.739766448311073  1.0000
