data_image0
_chemical_formula_structural       Ag2YBr6
_chemical_formula_sum              "Ag2 Y1 Br6"
_cell_length_a       7.49269631121345
_cell_length_b       7.492696222815992
_cell_length_c       7.492696216081332
_cell_angle_alpha    59.99999953055468
_cell_angle_beta     59.999999857199285
_cell_angle_gamma    60.00000192138059

_space_group_name_H-M_alt    "P 1"
_space_group_IT_number       1

loop_
  _space_group_symop_operation_xyz
  'x, y, z'

loop_
  _atom_site_type_symbol
  _atom_site_label
  _atom_site_symmetry_multiplicity
  _atom_site_fract_x
  _atom_site_fract_y
  _atom_site_fract_z
  _atom_site_occupancy
  Ag  Ag1       1.0  0.2500000459795516  0.24999992559417974  0.25000003248765024  1.0000
  Ag  Ag2       1.0  0.7499999640398133  0.7499999794710719  0.7499999989862228  1.0000
  Y   Y1        1.0  0.9999999168900423  0.999999967308298  1.2863638194999856e-07  1.0000
  Br  Br1       1.0  0.2595720916675484  0.2595720602510491  0.7404279798696168  1.0000
  Br  Br2       1.0  0.7404279364843902  0.7404279984651905  0.25957210584894497  1.0000
  Br  Br3       1.0  0.7404278994616063  0.25957208548893235  0.2595720380644162  1.0000
  Br  Br4       1.0  0.25957214049032207  0.7404279470739487  0.7404278439588082  1.0000
  Br  Br5       1.0  0.25957209704045286  0.740427970021993  0.2595720252669702  1.0000
  Br  Br6       1.0  0.740427912447341  0.2595720707138122  0.7404278372052994  1.0000
