data_image0
_chemical_formula_structural       Ag2YI6
_chemical_formula_sum              "Ag2 Y1 I6"
_cell_length_a       8.132560865310777
_cell_length_b       8.132560403354335
_cell_length_c       8.13256108828134
_cell_angle_alpha    59.99999806300259
_cell_angle_beta     59.999997367481384
_cell_angle_gamma    60.00000163086792

_space_group_name_H-M_alt    "P 1"
_space_group_IT_number       1

loop_
  _space_group_symop_operation_xyz
  'x, y, z'

loop_
  _atom_site_type_symbol
  _atom_site_label
  _atom_site_symmetry_multiplicity
  _atom_site_fract_x
  _atom_site_fract_y
  _atom_site_fract_z
  _atom_site_occupancy
  Ag  Ag1       1.0  0.2500000272869837  0.24999996466346233  0.25000003874818627  1.0000
  Ag  Ag2       1.0  0.7500000568474682  0.7499999647713028  0.7499999949908474  1.0000
  Y   Y1        1.0  4.131577686664847e-08  1.9125908358717112e-07  1.2348943519473763e-07  1.0000
  I   I1        1.0  0.26043663120705424  0.26043649013642745  0.7395634747030055  1.0000
  I   I2        1.0  0.7395632202174556  0.73956333237396  0.2604366808978171  1.0000
  I   I3        1.0  0.7395633950217267  0.2604366765426779  0.2604365558427067  1.0000
  I   I4        1.0  0.2604366346982879  0.7395633266849537  0.7395632431857481  1.0000
  I   I5        1.0  0.26043665650893844  0.7395632436506814  0.26043675415607404  1.0000
  I   I6        1.0  0.7395633493024781  0.26043679722637547  0.7395631400608385  1.0000
