data_image0
_chemical_formula_structural       Ag2YF6
_chemical_formula_sum              "Ag2 Y1 F6"
_cell_length_a       5.816839226839285
_cell_length_b       5.816839834984113
_cell_length_c       5.816839924823009
_cell_angle_alpha    59.999997622211225
_cell_angle_beta     59.99999514208155
_cell_angle_gamma    59.999998459837954

_space_group_name_H-M_alt    "P 1"
_space_group_IT_number       1

loop_
  _space_group_symop_operation_xyz
  'x, y, z'

loop_
  _atom_site_type_symbol
  _atom_site_label
  _atom_site_symmetry_multiplicity
  _atom_site_fract_x
  _atom_site_fract_y
  _atom_site_fract_z
  _atom_site_occupancy
  Ag  Ag1       1.0  0.250000006303365  0.24999996131497743  0.250000020885068  1.0000
  Ag  Ag2       1.0  0.7499999762183525  0.7500000060648567  0.7499999971539142  1.0000
  Y   Y1        1.0  0.9999999687991676  4.0004803053855096e-08  0.9999999870022818  1.0000
  F   F1        1.0  0.2613443884763063  0.2613443583195994  0.7386556495560864  1.0000
  F   F2        1.0  0.7386556358322629  0.7386556385374566  0.2613443483231769  1.0000
  F   F3        1.0  0.7386555621386953  0.2613444083305391  0.2613444486734736  1.0000
  F   F4        1.0  0.2613444453877227  0.7386555316775878  0.7386555636724261  1.0000
  F   F5        1.0  0.26134444923325495  0.7386556222916222  0.26134436195277827  1.0000
  F   F6        1.0  0.7386555543814028  0.26134441878126874  0.7386556138506438  1.0000
