data_image0
_chemical_formula_structural       As2BBr6
_chemical_formula_sum              "As2 B1 Br6"
_cell_length_a       7.0182898356780985
_cell_length_b       7.018290080531016
_cell_length_c       7.018289733577424
_cell_angle_alpha    59.99999956673368
_cell_angle_beta     60.00000312025015
_cell_angle_gamma    60.00000077082357

_space_group_name_H-M_alt    "P 1"
_space_group_IT_number       1

loop_
  _space_group_symop_operation_xyz
  'x, y, z'

loop_
  _atom_site_type_symbol
  _atom_site_label
  _atom_site_symmetry_multiplicity
  _atom_site_fract_x
  _atom_site_fract_y
  _atom_site_fract_z
  _atom_site_occupancy
  As  As1       1.0  0.2500000237062026  0.24999996959955081  0.24999986382243392  1.0000
  As  As2       1.0  0.750000180234049  0.7500001688149425  0.7499999013238837  1.0000
  B   B1        1.0  2.1130779582448898e-07  1.0644962210647912e-07  3.91752430177378e-08  1.0000
  Br  Br1       1.0  0.23079777759042425  0.23079792141224198  0.7692021894548229  1.0000
  Br  Br2       1.0  0.7692020429898986  0.7692019011435149  0.23079797374567546  1.0000
  Br  Br3       1.0  0.7692019588520213  0.23079791228969732  0.23079809885737185  1.0000
  Br  Br4       1.0  0.23079795814924217  0.7692020306762951  0.769201967326327  1.0000
  Br  Br5       1.0  0.23079796405813133  0.7692020539061418  0.23079789942730206  1.0000
  Br  Br6       1.0  0.7692018872975537  0.23079793792197867  0.7692020825329638  1.0000
