data_image0
_chemical_formula_structural       As2BCl6
_chemical_formula_sum              "As2 B1 Cl6"
_cell_length_a       5.626382447417582
_cell_length_b       5.626384434373526
_cell_length_c       5.62637822754591
_cell_angle_alpha    59.99999437038788
_cell_angle_beta     59.99997126463759
_cell_angle_gamma    59.99994847754696

_space_group_name_H-M_alt    "P 1"
_space_group_IT_number       1

loop_
  _space_group_symop_operation_xyz
  'x, y, z'

loop_
  _atom_site_type_symbol
  _atom_site_label
  _atom_site_symmetry_multiplicity
  _atom_site_fract_x
  _atom_site_fract_y
  _atom_site_fract_z
  _atom_site_occupancy
  As  As1       1.0  0.2500002995123527  0.2500053905272879  0.24999606711117708  1.0000
  As  As2       1.0  0.7500001063954658  0.7499981194734613  0.7499941558697752  1.0000
  B   B1        1.0  0.9999997589107913  0.9999997997358415  0.9999992093690782  1.0000
  Cl  Cl1       1.0  0.24682507002935067  0.2468240019287041  0.7531758778560301  1.0000
  Cl  Cl2       1.0  0.7531762763708405  0.7531743839076039  0.24682731962908866  1.0000
  Cl  Cl3       1.0  0.7531749930128829  0.246824323636534  0.24682679434621888  1.0000
  Cl  Cl4       1.0  0.24682420520752774  0.753174319061921  0.7531778837785357  1.0000
  Cl  Cl5       1.0  0.24682417034083465  0.7531740796332752  0.2468264969472515  1.0000
  Cl  Cl6       1.0  0.7531751538803495  0.24682566887420393  0.7531762304881363  1.0000
