data_image0
_chemical_formula_structural       As2BeBr6
_chemical_formula_sum              "As2 Be1 Br6"
_cell_length_a       6.939200955972118
_cell_length_b       6.939200959367467
_cell_length_c       6.93920069925565
_cell_angle_alpha    59.99999626584913
_cell_angle_beta     59.99999826897486
_cell_angle_gamma    59.9999942972074

_space_group_name_H-M_alt    "P 1"
_space_group_IT_number       1

loop_
  _space_group_symop_operation_xyz
  'x, y, z'

loop_
  _atom_site_type_symbol
  _atom_site_label
  _atom_site_symmetry_multiplicity
  _atom_site_fract_x
  _atom_site_fract_y
  _atom_site_fract_z
  _atom_site_occupancy
  As  As1       1.0  0.2500002205749864  0.24999927922196688  0.24999943537051764  1.0000
  As  As2       1.0  0.7499983871254984  0.7499994896735133  0.7500000080575445  1.0000
  Be  Be1       1.0  3.527900723521941e-08  9.883804487023449e-08  2.4853977750771336e-07  1.0000
  Br  Br1       1.0  0.24537914665178273  0.24537895693314016  0.7546210416925907  1.0000
  Br  Br2       1.0  0.7546210376439817  0.7546213721915521  0.24537923994036678  1.0000
  Br  Br3       1.0  0.7546214290820646  0.24537910324025736  0.24537887809823175  1.0000
  Br  Br4       1.0  0.24537936823260043  0.7546211041017988  0.7546211824150832  1.0000
  Br  Br5       1.0  0.24537931249713024  0.7546214465897088  0.24537855663319674  1.0000
  Br  Br6       1.0  0.7546210779818887  0.24537915257468002  0.7546214105105978  1.0000
