data_image0
_chemical_formula_structural       As2BI6
_chemical_formula_sum              "As2 B1 I6"
_cell_length_a       7.331477751158957
_cell_length_b       7.331477856019
_cell_length_c       7.331476574725239
_cell_angle_alpha    60.00000035669425
_cell_angle_beta     59.999994985441
_cell_angle_gamma    59.999996549750115

_space_group_name_H-M_alt    "P 1"
_space_group_IT_number       1

loop_
  _space_group_symop_operation_xyz
  'x, y, z'

loop_
  _atom_site_type_symbol
  _atom_site_label
  _atom_site_symmetry_multiplicity
  _atom_site_fract_x
  _atom_site_fract_y
  _atom_site_fract_z
  _atom_site_occupancy
  As  As1       1.0  0.24999819298866977  0.2500002338084166  0.24999910269920678  1.0000
  As  As2       1.0  0.7499992145534637  0.7499982574405858  0.7500011976491361  1.0000
  B   B1        1.0  0.9999998920272295  0.9999999081208909  1.1083780571282366e-07  1.0000
  I   I1        1.0  0.2399032310755892  0.2399035169829369  0.7600972569426785  1.0000
  I   I2        1.0  0.7600973549896081  0.7600967266511632  0.23990270439875902  1.0000
  I   I3        1.0  0.7600975715694618  0.23990371712442513  0.2399030500678022  1.0000
  I   I4        1.0  0.23990392429680418  0.7600966651635678  0.7600968085164285  1.0000
  I   I5        1.0  0.2399037361701822  0.7600969240995202  0.2399031393834968  1.0000
  I   I6        1.0  0.7600968856935745  0.23990405790853284  0.7600966421968725  1.0000
