data_image0
_chemical_formula_structural       As2BeF6
_chemical_formula_sum              "As2 Be1 F6"
_cell_length_a       6.3063738883928036
_cell_length_b       6.750591445079535
_cell_length_c       7.991204632985859
_cell_angle_alpha    51.28319987433647
_cell_angle_beta     43.7028561828741
_cell_angle_gamma    43.90972935051009

_space_group_name_H-M_alt    "P 1"
_space_group_IT_number       1

loop_
  _space_group_symop_operation_xyz
  'x, y, z'

loop_
  _atom_site_type_symbol
  _atom_site_label
  _atom_site_symmetry_multiplicity
  _atom_site_fract_x
  _atom_site_fract_y
  _atom_site_fract_z
  _atom_site_occupancy
  As  As1       1.0  0.07996027487061401  0.6102084909823933  0.28641983953958283  1.0000
  As  As2       1.0  0.20142093795920868  0.3649678402743633  0.8115471200933295  1.0000
  Be  Be1       1.0  0.18547505419123658  0.98213582863845  0.6666947638689732  1.0000
  F   F1        1.0  0.23366645956761364  0.005628241705412586  0.8190238789839246  1.0000
  F   F2        1.0  0.5429429974730293  0.8853642948321442  0.41352723146273174  1.0000
  F   F3        1.0  0.7530384207522133  0.4467070015270123  0.05866459669572381  1.0000
  F   F4        1.0  0.05046665055679856  0.7621919653913363  0.8321852493520348  1.0000
  F   F5        1.0  0.03758803106308728  0.647314614887072  0.5299042137327669  1.0000
  F   F6        1.0  0.9154080527857911  0.295504246445899  0.582063499170004  1.0000
