data_image0
_chemical_formula_structural       As2BeCl6
_chemical_formula_sum              "As2 Be1 Cl6"
_cell_length_a       6.402998992513478
_cell_length_b       6.40299709188687
_cell_length_c       6.403008962252095
_cell_angle_alpha    60.00037058553689
_cell_angle_beta     60.000437904027216
_cell_angle_gamma    60.00030766912886

_space_group_name_H-M_alt    "P 1"
_space_group_IT_number       1

loop_
  _space_group_symop_operation_xyz
  'x, y, z'

loop_
  _atom_site_type_symbol
  _atom_site_label
  _atom_site_symmetry_multiplicity
  _atom_site_fract_x
  _atom_site_fract_y
  _atom_site_fract_z
  _atom_site_occupancy
  As  As1       1.0  0.25000062968197184  0.2499693500387354  0.24997251669981485  1.0000
  As  As2       1.0  0.7499233422012194  0.7500567104943822  0.7500977001604632  1.0000
  Be  Be1       1.0  4.15383156399137e-06  0.99999917559593  0.9999961316474734  1.0000
  Cl  Cl1       1.0  0.23674775120291008  0.23670901568408517  0.7632782262651148  1.0000
  Cl  Cl2       1.0  0.7632734630858089  0.7632731965902332  0.2367030480031957  1.0000
  Cl  Cl3       1.0  0.7632953583739013  0.2367258079686122  0.23672232671087784  1.0000
  Cl  Cl4       1.0  0.23672198095665373  0.7632773509809114  0.7632615268396912  1.0000
  Cl  Cl5       1.0  0.23676891411629453  0.76327924320338  0.23668726723037115  1.0000
  Cl  Cl6       1.0  0.7632644365918283  0.2367099812530035  0.7632822775682683  1.0000
