data_image0
_chemical_formula_structural       As2BF6
_chemical_formula_sum              "As2 B1 F6"
_cell_length_a       7.569256129504968
_cell_length_b       4.727375828020677
_cell_length_c       6.734907562000736
_cell_angle_alpha    54.06279504342529
_cell_angle_beta     59.224778800923396
_cell_angle_gamma    59.926175281280294

_space_group_name_H-M_alt    "P 1"
_space_group_IT_number       1

loop_
  _space_group_symop_operation_xyz
  'x, y, z'

loop_
  _atom_site_type_symbol
  _atom_site_label
  _atom_site_symmetry_multiplicity
  _atom_site_fract_x
  _atom_site_fract_y
  _atom_site_fract_z
  _atom_site_occupancy
  As  As1       1.0  0.20483047373011615  0.8643658388912805  0.29130391631531616  1.0000
  As  As2       1.0  0.5460649295725528  0.467167211908541  0.12696861737094056  1.0000
  B   B1        1.0  0.052891490105862846  0.8809685509050507  0.7978808169073884  1.0000
  F   F1        1.0  0.14277609492580975  0.012573905548380015  0.851984431385625  1.0000
  F   F2        1.0  0.9305324887441352  0.6565744953517304  0.020712496229547076  1.0000
  F   F3        1.0  0.5912089354839849  0.11877862072250601  0.4299296955953855  1.0000
  F   F4        1.0  0.23414681475456484  0.659578192821548  0.661601441883714  1.0000
  F   F5        1.0  0.3569292949649306  0.18037963653372802  0.1945227629607944  1.0000
  F   F6        1.0  0.9341501167023057  0.16464301753155186  0.625903328604434  1.0000
