data_image0
_chemical_formula_structural       As2BeI6
_chemical_formula_sum              "As2 Be1 I6"
_cell_length_a       7.426389197303859
_cell_length_b       7.426387807346581
_cell_length_c       7.426388611710482
_cell_angle_alpha    60.00000318734697
_cell_angle_beta     60.000007193568756
_cell_angle_gamma    60.00000149408683

_space_group_name_H-M_alt    "P 1"
_space_group_IT_number       1

loop_
  _space_group_symop_operation_xyz
  'x, y, z'

loop_
  _atom_site_type_symbol
  _atom_site_label
  _atom_site_symmetry_multiplicity
  _atom_site_fract_x
  _atom_site_fract_y
  _atom_site_fract_z
  _atom_site_occupancy
  As  As1       1.0  0.2500003306637859  0.24999883598275122  0.25000034712402575  1.0000
  As  As2       1.0  0.749999260884532  0.7499999893667327  0.7500002618213842  1.0000
  Be  Be1       1.0  0.9999999816703863  6.431801019726495e-08  0.9999999648868587  1.0000
  I   I1        1.0  0.24637728515811047  0.2463771579851486  0.7536229770862781  1.0000
  I   I2        1.0  0.7536227583285735  0.7536230543245647  0.24637718235570225  1.0000
  I   I3        1.0  0.7536230762113302  0.24637710377279642  0.24637711262503814  1.0000
  I   I4        1.0  0.2463772626638169  0.7536233278778095  0.7536223908736287  1.0000
  I   I5        1.0  0.24637719535887093  0.7536232169257808  0.24637698734637517  1.0000
  I   I6        1.0  0.7536228459718778  0.2463772444100614  0.7536227591523748  1.0000
