data_image0
_chemical_formula_structural       As2CO6
_chemical_formula_sum              "As2 C1 O6"
_cell_length_a       4.627074414911828
_cell_length_b       4.627074333004891
_cell_length_c       4.627074431206603
_cell_angle_alpha    59.99999800125146
_cell_angle_beta     59.999998323730274
_cell_angle_gamma    59.99999841121454

_space_group_name_H-M_alt    "P 1"
_space_group_IT_number       1

loop_
  _space_group_symop_operation_xyz
  'x, y, z'

loop_
  _atom_site_type_symbol
  _atom_site_label
  _atom_site_symmetry_multiplicity
  _atom_site_fract_x
  _atom_site_fract_y
  _atom_site_fract_z
  _atom_site_occupancy
  As  As1       1.0  0.25000036405288867  0.24999985219399884  0.24999963240908377  1.0000
  As  As2       1.0  0.749999826569966  0.7499996624583907  0.7499998380026178  1.0000
  C   C1        1.0  0.9999999519794035  3.1762920202020434e-08  0.9999998892632338  1.0000
  O   O1        1.0  0.23186289988131822  0.23186298538743413  0.7681371882546094  1.0000
  O   O2        1.0  0.7681370000140555  0.7681371618764204  0.23186304268919924  1.0000
  O   O3        1.0  0.7681370509241525  0.23186299823130904  0.23186298474630543  1.0000
  O   O4        1.0  0.23186304586732265  0.7681370749190675  0.7681371545494906  1.0000
  O   O5        1.0  0.23186288284862497  0.7681371325794674  0.23186307183442584  1.0000
  O   O6        1.0  0.7681369648914187  0.23186308879786413  0.768137254028757  1.0000
