data_image0
_chemical_formula_structural       As2CoS6
_chemical_formula_sum              "As2 Co1 S6"
_cell_length_a       6.058667794567332
_cell_length_b       6.0586674357227
_cell_length_c       6.058667227962661
_cell_angle_alpha    60.00000102376303
_cell_angle_beta     60.00000460729745
_cell_angle_gamma    60.00000386055496

_space_group_name_H-M_alt    "P 1"
_space_group_IT_number       1

loop_
  _space_group_symop_operation_xyz
  'x, y, z'

loop_
  _atom_site_type_symbol
  _atom_site_label
  _atom_site_symmetry_multiplicity
  _atom_site_fract_x
  _atom_site_fract_y
  _atom_site_fract_z
  _atom_site_occupancy
  As  As1       1.0  0.2499999190793065  0.2500006057246032  0.24999976930141007  1.0000
  As  As2       1.0  0.7499999122743769  0.7500002828738147  0.7499997400536315  1.0000
  Co  Co1       1.0  0.9999999776878307  4.042950703802924e-09  0.9999999596187686  1.0000
  S   S1        1.0  0.2522680775943269  0.25226775395661505  0.7477321103432326  1.0000
  S   S2        1.0  0.7477320892120671  0.7477319338852907  0.2522680825439732  1.0000
  S   S3        1.0  0.7477319651164281  0.2522679252711777  0.25226813771263396  1.0000
  S   S4        1.0  0.25226794824614995  0.7477318939666338  0.747732116198524  1.0000
  S   S5        1.0  0.25226805375702627  0.7477317377251829  0.25226803088522876  1.0000
  S   S6        1.0  0.7477320633251527  0.25226785915031885  0.7477320491386762  1.0000
