data_image0
_chemical_formula_structural       As2CCl6
_chemical_formula_sum              "As2 C1 Cl6"
_cell_length_a       5.276361853262958
_cell_length_b       5.276361335367927
_cell_length_c       5.276361363647359
_cell_angle_alpha    59.999999672979705
_cell_angle_beta     60.00000501699928
_cell_angle_gamma    60.0000019161639

_space_group_name_H-M_alt    "P 1"
_space_group_IT_number       1

loop_
  _space_group_symop_operation_xyz
  'x, y, z'

loop_
  _atom_site_type_symbol
  _atom_site_label
  _atom_site_symmetry_multiplicity
  _atom_site_fract_x
  _atom_site_fract_y
  _atom_site_fract_z
  _atom_site_occupancy
  As  As1       1.0  0.2500000525283664  0.2500000673900784  0.2500000757587978  1.0000
  As  As2       1.0  0.750000201380597  0.7499999329119421  0.7500000803591619  1.0000
  C   C1        1.0  0.9999996910088336  6.035098979166491e-08  0.9999998760429265  1.0000
  Cl  Cl1       1.0  0.2543777954592337  0.2543775669056075  0.7456223556966787  1.0000
  Cl  Cl2       1.0  0.7456222906946617  0.7456222407374559  0.2543777285606432  1.0000
  Cl  Cl3       1.0  0.7456223345546511  0.25437773133079566  0.2543776607091441  1.0000
  Cl  Cl4       1.0  0.25437766781638355  0.7456222620076427  0.745622308153573  1.0000
  Cl  Cl5       1.0  0.25437769338893634  0.7456222548504057  0.254377706060743  1.0000
  Cl  Cl6       1.0  0.7456222468409207  0.2543778986502933  0.7456222498010955  1.0000
