data_image0
_chemical_formula_structural       As2CrSe6
_chemical_formula_sum              "As2 Cr1 Se6"
_cell_length_a       6.256045133279856
_cell_length_b       6.2560452173649646
_cell_length_c       6.256045152066777
_cell_angle_alpha    60.000001141728376
_cell_angle_beta     60.00000095162505
_cell_angle_gamma    60.00000055462956

_space_group_name_H-M_alt    "P 1"
_space_group_IT_number       1

loop_
  _space_group_symop_operation_xyz
  'x, y, z'

loop_
  _atom_site_type_symbol
  _atom_site_label
  _atom_site_symmetry_multiplicity
  _atom_site_fract_x
  _atom_site_fract_y
  _atom_site_fract_z
  _atom_site_occupancy
  As  As1       1.0  0.2499999387210629  0.2500000703624372  0.24999990047861506  1.0000
  As  As2       1.0  0.7499999509436045  0.7499999507134489  0.7499998777227977  1.0000
  Cr  Cr1       1.0  6.935092004351274e-09  2.349237862200169e-08  0.9999999943769885  1.0000
  Se  Se1       1.0  0.26671648391573577  0.2667164643940524  0.7332835676014933  1.0000
  Se  Se2       1.0  0.7332835576782779  0.733283494035492  0.266716541595093  1.0000
  Se  Se3       1.0  0.7332835255245134  0.26671646502907587  0.2667165037074752  1.0000
  Se  Se4       1.0  0.2667165563590053  0.7332834777388823  0.733283546819988  1.0000
  Se  Se5       1.0  0.2667164593387121  0.733283538025571  0.2667165057985259  1.0000
  Se  Se6       1.0  0.7332835207477937  0.26671651633118615  0.7332835622113991  1.0000
