data_image0
_chemical_formula_structural       As2CS6
_chemical_formula_sum              "As2 C1 S6"
_cell_length_a       6.0345837448364374
_cell_length_b       6.0345830780628935
_cell_length_c       6.0345858219699515
_cell_angle_alpha    59.999991113712426
_cell_angle_beta     59.999989590187695
_cell_angle_gamma    59.99996197270406

_space_group_name_H-M_alt    "P 1"
_space_group_IT_number       1

loop_
  _space_group_symop_operation_xyz
  'x, y, z'

loop_
  _atom_site_type_symbol
  _atom_site_label
  _atom_site_symmetry_multiplicity
  _atom_site_fract_x
  _atom_site_fract_y
  _atom_site_fract_z
  _atom_site_occupancy
  As  As1       1.0  0.2500009752371118  0.24999835924209005  0.2500002930432609  1.0000
  As  As2       1.0  0.7499979997295488  0.7499966871564288  0.7500049601071147  1.0000
  C   C1        1.0  0.9999990188675811  0.9999946886843886  1.028175903539349e-05  1.0000
  S   S1        1.0  0.23327886922709581  0.2332793399580779  0.7667208015982893  1.0000
  S   S2        1.0  0.7667238034916574  0.7667248251797779  0.23327502238698894  1.0000
  S   S3        1.0  0.7667241858083812  0.23327800423804324  0.23327460776231887  1.0000
  S   S4        1.0  0.23327948865128223  0.7667222946181438  0.7667199838529614  1.0000
  S   S5        1.0  0.23327660407706352  0.7667252610619083  0.2332736095709169  1.0000
  S   S6        1.0  0.7667189260467284  0.2332805561268163  0.7667203263941353  1.0000
