data_image0
_chemical_formula_structural       As2CrO6
_chemical_formula_sum              "As2 Cr1 O6"
_cell_length_a       5.220405707222743
_cell_length_b       5.220405353517154
_cell_length_c       5.220405898438609
_cell_angle_alpha    59.9999993419304
_cell_angle_beta     60.00000065413694
_cell_angle_gamma    59.999999250194406

_space_group_name_H-M_alt    "P 1"
_space_group_IT_number       1

loop_
  _space_group_symop_operation_xyz
  'x, y, z'

loop_
  _atom_site_type_symbol
  _atom_site_label
  _atom_site_symmetry_multiplicity
  _atom_site_fract_x
  _atom_site_fract_y
  _atom_site_fract_z
  _atom_site_occupancy
  As  As1       1.0  0.24999835931697884  0.25000125856426686  0.24999858136663428  1.0000
  As  As2       1.0  0.7499987794398773  0.7499998178687903  0.7499997551072455  1.0000
  Cr  Cr1       1.0  2.6433531040225577e-07  0.9999998639278104  2.4235801829983004e-07  1.0000
  O   O1        1.0  0.25395756524627894  0.2539571454520094  0.7460430274293016  1.0000
  O   O2        1.0  0.7460433159356524  0.7460423121912061  0.2539577392926077  1.0000
  O   O3        1.0  0.7460432971196433  0.25395736556409937  0.2539572592159836  1.0000
  O   O4        1.0  0.25395771031673864  0.7460422375356028  0.7460432643791096  1.0000
  O   O5        1.0  0.25395770936425527  0.7460427368577431  0.2539572751240915  1.0000
  O   O6        1.0  0.7460429373025228  0.2539572650742554  0.746042892301123  1.0000
