data_image0
_chemical_formula_structural       As2CrS6
_chemical_formula_sum              "As2 Cr1 S6"
_cell_length_a       6.123814943141774
_cell_length_b       6.123814984588985
_cell_length_c       6.1238149467961005
_cell_angle_alpha    60.0000006080771
_cell_angle_beta     59.99999948735765
_cell_angle_gamma    59.99999765145313

_space_group_name_H-M_alt    "P 1"
_space_group_IT_number       1

loop_
  _space_group_symop_operation_xyz
  'x, y, z'

loop_
  _atom_site_type_symbol
  _atom_site_label
  _atom_site_symmetry_multiplicity
  _atom_site_fract_x
  _atom_site_fract_y
  _atom_site_fract_z
  _atom_site_occupancy
  As  As1       1.0  0.25000018021897574  0.24999978020836192  0.2499999913028586  1.0000
  As  As2       1.0  0.7499998793894287  0.7500002666114037  0.7499998905382417  1.0000
  Cr  Cr1       1.0  0.9999999070538028  0.999999996000062  4.684009893714054e-08  1.0000
  S   S1        1.0  0.2567699537266625  0.2567697010443858  0.7432300145670091  1.0000
  S   S2        1.0  0.7432300926271065  0.7432302497768004  0.2567698614808451  1.0000
  S   S3        1.0  0.7432301802706485  0.25676980270165944  0.2567699171588188  1.0000
  S   S4        1.0  0.2567697614409883  0.7432302301183182  0.7432302510813751  1.0000
  S   S5        1.0  0.2567698429919064  0.7432302189848659  0.25676977807666135  1.0000
  S   S6        1.0  0.7432301915907986  0.25676975583596656  0.7432302633186472  1.0000
