data_image0
_chemical_formula_structural       As2CI6
_chemical_formula_sum              "As2 C1 I6"
_cell_length_a       7.371223158738011
_cell_length_b       7.371222688843331
_cell_length_c       7.371222406201965
_cell_angle_alpha    60.00000082878895
_cell_angle_beta     60.000004431476235
_cell_angle_gamma    59.99999989731239

_space_group_name_H-M_alt    "P 1"
_space_group_IT_number       1

loop_
  _space_group_symop_operation_xyz
  'x, y, z'

loop_
  _atom_site_type_symbol
  _atom_site_label
  _atom_site_symmetry_multiplicity
  _atom_site_fract_x
  _atom_site_fract_y
  _atom_site_fract_z
  _atom_site_occupancy
  As  As1       1.0  0.24999950377345612  0.2500005244265277  0.24999984826477695  1.0000
  As  As2       1.0  0.7500001066780222  0.7500007441800892  0.7499996893932043  1.0000
  C   C1        1.0  0.9999999397916097  6.313783643529486e-08  2.8381072220930523e-08  1.0000
  I   I1        1.0  0.2536295451876358  0.2536295714582293  0.7463703077078974  1.0000
  I   I2        1.0  0.7463706198157948  0.7463700804874679  0.2536295561538868  1.0000
  I   I3        1.0  0.7463705319832956  0.2536293299609979  0.25362988393513586  1.0000
  I   I4        1.0  0.25362964929067705  0.7463700710948713  0.7463704947280295  1.0000
  I   I5        1.0  0.2536296320272424  0.7463701635742662  0.25362988169743783  1.0000
  I   I6        1.0  0.7463704676584054  0.2536294634485984  0.7463702958968172  1.0000
