data_image0
_chemical_formula_structural       As2CoO6
_chemical_formula_sum              "As2 Co1 O6"
_cell_length_a       5.185108194543977
_cell_length_b       5.185108186435123
_cell_length_c       5.185108152615533
_cell_angle_alpha    60.00000216262795
_cell_angle_beta     60.00000225952247
_cell_angle_gamma    60.00000340750828

_space_group_name_H-M_alt    "P 1"
_space_group_IT_number       1

loop_
  _space_group_symop_operation_xyz
  'x, y, z'

loop_
  _atom_site_type_symbol
  _atom_site_label
  _atom_site_symmetry_multiplicity
  _atom_site_fract_x
  _atom_site_fract_y
  _atom_site_fract_z
  _atom_site_occupancy
  As  As1       1.0  0.25000208599389284  0.24999845696382764  0.24999973667528205  1.0000
  As  As2       1.0  0.7500016150464789  0.7500021712131355  0.7500005632973512  1.0000
  Co  Co1       1.0  0.9999999575759343  0.9999999669313965  0.9999999721739308  1.0000
  O   O1        1.0  0.24313641023382632  0.24313556947986037  0.7568640072334449  1.0000
  O   O2        1.0  0.7568626773652904  0.7568650161801747  0.24313509138006245  1.0000
  O   O3        1.0  0.756863560720389  0.24313597879628476  0.24313611366320986  1.0000
  O   O4        1.0  0.2431346094505506  0.7568640187150311  0.7568638650263286  1.0000
  O   O5        1.0  0.24313553564562132  0.7568640017958572  0.24313643660167922  1.0000
  O   O6        1.0  0.7568635316261515  0.24313480760787096  0.7568642295278551  1.0000
