data_image0
_chemical_formula_structural       As2CF6
_chemical_formula_sum              "As2 C1 F6"
_cell_length_a       10.565278827222711
_cell_length_b       4.010182509622918
_cell_length_c       4.900668724555746
_cell_angle_alpha    60.69763068035513
_cell_angle_beta     80.25689102238515
_cell_angle_gamma    108.26898178647177

_space_group_name_H-M_alt    "P 1"
_space_group_IT_number       1

loop_
  _space_group_symop_operation_xyz
  'x, y, z'

loop_
  _atom_site_type_symbol
  _atom_site_label
  _atom_site_symmetry_multiplicity
  _atom_site_fract_x
  _atom_site_fract_y
  _atom_site_fract_z
  _atom_site_occupancy
  As  As1       1.0  0.6791179248692324  0.13302628932057736  0.12274468975095378  1.0000
  As  As2       1.0  0.5074095316559962  0.3777516469141591  0.3254116596572273  1.0000
  C   C1        1.0  0.11398633965574059  0.8873958400342649  0.0631477214438815  1.0000
  F   F1        1.0  0.9966707591313132  0.945823569599049  0.11404505371914953  1.0000
  F   F2        1.0  0.09446872437096787  0.5302134762786199  0.34614909269415434  1.0000
  F   F3        1.0  0.7309344432923193  0.9475553109060861  0.485713723638632  1.0000
  F   F4        1.0  0.13482598402131268  0.8482643449722534  0.804208898223532  1.0000
  F   F5        1.0  0.23134759602671826  0.2265116084193175  0.9850091701817998  1.0000
  F   F6        1.0  0.5112427528156948  0.1034090865982354  0.7535985569802272  1.0000
