data_image0
_chemical_formula_structural       As2GeSe6
_chemical_formula_sum              "As2 Ge1 Se6"
_cell_length_a       6.44918030289875
_cell_length_b       6.449180242167375
_cell_length_c       6.449180446989219
_cell_angle_alpha    59.99999921067589
_cell_angle_beta     59.99999761113615
_cell_angle_gamma    59.99999847346747

_space_group_name_H-M_alt    "P 1"
_space_group_IT_number       1

loop_
  _space_group_symop_operation_xyz
  'x, y, z'

loop_
  _atom_site_type_symbol
  _atom_site_label
  _atom_site_symmetry_multiplicity
  _atom_site_fract_x
  _atom_site_fract_y
  _atom_site_fract_z
  _atom_site_occupancy
  As  As1       1.0  0.2500000636998487  0.2499998563258478  0.25000009729465694  1.0000
  As  As2       1.0  0.7500002010043084  0.7499999260028226  0.750000083609597  1.0000
  Ge  Ge1       1.0  0.9999999556542803  9.495353145424675e-09  0.9999999817617377  1.0000
  Se  Se1       1.0  0.2938002539685656  0.29380027267774794  0.7061996720372539  1.0000
  Se  Se2       1.0  0.7061997278209309  0.7061997299431151  0.29380019749903724  1.0000
  Se  Se3       1.0  0.7061997035102279  0.2938003421432572  0.2938002823493731  1.0000
  Se  Se4       1.0  0.2938002031326105  0.7061997516329982  0.7061997125328292  1.0000
  Se  Se5       1.0  0.2938002140918755  0.706199755436896  0.29380028915387946  1.0000
  Se  Se6       1.0  0.7061996823326114  0.29380034213750045  0.706199677926736  1.0000
