data_image0
_chemical_formula_structural       As2GeS6
_chemical_formula_sum              "As2 Ge1 S6"
_cell_length_a       6.321468339583524
_cell_length_b       6.321469897133684
_cell_length_c       6.321468921994469
_cell_angle_alpha    60.00000410753089
_cell_angle_beta     59.99999286605836
_cell_angle_gamma    59.999998605133214

_space_group_name_H-M_alt    "P 1"
_space_group_IT_number       1

loop_
  _space_group_symop_operation_xyz
  'x, y, z'

loop_
  _atom_site_type_symbol
  _atom_site_label
  _atom_site_symmetry_multiplicity
  _atom_site_fract_x
  _atom_site_fract_y
  _atom_site_fract_z
  _atom_site_occupancy
  As  As1       1.0  0.24999949081192538  0.2500000848927142  0.2500003479248335  1.0000
  As  As2       1.0  0.7499999399856802  0.7499998633158176  0.7500003822916256  1.0000
  Ge  Ge1       1.0  5.6824966007199295e-09  2.1311803829560477e-08  4.34516384793277e-08  1.0000
  S   S1        1.0  0.2573149733479074  0.2573147586893726  0.7426850383608473  1.0000
  S   S2        1.0  0.7426851183016586  0.7426853057653121  0.257314517096863  1.0000
  S   S3        1.0  0.7426852655601317  0.25731488944344233  0.25731477160279187  1.0000
  S   S4        1.0  0.25731487858380947  0.7426850723270937  0.7426852091732384  1.0000
  S   S5        1.0  0.25731491592225825  0.7426850257478954  0.25731478045579476  1.0000
  S   S6        1.0  0.7426854197776037  0.25731498058367086  0.7426848813590814  1.0000
