data_image0
_chemical_formula_structural       As2MnSe6
_chemical_formula_sum              "As2 Mn1 Se6"
_cell_length_a       6.5354844718739065
_cell_length_b       6.5354847938344225
_cell_length_c       6.535484161371962
_cell_angle_alpha    60.000003385148744
_cell_angle_beta     60.00000365454998
_cell_angle_gamma    60.00000176280912

_space_group_name_H-M_alt    "P 1"
_space_group_IT_number       1

loop_
  _space_group_symop_operation_xyz
  'x, y, z'

loop_
  _atom_site_type_symbol
  _atom_site_label
  _atom_site_symmetry_multiplicity
  _atom_site_fract_x
  _atom_site_fract_y
  _atom_site_fract_z
  _atom_site_occupancy
  As  As1       1.0  0.2500000581439006  0.250000016946243  0.24999979526070068  1.0000
  As  As2       1.0  0.7499995805300641  0.7500001257984311  0.7499996192412158  1.0000
  Mn  Mn1       1.0  6.76565349210654e-08  3.747983470609127e-09  0.9999999857192612  1.0000
  Se  Se1       1.0  0.25148141993060075  0.25148148553825  0.7485185207617466  1.0000
  Se  Se2       1.0  0.7485187083875839  0.7485184285793491  0.25148160479129095  1.0000
  Se  Se3       1.0  0.7485186214623211  0.25148122448595145  0.25148160433487343  1.0000
  Se  Se4       1.0  0.25148149352672367  0.7485185547042003  0.7485187330562245  1.0000
  Se  Se5       1.0  0.25148141388822304  0.7485186775156035  0.2514813275832683  1.0000
  Se  Se6       1.0  0.7485185981904242  0.2514814952129365  0.7485188185905773  1.0000
