data_image0
_chemical_formula_structural       As2MnS6
_chemical_formula_sum              "As2 Mn1 S6"
_cell_length_a       6.273620494234314
_cell_length_b       6.2736206037046545
_cell_length_c       6.273620755756538
_cell_angle_alpha    59.999996874651195
_cell_angle_beta     59.99999943935918
_cell_angle_gamma    59.999999270430585

_space_group_name_H-M_alt    "P 1"
_space_group_IT_number       1

loop_
  _space_group_symop_operation_xyz
  'x, y, z'

loop_
  _atom_site_type_symbol
  _atom_site_label
  _atom_site_symmetry_multiplicity
  _atom_site_fract_x
  _atom_site_fract_y
  _atom_site_fract_z
  _atom_site_occupancy
  As  As1       1.0  0.2499997343802753  0.24999965430644058  0.2500004593604378  1.0000
  As  As2       1.0  0.7499996714378582  0.750000401700954  0.7499999049058306  1.0000
  Mn  Mn1       1.0  0.9999999989951599  5.2709773269772785e-08  4.433073685048347e-09  1.0000
  S   S1        1.0  0.2506161140816819  0.2506159476526667  0.7493838856654075  1.0000
  S   S2        1.0  0.7493840827551841  0.749383905324497  0.2506160268030089  1.0000
  S   S3        1.0  0.7493839580029258  0.2506159468865414  0.25061595259612623  1.0000
  S   S4        1.0  0.25061614890458717  0.7493840212712368  0.7493840285394255  1.0000
  S   S5        1.0  0.2506160970612744  0.7493841589410496  0.25061578751205776  1.0000
  S   S6        1.0  0.7493841409888078  0.25061594587170216  0.7493839736500247  1.0000
