data_image0
_chemical_formula_structural       As2MnO6
_chemical_formula_sum              "As2 Mn1 O6"
_cell_length_a       5.237315303311492
_cell_length_b       5.23731871426118
_cell_length_c       5.237317310863572
_cell_angle_alpha    59.99995814448883
_cell_angle_beta     60.00002079178288
_cell_angle_gamma    59.99996877664215

_space_group_name_H-M_alt    "P 1"
_space_group_IT_number       1

loop_
  _space_group_symop_operation_xyz
  'x, y, z'

loop_
  _atom_site_type_symbol
  _atom_site_label
  _atom_site_symmetry_multiplicity
  _atom_site_fract_x
  _atom_site_fract_y
  _atom_site_fract_z
  _atom_site_occupancy
  As  As1       1.0  0.2500001839037666  0.2500019139092878  0.2500001910209875  1.0000
  As  As2       1.0  0.7499989079195485  0.750001836440275  0.7500001742233332  1.0000
  Mn  Mn1       1.0  0.999999560475239  5.16807713302618e-06  1.0454292027445322e-07  1.0000
  O   O1        1.0  0.25281365872250083  0.2528120899014366  0.7471864472010707  1.0000
  O   O2        1.0  0.7471844517744842  0.7471843853854233  0.25281560033160194  1.0000
  O   O3        1.0  0.7471859598041771  0.25281285307231033  0.2528140452501584  1.0000
  O   O4        1.0  0.25281679035106086  0.7471832691019347  0.7471833672773124  1.0000
  O   O5        1.0  0.2528121516425357  0.7471872662751656  0.2528119025806605  1.0000
  O   O6        1.0  0.7471882467787447  0.25281116867154607  0.7471882197347121  1.0000
