data_image0
_chemical_formula_structural       As2NF6
_chemical_formula_sum              "As2 N1 F6"
_cell_length_a       5.236597947137696
_cell_length_b       5.651808026972857
_cell_length_c       4.8972382013605475
_cell_angle_alpha    37.61631680835993
_cell_angle_beta     38.27504953543477
_cell_angle_gamma    42.0810419710527

_space_group_name_H-M_alt    "P 1"
_space_group_IT_number       1

loop_
  _space_group_symop_operation_xyz
  'x, y, z'

loop_
  _atom_site_type_symbol
  _atom_site_label
  _atom_site_symmetry_multiplicity
  _atom_site_fract_x
  _atom_site_fract_y
  _atom_site_fract_z
  _atom_site_occupancy
  As  As1       1.0  0.022998368428981345  0.21971949641509056  0.7065200628079422  1.0000
  As  As2       1.0  0.11281016550647768  0.4669453735499355  0.807176803198195  1.0000
  N   N1        1.0  0.47106696453108143  0.15347543433000058  0.5615437382378277  1.0000
  F   F1        1.0  0.660519369958907  0.18251712197939005  0.05475734344704586  1.0000
  F   F2        1.0  0.4863612727347826  0.9714232775985577  0.9263568949588586  1.0000
  F   F3        1.0  0.6603224333940872  0.18069636592166644  0.08132180995290739  1.0000
  F   F4        1.0  0.10365583646356578  0.3544612038087017  0.03014188876070012  1.0000
  F   F5        1.0  0.7143842872167977  0.2417790826877837  0.2101244891524614  1.0000
  F   F6        1.0  0.6548541609314842  0.1582886871178633  0.15533035913610593  1.0000
