data_image0
_chemical_formula_structural       As2NiS6
_chemical_formula_sum              "As2 Ni1 S6"
_cell_length_a       6.140768671285379
_cell_length_b       6.140768814402966
_cell_length_c       6.140768389678126
_cell_angle_alpha    59.99999856146751
_cell_angle_beta     59.9999968742806
_cell_angle_gamma    59.999998445723115

_space_group_name_H-M_alt    "P 1"
_space_group_IT_number       1

loop_
  _space_group_symop_operation_xyz
  'x, y, z'

loop_
  _atom_site_type_symbol
  _atom_site_label
  _atom_site_symmetry_multiplicity
  _atom_site_fract_x
  _atom_site_fract_y
  _atom_site_fract_z
  _atom_site_occupancy
  As  As1       1.0  0.2500002349249681  0.2500002369399144  0.2499999184553495  1.0000
  As  As2       1.0  0.7499991486217468  0.7500002740354631  0.7500011540646276  1.0000
  Ni  Ni1       1.0  9.261466645138042e-08  0.9999999421609859  0.9999999353868119  1.0000
  S   S1        1.0  0.2492547095434199  0.24925427083551763  0.750745516896004  1.0000
  S   S2        1.0  0.7507455607010596  0.7507455939384813  0.24925411143721654  1.0000
  S   S3        1.0  0.7507455196509267  0.24925468390867175  0.2492541988496411  1.0000
  S   S4        1.0  0.24925442697508554  0.7507453224711925  0.7507455449167985  1.0000
  S   S5        1.0  0.24925485370547873  0.7507453029471945  0.2492540531587795  1.0000
  S   S6        1.0  0.7507454952903773  0.2492543763430695  0.7507455454891272  1.0000
