data_image0
_chemical_formula_structural       As2NO6
_chemical_formula_sum              "As2 N1 O6"
_cell_length_a       4.772457679657593
_cell_length_b       4.772457371820449
_cell_length_c       4.772457403693148
_cell_angle_alpha    59.999991753120135
_cell_angle_beta     59.99999267292927
_cell_angle_gamma    59.99998963838899

_space_group_name_H-M_alt    "P 1"
_space_group_IT_number       1

loop_
  _space_group_symop_operation_xyz
  'x, y, z'

loop_
  _atom_site_type_symbol
  _atom_site_label
  _atom_site_symmetry_multiplicity
  _atom_site_fract_x
  _atom_site_fract_y
  _atom_site_fract_z
  _atom_site_occupancy
  As  As1       1.0  0.2500008295618226  0.2500039751471537  0.24999953217647383  1.0000
  As  As2       1.0  0.749996603002006  0.7500030743512698  0.7499938034676343  1.0000
  N   N1        1.0  3.40114699764292e-07  5.620147034924136e-07  5.526110399831612e-07  1.0000
  O   O1        1.0  0.23904092254576806  0.23903883917368757  0.7609599237371141  1.0000
  O   O2        1.0  0.760960097484725  0.7609585149277831  0.2390427833725497  1.0000
  O   O3        1.0  0.7609590331858399  0.23903811957527465  0.2390419616187743  1.0000
  O   O4        1.0  0.23904249837639663  0.760958462076673  0.7609603269663677  1.0000
  O   O5        1.0  0.2390400077391789  0.7609579139279335  0.23904109792658076  1.0000
  O   O6        1.0  0.7609597222352485  0.23904047951608243  0.7609600331103312  1.0000
