data_image0
_chemical_formula_structural       As2NiO6
_chemical_formula_sum              "As2 Ni1 O6"
_cell_length_a       5.169066049411919
_cell_length_b       5.169065967819918
_cell_length_c       5.1690658148462205
_cell_angle_alpha    60.00000002223754
_cell_angle_beta     59.99999970364633
_cell_angle_gamma    60.000000444530016

_space_group_name_H-M_alt    "P 1"
_space_group_IT_number       1

loop_
  _space_group_symop_operation_xyz
  'x, y, z'

loop_
  _atom_site_type_symbol
  _atom_site_label
  _atom_site_symmetry_multiplicity
  _atom_site_fract_x
  _atom_site_fract_y
  _atom_site_fract_z
  _atom_site_occupancy
  As  As1       1.0  0.24999872409239943  0.25000114357134573  0.25000148531790967  1.0000
  As  As2       1.0  0.7499980057206831  0.750003264857915  0.7499991958282998  1.0000
  Ni  Ni1       1.0  8.048895529114006e-08  0.9999998791619448  0.9999999814828389  1.0000
  O   O1        1.0  0.24695335016260178  0.24695078618899127  0.7530475040067379  1.0000
  O   O2        1.0  0.7530485081977343  0.7530472770576857  0.2469523113029287  1.0000
  O   O3        1.0  0.7530476422450777  0.2469510900235929  0.24695293360287318  1.0000
  O   O4        1.0  0.24695238004273962  0.7530478238282072  0.7530477400771777  1.0000
  O   O5        1.0  0.24695253414142967  0.7530473354193221  0.24695180714270407  1.0000
  O   O6        1.0  0.7530487928641544  0.24695133675638176  0.7530470775358921  1.0000
