data_image0
_chemical_formula_structural       As2PS6
_chemical_formula_sum              "As2 P1 S6"
_cell_length_a       6.317494275647108
_cell_length_b       6.317494685203751
_cell_length_c       6.317494996561698
_cell_angle_alpha    59.99999822706798
_cell_angle_beta     59.9999990205838
_cell_angle_gamma    59.999996961212446

_space_group_name_H-M_alt    "P 1"
_space_group_IT_number       1

loop_
  _space_group_symop_operation_xyz
  'x, y, z'

loop_
  _atom_site_type_symbol
  _atom_site_label
  _atom_site_symmetry_multiplicity
  _atom_site_fract_x
  _atom_site_fract_y
  _atom_site_fract_z
  _atom_site_occupancy
  As  As1       1.0  0.2499995384270319  0.2500008103590489  0.2500005827715936  1.0000
  As  As2       1.0  0.7499999744871323  0.7500002287639078  0.7500000329454701  1.0000
  P   P1        1.0  3.864322643548881e-08  0.9999999224537588  4.5663766793802717e-10  1.0000
  S   S1        1.0  0.24313966028178186  0.2431396508304686  0.7568603182046906  1.0000
  S   S2        1.0  0.756860565230604  0.7568601223501069  0.24313954054692752  1.0000
  S   S3        1.0  0.7568601025052972  0.24313963806937872  0.24313962280535625  1.0000
  S   S4        1.0  0.24313975718752168  0.7568604045843943  0.7568602303006384  1.0000
  S   S5        1.0  0.24313967729557528  0.7568598660790752  0.2431396102755304  1.0000
  S   S6        1.0  0.7568606988238105  0.24313938948034705  0.7568600663319089  1.0000
