data_image0
_chemical_formula_structural       As2PI6
_chemical_formula_sum              "As2 P1 I6"
_cell_length_a       7.59326100034082
_cell_length_b       7.593261425504727
_cell_length_c       7.5932609729590395
_cell_angle_alpha    59.999999914661906
_cell_angle_beta     60.00000296027152
_cell_angle_gamma    60.000001109378005

_space_group_name_H-M_alt    "P 1"
_space_group_IT_number       1

loop_
  _space_group_symop_operation_xyz
  'x, y, z'

loop_
  _atom_site_type_symbol
  _atom_site_label
  _atom_site_symmetry_multiplicity
  _atom_site_fract_x
  _atom_site_fract_y
  _atom_site_fract_z
  _atom_site_occupancy
  As  As1       1.0  0.2500002169236488  0.24999973382265694  0.2500003518604769  1.0000
  As  As2       1.0  0.7499992985386579  0.7500000966477798  0.7500003042914423  1.0000
  P   P1        1.0  0.9999999724272406  3.709754078950929e-08  0.9999999768002068  1.0000
  I   I1        1.0  0.2575907530270985  0.2575904831635677  0.7424092855866782  1.0000
  I   I2        1.0  0.7424094074664426  0.7424095198910942  0.2575904060015679  1.0000
  I   I3        1.0  0.7424094073318931  0.2575906851136139  0.25759041604618854  1.0000
  I   I4        1.0  0.2575908883950979  0.7424093501997724  0.7424093564156277  1.0000
  I   I5        1.0  0.2575906831642961  0.7424094634850897  0.2575904895247111  1.0000
  I   I6        1.0  0.7424093608948611  0.25759063795869414  0.7424094020449613  1.0000
