data_image0
_chemical_formula_structural       As2PCl6
_chemical_formula_sum              "As2 P1 Cl6"
_cell_length_a       6.988217186551819
_cell_length_b       6.988285592063744
_cell_length_c       6.988339810117254
_cell_angle_alpha    59.99974770122581
_cell_angle_beta     59.99964010673538
_cell_angle_gamma    59.99995823220027

_space_group_name_H-M_alt    "P 1"
_space_group_IT_number       1

loop_
  _space_group_symop_operation_xyz
  'x, y, z'

loop_
  _atom_site_type_symbol
  _atom_site_label
  _atom_site_symmetry_multiplicity
  _atom_site_fract_x
  _atom_site_fract_y
  _atom_site_fract_z
  _atom_site_occupancy
  As  As1       1.0  0.24995328861245925  0.2499844456952502  0.2500241761231682  1.0000
  As  As2       1.0  0.7499601976106521  0.7500077298186136  0.7500321149752875  1.0000
  P   P1        1.0  1.5410806801955187e-05  0.9999979004209146  0.9999887768033066  1.0000
  Cl  Cl1       1.0  0.22227855958828904  0.2222588545674153  0.7777348431580882  1.0000
  Cl  Cl2       1.0  0.7777486559071052  0.7777336609278342  0.222257662257291  1.0000
  Cl  Cl3       1.0  0.7777435386328686  0.22226515026818125  0.22225481982700837  1.0000
  Cl  Cl4       1.0  0.22227113445081434  0.7777424723944003  0.7777286388281591  1.0000
  Cl  Cl5       1.0  0.2222798199100076  0.7777420036499687  0.22224797876002458  1.0000
  Cl  Cl6       1.0  0.7777480652144857  0.2222667003446981  0.777730068979205  1.0000
