data_image0
_chemical_formula_structural       As2PF6
_chemical_formula_sum              "As2 P1 F6"
_cell_length_a       4.457059679672453
_cell_length_b       4.45705971893629
_cell_length_c       4.45705975862687
_cell_angle_alpha    59.99999745802787
_cell_angle_beta     59.99999754181438
_cell_angle_gamma    60.0000000857393

_space_group_name_H-M_alt    "P 1"
_space_group_IT_number       1

loop_
  _space_group_symop_operation_xyz
  'x, y, z'

loop_
  _atom_site_type_symbol
  _atom_site_label
  _atom_site_symmetry_multiplicity
  _atom_site_fract_x
  _atom_site_fract_y
  _atom_site_fract_z
  _atom_site_occupancy
  As  As1       1.0  0.24999982356168052  0.25000001502578406  0.2499998599318636  1.0000
  As  As2       1.0  0.7500000996066468  0.7499998060121046  0.7500003496289838  1.0000
  P   P1        1.0  7.144016061251628e-08  5.77054045837724e-08  0.9999999264526891  1.0000
  F   F1        1.0  0.28178793823976334  0.28178804991956263  0.7182120849569209  1.0000
  F   F2        1.0  0.7182120471282517  0.7182119964441888  0.28178788436498914  1.0000
  F   F3        1.0  0.7182120763819919  0.2817880756929379  0.2817878833074479  1.0000
  F   F4        1.0  0.281787949993088  0.7182119486878039  0.7182120540661184  1.0000
  F   F5        1.0  0.2817879806168842  0.7182120913650157  0.28178797596361727  1.0000
  F   F6        1.0  0.7182120143552161  0.28178794950298264  0.7182120114968106  1.0000
