data_image0
_chemical_formula_structural       As2SO6
_chemical_formula_sum              "As2 S1 O6"
_cell_length_a       4.663059168973694
_cell_length_b       4.663059214645099
_cell_length_c       4.663059163588549
_cell_angle_alpha    59.99999963817334
_cell_angle_beta     59.99999993463533
_cell_angle_gamma    59.99999972407202

_space_group_name_H-M_alt    "P 1"
_space_group_IT_number       1

loop_
  _space_group_symop_operation_xyz
  'x, y, z'

loop_
  _atom_site_type_symbol
  _atom_site_label
  _atom_site_symmetry_multiplicity
  _atom_site_fract_x
  _atom_site_fract_y
  _atom_site_fract_z
  _atom_site_occupancy
  As  As1       1.0  0.25000000193526023  0.250000026174201  0.24999999900846415  1.0000
  As  As2       1.0  0.7499999896735616  0.7500000154869959  0.749999974418373  1.0000
  S   S1        1.0  0.999999987043565  0.9999999868675816  3.234506113677036e-08  1.0000
  O   O1        1.0  0.24041917809085786  0.24041913525518757  0.7595808260421018  1.0000
  O   O2        1.0  0.759580860292492  0.7595808775146893  0.2404191148534672  1.0000
  O   O3        1.0  0.759580845821474  0.24041915684754447  0.24041916127295854  1.0000
  O   O4        1.0  0.2404191663743558  0.7595808007661756  0.7595808631847478  1.0000
  O   O5        1.0  0.24041914675326345  0.7595808389684046  0.24041917374578453  1.0000
  O   O6        1.0  0.7595808132648596  0.24041917117498857  0.7595808591139981  1.0000
