data_image0
_chemical_formula_structural       As2SiSe6
_chemical_formula_sum              "As2 Si1 Se6"
_cell_length_a       6.320867650101293
_cell_length_b       6.320867791236473
_cell_length_c       6.320867597083824
_cell_angle_alpha    59.99999987425266
_cell_angle_beta     59.99999933476001
_cell_angle_gamma    59.999999840164975

_space_group_name_H-M_alt    "P 1"
_space_group_IT_number       1

loop_
  _space_group_symop_operation_xyz
  'x, y, z'

loop_
  _atom_site_type_symbol
  _atom_site_label
  _atom_site_symmetry_multiplicity
  _atom_site_fract_x
  _atom_site_fract_y
  _atom_site_fract_z
  _atom_site_occupancy
  As  As1       1.0  0.24999985905661767  0.2500001442504277  0.24999981111958416  1.0000
  As  As2       1.0  0.7499998656092665  0.7500000277884046  0.7500000042083473  1.0000
  Si  Si1       1.0  8.48816145684495e-09  1.9376215149412888e-09  0.9999999789664954  1.0000
  Se  Se1       1.0  0.26641693136167355  0.26641690226504566  0.7335831427333592  1.0000
  Se  Se2       1.0  0.733583069671378  0.7335831147640701  0.2664169552231482  1.0000
  Se  Se3       1.0  0.7335831867914085  0.26641686769713974  0.2664169729580289  1.0000
  Se  Se4       1.0  0.2664169695235011  0.7335829575074561  0.7335832239549362  1.0000
  Se  Se5       1.0  0.26641696458195685  0.733583089773338  0.2664168789800016  1.0000
  Se  Se6       1.0  0.7335831485512111  0.2664168923785937  0.7335830269050932  1.0000
