data_image0
_chemical_formula_structural       As2SiO6
_chemical_formula_sum              "As2 Si1 O6"
_cell_length_a       4.6772613834395615
_cell_length_b       4.6772613436078565
_cell_length_c       4.6772612909596365
_cell_angle_alpha    60.00000031359201
_cell_angle_beta     60.00000074969496
_cell_angle_gamma    60.000000644289884

_space_group_name_H-M_alt    "P 1"
_space_group_IT_number       1

loop_
  _space_group_symop_operation_xyz
  'x, y, z'

loop_
  _atom_site_type_symbol
  _atom_site_label
  _atom_site_symmetry_multiplicity
  _atom_site_fract_x
  _atom_site_fract_y
  _atom_site_fract_z
  _atom_site_occupancy
  As  As1       1.0  0.24999998864661338  0.25000001738788546  0.24999999160482636  1.0000
  As  As2       1.0  0.7500000374353236  0.7499999709898928  0.7500000031716553  1.0000
  Si  Si1       1.0  1.3991072042047357e-08  0.9999999135892192  0.9999997732354505  1.0000
  O   O1        1.0  0.26101500086595997  0.26101495893434423  0.7389849772073506  1.0000
  O   O2        1.0  0.738985056834813  0.7389850975246557  0.26101490357900375  1.0000
  O   O3        1.0  0.7389849226327164  0.2610150692663586  0.2610150597703265  1.0000
  O   O4        1.0  0.2610148208602648  0.7389851521586759  0.7389851799913429  1.0000
  O   O5        1.0  0.26101505459649  0.7389849457876186  0.2610150079340232  1.0000
  O   O6        1.0  0.7389851038783187  0.26101487500561515  0.7389850985104395  1.0000
