data_image0
_chemical_formula_structural       As2SeO6
_chemical_formula_sum              "As2 Se1 O6"
_cell_length_a       4.389444196712727
_cell_length_b       4.389444593288865
_cell_length_c       4.3894450209876394
_cell_angle_alpha    60.000192747733806
_cell_angle_beta     59.99998081193656
_cell_angle_gamma    60.00008879338785

_space_group_name_H-M_alt    "P 1"
_space_group_IT_number       1

loop_
  _space_group_symop_operation_xyz
  'x, y, z'

loop_
  _atom_site_type_symbol
  _atom_site_label
  _atom_site_symmetry_multiplicity
  _atom_site_fract_x
  _atom_site_fract_y
  _atom_site_fract_z
  _atom_site_occupancy
  As  As1       1.0  0.25000337665437233  0.24999716950795636  0.24999697431313586  1.0000
  As  As2       1.0  0.7500022193587985  0.7500011375186556  0.7499981855141654  1.0000
  Se  Se1       1.0  0.9999998137538503  1.5625176464582186e-07  2.838241254441074e-07  1.0000
  O   O1        1.0  0.25997778527906384  0.2599793232491334  0.7400212806402452  1.0000
  O   O2        1.0  0.7400207491409942  0.7400185289851972  0.25998174951688724  1.0000
  O   O3        1.0  0.7400191565873613  0.25998231446956704  0.25997993564586697  1.0000
  O   O4        1.0  0.25997811625654205  0.7400229764372444  0.7400213227689122  1.0000
  O   O5        1.0  0.2599780127460164  0.7400188009659796  0.2599803839310183  1.0000
  O   O6        1.0  0.7400208343930003  0.2599796204637864  0.7400200774380552  1.0000
