data_image0
_chemical_formula_structural       Au2AsF6
_chemical_formula_sum              "Au2 As1 F6"
_cell_length_a       7.702128423042587
_cell_length_b       7.702127919427831
_cell_length_c       7.702125639834333
_cell_angle_alpha    60.00000304964624
_cell_angle_beta     60.000000321236186
_cell_angle_gamma    59.999994766147175

_space_group_name_H-M_alt    "P 1"
_space_group_IT_number       1

loop_
  _space_group_symop_operation_xyz
  'x, y, z'

loop_
  _atom_site_type_symbol
  _atom_site_label
  _atom_site_symmetry_multiplicity
  _atom_site_fract_x
  _atom_site_fract_y
  _atom_site_fract_z
  _atom_site_occupancy
  Au  Au1       1.0  0.2500004413706063  0.24999991110338668  0.24999902823083403  1.0000
  Au  Au2       1.0  0.75000101902612  0.7500001133531602  0.7499993686509315  1.0000
  As  As1       1.0  0.9999998601511936  0.9999999697873772  2.0967164510891145e-07  1.0000
  F   F1        1.0  0.16337868721298923  0.16337886212254382  0.8366212831649107  1.0000
  F   F2        1.0  0.8366208655246852  0.8366211194003572  0.1633791822180802  1.0000
  F   F3        1.0  0.8366208986889474  0.16337892313069646  0.1633791818680293  1.0000
  F   F4        1.0  0.16337869434514382  0.8366210679330285  0.8366213585687391  1.0000
  F   F5        1.0  0.16337863664846053  0.8366211629337519  0.1633791750289023  1.0000
  F   F6        1.0  0.8366208647059391  0.16337891876786498  0.8366212984149396  1.0000
