data_image0
_chemical_formula_structural       Au2AsF6
_chemical_formula_sum              "Au2 As1 F6"
_cell_length_a       7.688392971888946
_cell_length_b       7.688397876105815
_cell_length_c       7.68838250525478
_cell_angle_alpha    60.000034718839494
_cell_angle_beta     60.00001635956717
_cell_angle_gamma    60.000061846750725

_space_group_name_H-M_alt    "P 1"
_space_group_IT_number       1

loop_
  _space_group_symop_operation_xyz
  'x, y, z'

loop_
  _atom_site_type_symbol
  _atom_site_label
  _atom_site_symmetry_multiplicity
  _atom_site_fract_x
  _atom_site_fract_y
  _atom_site_fract_z
  _atom_site_occupancy
  Au  Au1       1.0  0.249993755785178  0.25000422892415713  0.25000331040690355  1.0000
  Au  Au2       1.0  0.7500026754687044  0.749996226550408  0.7499965616146506  1.0000
  As  As1       1.0  4.0989446109699746e-07  0.9999997435306733  5.658152703387134e-07  1.0000
  F   F1        1.0  0.1636764584434817  0.16367615981636127  0.836323744623543  1.0000
  F   F2        1.0  0.836324665446995  0.8363238607765694  0.16367620834723562  1.0000
  F   F3        1.0  0.8363248743939766  0.16367515259565824  0.16367677214340892  1.0000
  F   F4        1.0  0.16367624789566  0.8363244267426354  0.8363233242153919  1.0000
  F   F5        1.0  0.1636766913038245  0.836324292337117  0.1636757791262374  1.0000
  F   F6        1.0  0.8363242226417915  0.16367579038186883  0.8363241554068523  1.0000
