data_image0
_chemical_formula_structural       Au2AsCl6
_chemical_formula_sum              "Au2 As1 Cl6"
_cell_length_a       7.3199477353965055
_cell_length_b       7.319948230093313
_cell_length_c       7.319947581990839
_cell_angle_alpha    60.00000105192118
_cell_angle_beta     59.99999935990257
_cell_angle_gamma    59.999998690379826

_space_group_name_H-M_alt    "P 1"
_space_group_IT_number       1

loop_
  _space_group_symop_operation_xyz
  'x, y, z'

loop_
  _atom_site_type_symbol
  _atom_site_label
  _atom_site_symmetry_multiplicity
  _atom_site_fract_x
  _atom_site_fract_y
  _atom_site_fract_z
  _atom_site_occupancy
  Au  Au1       1.0  0.2499997593388771  0.24999994011288426  0.25000038997609814  1.0000
  Au  Au2       1.0  0.7500000053973005  0.7500003356720943  0.7499995376350231  1.0000
  As  As1       1.0  1.1860021647932396e-07  0.9999998192986619  0.9999997332342219  1.0000
  Cl  Cl1       1.0  0.23333490556816927  0.23333478164963065  0.7666652051032143  1.0000
  Cl  Cl2       1.0  0.7666651389109009  0.7666652180638479  0.23333477531741206  1.0000
  Cl  Cl3       1.0  0.7666650913046104  0.23333475873001747  0.23333495874992127  1.0000
  Cl  Cl4       1.0  0.23333485048029634  0.7666651941349648  0.766665347809957  1.0000
  Cl  Cl5       1.0  0.23333469165900672  0.7666651526008792  0.23333502502057055  1.0000
  Cl  Cl6       1.0  0.7666654292085008  0.23333481197622397  0.7666650085450447  1.0000
