data_image0
_chemical_formula_structural       Au2AsI6
_chemical_formula_sum              "Au2 As1 I6"
_cell_length_a       7.775932007185528
_cell_length_b       7.775931894145318
_cell_length_c       7.775931848063508
_cell_angle_alpha    60.000000177819096
_cell_angle_beta     59.9999997670382
_cell_angle_gamma    60.00000015490257

_space_group_name_H-M_alt    "P 1"
_space_group_IT_number       1

loop_
  _space_group_symop_operation_xyz
  'x, y, z'

loop_
  _atom_site_type_symbol
  _atom_site_label
  _atom_site_symmetry_multiplicity
  _atom_site_fract_x
  _atom_site_fract_y
  _atom_site_fract_z
  _atom_site_occupancy
  Au  Au1       1.0  0.24999999553631408  0.25000003187035025  0.24999995573221145  1.0000
  Au  Au2       1.0  0.7500000063356509  0.749999969607389  0.750000015500554  1.0000
  As  As1       1.0  1.1460256790480659e-08  0.9999999700741304  4.781339137562979e-08  1.0000
  I   I1        1.0  0.2569358580849084  0.2569358326447246  0.7430641800884447  1.0000
  I   I2        1.0  0.743064148512193  0.743064154657603  0.25693584731023833  1.0000
  I   I3        1.0  0.7430641425924804  0.25693585581255696  0.25693586842065613  1.0000
  I   I4        1.0  0.25693587430931486  0.7430641362149079  0.7430641167405847  1.0000
  I   I5        1.0  0.25693586060062745  0.7430641283437034  0.2569358674247811  1.0000
  I   I6        1.0  0.7430641123363301  0.25693591093513446  0.7430641019469778  1.0000
