data_image0
_chemical_formula_structural       Au2AsBr6
_chemical_formula_sum              "Au2 As1 Br6"
_cell_length_a       7.454670331380784
_cell_length_b       7.4546700869758915
_cell_length_c       7.454670120504313
_cell_angle_alpha    60.000001402814554
_cell_angle_beta     60.00000126483026
_cell_angle_gamma    60.000000994812645

_space_group_name_H-M_alt    "P 1"
_space_group_IT_number       1

loop_
  _space_group_symop_operation_xyz
  'x, y, z'

loop_
  _atom_site_type_symbol
  _atom_site_label
  _atom_site_symmetry_multiplicity
  _atom_site_fract_x
  _atom_site_fract_y
  _atom_site_fract_z
  _atom_site_occupancy
  Au  Au1       1.0  0.25000008534660806  0.24999997731184037  0.24999986755784648  1.0000
  Au  Au2       1.0  0.75000013276442  0.7499999253638352  0.7500000727122603  1.0000
  As  As1       1.0  0.9999999879680198  8.214614504147211e-09  0.9999999925185961  1.0000
  Br  Br1       1.0  0.2473352743968554  0.24733543059678106  0.7526646241221318  1.0000
  Br  Br2       1.0  0.7526646041450074  0.7526645985839578  0.2473353489007727  1.0000
  Br  Br3       1.0  0.752664606457096  0.24733537747282736  0.24733536902590939  1.0000
  Br  Br4       1.0  0.24733532356025129  0.7526646599225283  0.7526646720771362  1.0000
  Br  Br5       1.0  0.2473353734691555  0.7526646631629935  0.24733532856345386  1.0000
  Br  Br6       1.0  0.7526646083995178  0.24733536273190204  0.7526647017542455  1.0000
