data_image0
_chemical_formula_structural       Au2AsBr6
_chemical_formula_sum              "Au2 As1 Br6"
_cell_length_a       7.454393740190623
_cell_length_b       7.4543936836639455
_cell_length_c       7.454393872224997
_cell_angle_alpha    60.0000013173627
_cell_angle_beta     59.999999844634516
_cell_angle_gamma    59.999999920797826

_space_group_name_H-M_alt    "P 1"
_space_group_IT_number       1

loop_
  _space_group_symop_operation_xyz
  'x, y, z'

loop_
  _atom_site_type_symbol
  _atom_site_label
  _atom_site_symmetry_multiplicity
  _atom_site_fract_x
  _atom_site_fract_y
  _atom_site_fract_z
  _atom_site_occupancy
  Au  Au1       1.0  0.24999999793408917  0.25000000692337104  0.2499999815123426  1.0000
  Au  Au2       1.0  0.7499999984654494  0.7499999928393883  0.7499999990985009  1.0000
  As  As1       1.0  0.9999998994721472  0.9999998833481455  8.578450966996495e-08  1.0000
  Br  Br1       1.0  0.24747034392290443  0.24747032264706123  0.7525296685675598  1.0000
  Br  Br2       1.0  0.7525297211328127  0.7525297592648919  0.24747027151935735  1.0000
  Br  Br3       1.0  0.7525297190939985  0.24747031517582227  0.24747031161256602  1.0000
  Br  Br4       1.0  0.24747024756002364  0.7525297552352457  0.7525297330607965  1.0000
  Br  Br5       1.0  0.2474702834724014  0.7525297338656554  0.24747024348487473  1.0000
  Br  Br6       1.0  0.7525297859351296  0.2474702281084741  0.7525297061013806  1.0000
