data_image0
_chemical_formula_structural       Au2BI6
_chemical_formula_sum              "Au2 B1 I6"
_cell_length_a       7.3636101265672576
_cell_length_b       7.363610136154767
_cell_length_c       7.363610317660261
_cell_angle_alpha    60.000000029374924
_cell_angle_beta     59.999998537058666
_cell_angle_gamma    60.000000037634045

_space_group_name_H-M_alt    "P 1"
_space_group_IT_number       1

loop_
  _space_group_symop_operation_xyz
  'x, y, z'

loop_
  _atom_site_type_symbol
  _atom_site_label
  _atom_site_symmetry_multiplicity
  _atom_site_fract_x
  _atom_site_fract_y
  _atom_site_fract_z
  _atom_site_occupancy
  Au  Au1       1.0  0.2500000007967104  0.24999997007202815  0.25000001110436554  1.0000
  Au  Au2       1.0  0.7499999833335169  0.7500000050207472  0.7500000117354271  1.0000
  B   B1        1.0  5.891980709409555e-09  1.9958876560832658e-08  4.7289548984968335e-09  1.0000
  I   I1        1.0  0.2365527975530983  0.23655273958434297  0.7634472281044681  1.0000
  I   I2        1.0  0.763447199660162  0.7634472621202676  0.2365527776039495  1.0000
  I   I3        1.0  0.7634472448716643  0.23655274790392988  0.23655272183934772  1.0000
  I   I4        1.0  0.23655274524566655  0.7634472421580024  0.7634472633617247  1.0000
  I   I5        1.0  0.23655274379011526  0.7634472608573161  0.2365527148841829  1.0000
  I   I6        1.0  0.7634472797006527  0.23655276080617066  0.7634472609158953  1.0000
