data_image0
_chemical_formula_structural       Au2BiCl6
_chemical_formula_sum              "Au2 Bi1 Cl6"
_cell_length_a       7.344894563879768
_cell_length_b       7.344895106803587
_cell_length_c       7.344895091329002
_cell_angle_alpha    59.99999906499132
_cell_angle_beta     60.00000084832139
_cell_angle_gamma    60.000003680757864

_space_group_name_H-M_alt    "P 1"
_space_group_IT_number       1

loop_
  _space_group_symop_operation_xyz
  'x, y, z'

loop_
  _atom_site_type_symbol
  _atom_site_label
  _atom_site_symmetry_multiplicity
  _atom_site_fract_x
  _atom_site_fract_y
  _atom_site_fract_z
  _atom_site_occupancy
  Au  Au1       1.0  0.24999997840449753  0.2500000331850533  0.24999991593738521  1.0000
  Au  Au2       1.0  0.750000020554512  0.7499999661569423  0.7500000468617043  1.0000
  Bi  Bi1       1.0  0.99999997619486  6.669910229574033e-08  1.4601626733601108e-07  1.0000
  Cl  Cl1       1.0  0.2447922687259429  0.24479229002643824  0.7552077150178668  1.0000
  Cl  Cl2       1.0  0.7552077157353122  0.7552076726310478  0.24479228017980387  1.0000
  Cl  Cl3       1.0  0.7552077678129656  0.24479230548252878  0.2447922365532421  1.0000
  Cl  Cl4       1.0  0.24479244373285386  0.7552075654636909  0.7552077454173793  1.0000
  Cl  Cl5       1.0  0.24479219811925576  0.7552077809272765  0.2447921325788063  1.0000
  Cl  Cl6       1.0  0.7552076232208891  0.2447923268007646  0.7552077695323994  1.0000
