data_image0
_chemical_formula_structural       Au2BiI6
_chemical_formula_sum              "Au2 Bi1 I6"
_cell_length_a       8.083203719505947
_cell_length_b       8.083204002034828
_cell_length_c       8.083204077781343
_cell_angle_alpha    59.999999459981794
_cell_angle_beta     60.00000195157355
_cell_angle_gamma    60.00000288211176

_space_group_name_H-M_alt    "P 1"
_space_group_IT_number       1

loop_
  _space_group_symop_operation_xyz
  'x, y, z'

loop_
  _atom_site_type_symbol
  _atom_site_label
  _atom_site_symmetry_multiplicity
  _atom_site_fract_x
  _atom_site_fract_y
  _atom_site_fract_z
  _atom_site_occupancy
  Au  Au1       1.0  0.25000001712202186  0.2500000054719451  0.25000002579143515  1.0000
  Au  Au2       1.0  0.7500000033881479  0.7500000103551456  0.7499999992372871  1.0000
  Bi  Bi1       1.0  0.9999999005533717  0.9999999212110258  9.777773114190222e-08  1.0000
  I   I1        1.0  0.2677748369751526  0.2677748189405258  0.7322252084589055  1.0000
  I   I2        1.0  0.7322252155541319  0.732225190825876  0.2677747689508755  1.0000
  I   I3        1.0  0.7322251929788267  0.2677748146879649  0.2677748066747243  1.0000
  I   I4        1.0  0.26777483317362727  0.7322251799267113  0.7322251729423364  1.0000
  I   I5        1.0  0.26777480442862467  0.7322252053182794  0.26777479654194025  1.0000
  I   I6        1.0  0.7322251863995386  0.2677748438426074  0.7322251425358299  1.0000
