data_image0
_chemical_formula_structural       Au2BCl6
_chemical_formula_sum              "Au2 B1 Cl6"
_cell_length_a       7.352411111796949
_cell_length_b       7.352412146122378
_cell_length_c       7.352413060522006
_cell_angle_alpha    59.999999903926714
_cell_angle_beta     59.99999303297451
_cell_angle_gamma    59.99999367729746

_space_group_name_H-M_alt    "P 1"
_space_group_IT_number       1

loop_
  _space_group_symop_operation_xyz
  'x, y, z'

loop_
  _atom_site_type_symbol
  _atom_site_label
  _atom_site_symmetry_multiplicity
  _atom_site_fract_x
  _atom_site_fract_y
  _atom_site_fract_z
  _atom_site_occupancy
  Au  Au1       1.0  0.24999997886950776  0.24999990326165836  0.25000049288277376  1.0000
  Au  Au2       1.0  0.7499999043979584  0.7500001362228079  0.7500005865247812  1.0000
  B   B1        1.0  0.9999993701210595  0.9999997034925442  2.103470991495598e-06  1.0000
  Cl  Cl1       1.0  0.1993963421399098  0.19939614888045712  0.8006034245227264  1.0000
  Cl  Cl2       1.0  0.8006040183054869  0.8006040138710983  0.1993957103042253  1.0000
  Cl  Cl3       1.0  0.8006042380151462  0.1993959449340915  0.19939557118624016  1.0000
  Cl  Cl4       1.0  0.19939632976181468  0.8006036947647437  0.8006032413867925  1.0000
  Cl  Cl5       1.0  0.1993961127539931  0.8006039879680894  0.19939550404612044  1.0000
  Cl  Cl6       1.0  0.8006037880365295  0.1993964229836486  0.8006033448000442  1.0000
