data_image0
_chemical_formula_structural       Au2BiBr6
_chemical_formula_sum              "Au2 Bi1 Br6"
_cell_length_a       7.532052570201927
_cell_length_b       7.532052562357213
_cell_length_c       7.532052961696008
_cell_angle_alpha    59.999997964338895
_cell_angle_beta     59.99999661869466
_cell_angle_gamma    60.00000358891803

_space_group_name_H-M_alt    "P 1"
_space_group_IT_number       1

loop_
  _space_group_symop_operation_xyz
  'x, y, z'

loop_
  _atom_site_type_symbol
  _atom_site_label
  _atom_site_symmetry_multiplicity
  _atom_site_fract_x
  _atom_site_fract_y
  _atom_site_fract_z
  _atom_site_occupancy
  Au  Au1       1.0  0.24999998830276995  0.24999999150583246  0.2500000023276869  1.0000
  Au  Au2       1.0  0.7499999931992879  0.7500000184206864  0.7499999841625694  1.0000
  Bi  Bi1       1.0  9.382415139069148e-08  9.105846839916222e-08  0.9999999566820821  1.0000
  Br  Br1       1.0  0.26341505047418873  0.2634150403932053  0.7365849810077819  1.0000
  Br  Br2       1.0  0.736584886880339  0.7365848996134202  0.2634151182778768  1.0000
  Br  Br3       1.0  0.736584875217783  0.26341516830376055  0.26341516999818176  1.0000
  Br  Br4       1.0  0.26341521418757957  0.7365847570684778  0.7365847915409685  1.0000
  Br  Br5       1.0  0.2634151684764662  0.736584779999323  0.2634152622860383  1.0000
  Br  Br6       1.0  0.7365847221107285  0.2634152543178502  0.7365847322407973  1.0000
