data_image0
_chemical_formula_structural       Au2BiF6
_chemical_formula_sum              "Au2 Bi1 F6"
_cell_length_a       6.088246983703162
_cell_length_b       6.088247129573675
_cell_length_c       6.088247101098811
_cell_angle_alpha    60.00000051835677
_cell_angle_beta     60.000001369197996
_cell_angle_gamma    60.000001532930334

_space_group_name_H-M_alt    "P 1"
_space_group_IT_number       1

loop_
  _space_group_symop_operation_xyz
  'x, y, z'

loop_
  _atom_site_type_symbol
  _atom_site_label
  _atom_site_symmetry_multiplicity
  _atom_site_fract_x
  _atom_site_fract_y
  _atom_site_fract_z
  _atom_site_occupancy
  Au  Au1       1.0  0.24999986565832946  0.25000002762549695  0.2499999953316349  1.0000
  Au  Au2       1.0  0.7500000625079929  0.7499999380373832  0.7499999324110409  1.0000
  Bi  Bi1       1.0  0.999999984156601  2.011654247484745e-09  0.9999999921332922  1.0000
  F   F1        1.0  0.23989094192546187  0.2398910183221551  0.7601090568438981  1.0000
  F   F2        1.0  0.7601090538086485  0.7601090177486258  0.23989100229701904  1.0000
  F   F3        1.0  0.7601090610098603  0.23989098281845503  0.23989098273898965  1.0000
  F   F4        1.0  0.23989103794630715  0.7601090110075861  0.760109021275637  1.0000
  F   F5        1.0  0.23989093007827406  0.7601090470066012  0.2398910145770883  1.0000
  F   F6        1.0  0.7601090478007821  0.23989099711079698  0.7601089985502713  1.0000
