data_image0
_chemical_formula_structural       Au2GaBr6
_chemical_formula_sum              "Au2 Ga1 Br6"
_cell_length_a       7.2400843622595685
_cell_length_b       7.240084375432733
_cell_length_c       7.240084168394105
_cell_angle_alpha    60.000001309770056
_cell_angle_beta     60.00000119086632
_cell_angle_gamma    60.00000162278207

_space_group_name_H-M_alt    "P 1"
_space_group_IT_number       1

loop_
  _space_group_symop_operation_xyz
  'x, y, z'

loop_
  _atom_site_type_symbol
  _atom_site_label
  _atom_site_symmetry_multiplicity
  _atom_site_fract_x
  _atom_site_fract_y
  _atom_site_fract_z
  _atom_site_occupancy
  Au  Au1       1.0  0.24999997120326933  0.24999998518742758  0.24999999072120416  1.0000
  Au  Au2       1.0  0.7499999624537595  0.7500000147688721  0.7500000175847001  1.0000
  Ga  Ga1       1.0  0.9999999399089542  8.458084050314433e-08  0.9999999767055074  1.0000
  Br  Br1       1.0  0.24756277140843186  0.24756286922414195  0.7524371908254303  1.0000
  Br  Br2       1.0  0.7524371669032698  0.7524371933219802  0.2475628170070125  1.0000
  Br  Br3       1.0  0.7524372663823314  0.2475627779749458  0.24756271902773097  1.0000
  Br  Br4       1.0  0.24756290797321875  0.7524371171011128  0.7524371536902623  1.0000
  Br  Br5       1.0  0.24756280885996765  0.7524371561997254  0.24756287768370866  1.0000
  Br  Br6       1.0  0.752437208601093  0.24756279808292117  0.7524372510581471  1.0000
