data_image0
_chemical_formula_structural       Au2GaCl6
_chemical_formula_sum              "Au2 Ga1 Cl6"
_cell_length_a       7.115073514021164
_cell_length_b       7.115075211102636
_cell_length_c       7.115073597138326
_cell_angle_alpha    60.00000051085755
_cell_angle_beta     59.99998496166504
_cell_angle_gamma    60.00000102440077

_space_group_name_H-M_alt    "P 1"
_space_group_IT_number       1

loop_
  _space_group_symop_operation_xyz
  'x, y, z'

loop_
  _atom_site_type_symbol
  _atom_site_label
  _atom_site_symmetry_multiplicity
  _atom_site_fract_x
  _atom_site_fract_y
  _atom_site_fract_z
  _atom_site_occupancy
  Au  Au1       1.0  0.24999990645634815  0.24999996010896608  0.24999990655872453  1.0000
  Au  Au2       1.0  0.7499998890554019  0.7500006273875164  0.7499990940520737  1.0000
  Ga  Ga1       1.0  5.9147022705370506e-08  0.9999999053264143  2.2577237217153764e-07  1.0000
  Cl  Cl1       1.0  0.23516454985988403  0.23516447774395724  0.7648359442618177  1.0000
  Cl  Cl2       1.0  0.7648361497779713  0.7648354763001595  0.23516459211211602  1.0000
  Cl  Cl3       1.0  0.7648355094348511  0.23516426316552294  0.23516435586459986  1.0000
  Cl  Cl4       1.0  0.23516419919757117  0.7648351779199549  0.7648358868241782  1.0000
  Cl  Cl5       1.0  0.23516413447014708  0.7648356846067058  0.23516471886851767  1.0000
  Cl  Cl6       1.0  0.7648355155605999  0.23516456034353264  0.7648352959517664  1.0000
