data_image0
_chemical_formula_structural       Au2GaBr6
_chemical_formula_sum              "Au2 Ga1 Br6"
_cell_length_a       7.2378257310489165
_cell_length_b       7.237825641777642
_cell_length_c       7.237825440884326
_cell_angle_alpha    59.99999885731601
_cell_angle_beta     59.99999989751045
_cell_angle_gamma    60.00000040638395

_space_group_name_H-M_alt    "P 1"
_space_group_IT_number       1

loop_
  _space_group_symop_operation_xyz
  'x, y, z'

loop_
  _atom_site_type_symbol
  _atom_site_label
  _atom_site_symmetry_multiplicity
  _atom_site_fract_x
  _atom_site_fract_y
  _atom_site_fract_z
  _atom_site_occupancy
  Au  Au1       1.0  0.2500000363112033  0.24999995753819548  0.25000000747427575  1.0000
  Au  Au2       1.0  0.7499999981092818  0.7500000232154697  0.7500000135875924  1.0000
  Ga  Ga1       1.0  0.9999999696879813  0.9999999999999973  1.3950275125289947e-07  1.0000
  Br  Br1       1.0  0.24757835876010031  0.24757834044318508  0.7524215967716266  1.0000
  Br  Br2       1.0  0.7524216559353013  0.7524216707690876  0.2475783139195653  1.0000
  Br  Br3       1.0  0.7524217020687797  0.24757830784267776  0.24757835369423628  1.0000
  Br  Br4       1.0  0.24757836841758527  0.7524216221466457  0.7524216153067539  1.0000
  Br  Br5       1.0  0.24757830354443522  0.7524217141306022  0.24757830456987565  1.0000
  Br  Br6       1.0  0.7524216181024593  0.2475783799967628  0.7524216319124799  1.0000
