data_image0
_chemical_formula_structural       Au2GaCl6
_chemical_formula_sum              "Au2 Ga1 Cl6"
_cell_length_a       7.113554744048794
_cell_length_b       7.113554340826845
_cell_length_c       7.113554826884205
_cell_angle_alpha    59.999999663082384
_cell_angle_beta     59.999998619665014
_cell_angle_gamma    59.99999888609334

_space_group_name_H-M_alt    "P 1"
_space_group_IT_number       1

loop_
  _space_group_symop_operation_xyz
  'x, y, z'

loop_
  _atom_site_type_symbol
  _atom_site_label
  _atom_site_symmetry_multiplicity
  _atom_site_fract_x
  _atom_site_fract_y
  _atom_site_fract_z
  _atom_site_occupancy
  Au  Au1       1.0  0.25000013337455257  0.2500000517555077  0.24999983419922642  1.0000
  Au  Au2       1.0  0.7499997188243516  0.7500000175300614  0.7500005320587743  1.0000
  Ga  Ga1       1.0  3.14970296900101e-08  2.238217876139217e-08  2.647953850630694e-08  1.0000
  Cl  Cl1       1.0  0.23520360798750098  0.23520343089815482  0.7647964404721544  1.0000
  Cl  Cl2       1.0  0.7647964983737074  0.7647965040943382  0.2352033513405388  1.0000
  Cl  Cl3       1.0  0.7647964863262284  0.23520351326955685  0.2352034323369435  1.0000
  Cl  Cl4       1.0  0.23520339864977366  0.7647965112516468  0.7647965111557821  1.0000
  Cl  Cl5       1.0  0.23520368900116742  0.7647963427595453  0.23520340403742207  1.0000
  Cl  Cl6       1.0  0.7647964644171  0.2352036215019518  0.7647964705081938  1.0000
