data_image0
_chemical_formula_structural       Au2GaF6
_chemical_formula_sum              "Au2 Ga1 F6"
_cell_length_a       5.396992218726396
_cell_length_b       5.396992329002629
_cell_length_c       5.396991959890116
_cell_angle_alpha    60.00000057967832
_cell_angle_beta     59.99999880667401
_cell_angle_gamma    60.00000110075035

_space_group_name_H-M_alt    "P 1"
_space_group_IT_number       1

loop_
  _space_group_symop_operation_xyz
  'x, y, z'

loop_
  _atom_site_type_symbol
  _atom_site_label
  _atom_site_symmetry_multiplicity
  _atom_site_fract_x
  _atom_site_fract_y
  _atom_site_fract_z
  _atom_site_occupancy
  Au  Au1       1.0  0.24999984429400313  0.25000000885435975  0.25000000015367546  1.0000
  Au  Au2       1.0  0.7499998992600909  0.7499999993313587  0.7500002366694325  1.0000
  Ga  Ga1       1.0  2.7187186974540222e-08  0.9999999954613806  0.9999999497651519  1.0000
  F   F1        1.0  0.2479698167913632  0.2479697391480657  0.752030267421365  1.0000
  F   F2        1.0  0.7520302352438389  0.7520302486138665  0.24796967343658868  1.0000
  F   F3        1.0  0.7520303247910374  0.24796977691769292  0.2479697307786111  1.0000
  F   F4        1.0  0.24796975821353248  0.7520301949590694  0.7520302507122265  1.0000
  F   F5        1.0  0.24796981024583833  0.752030267358934  0.247969706246433  1.0000
  F   F6        1.0  0.7520302869344456  0.24796978394367805  0.752030172857102  1.0000
