data_image0
_chemical_formula_structural       Au2GaI6
_chemical_formula_sum              "Au2 Ga1 I6"
_cell_length_a       7.665715463664477
_cell_length_b       7.665715307498664
_cell_length_c       7.665715517295454
_cell_angle_alpha    60.000000032144435
_cell_angle_beta     60.00000027849999
_cell_angle_gamma    60.00000069731371

_space_group_name_H-M_alt    "P 1"
_space_group_IT_number       1

loop_
  _space_group_symop_operation_xyz
  'x, y, z'

loop_
  _atom_site_type_symbol
  _atom_site_label
  _atom_site_symmetry_multiplicity
  _atom_site_fract_x
  _atom_site_fract_y
  _atom_site_fract_z
  _atom_site_occupancy
  Au  Au1       1.0  0.2500000037031565  0.24999999967235742  0.24999999600530948  1.0000
  Au  Au2       1.0  0.7500000019044916  0.749999981442465  0.7500000001012114  1.0000
  Ga  Ga1       1.0  0.9999999742255239  0.9999999824253925  1.906552227454337e-08  1.0000
  I   I1        1.0  0.2557270501278902  0.25572704613826003  0.744272952408063  1.0000
  I   I2        1.0  0.744272971318268  0.7442729733211603  0.25572702704298156  1.0000
  I   I3        1.0  0.7442729597326914  0.25572704939490465  0.25572702611008774  1.0000
  I   I4        1.0  0.25572704347058084  0.7442729524899083  0.744272976467742  1.0000
  I   I5        1.0  0.2557270222467267  0.7442729769977321  0.25572703263022756  1.0000
  I   I6        1.0  0.7442729691644445  0.2557270376686133  0.7442729655393573  1.0000
