data_image0
_chemical_formula_structural       Au2GaI6
_chemical_formula_sum              "Au2 Ga1 I6"
_cell_length_a       7.6638324855504765
_cell_length_b       7.663832426366681
_cell_length_c       7.66383205315279
_cell_angle_alpha    60.000000842870875
_cell_angle_beta     60.00000162440816
_cell_angle_gamma    59.999998922479776

_space_group_name_H-M_alt    "P 1"
_space_group_IT_number       1

loop_
  _space_group_symop_operation_xyz
  'x, y, z'

loop_
  _atom_site_type_symbol
  _atom_site_label
  _atom_site_symmetry_multiplicity
  _atom_site_fract_x
  _atom_site_fract_y
  _atom_site_fract_z
  _atom_site_occupancy
  Au  Au1       1.0  0.2499999669386467  0.2500000196144709  0.2500000091763537  1.0000
  Au  Au2       1.0  0.7500000232546246  0.7499999853315422  0.749999962615916  1.0000
  Ga  Ga1       1.0  0.9999999834264308  1.4580995281425268e-16  2.916406877040349e-08  1.0000
  I   I1        1.0  0.25580997639529546  0.25580997019493906  0.7441900034635636  1.0000
  I   I2        1.0  0.7441900616777744  0.7441899995932229  0.25581001155128247  1.0000
  I   I3        1.0  0.7441900733522343  0.25580988949535827  0.25580993299203736  1.0000
  I   I4        1.0  0.25580994910557797  0.7441901090583176  0.7441900637042079  1.0000
  I   I5        1.0  0.2558098871621969  0.7441901176582487  0.25580989701558393  1.0000
  I   I6        1.0  0.7441901002762045  0.25580990007243737  0.7441900723714444  1.0000
