data_image0
_chemical_formula_structural       Au2IrF6
_chemical_formula_sum              "Au2 Ir1 F6"
_cell_length_a       7.700723879271888
_cell_length_b       7.70072312569956
_cell_length_c       7.700717891582397
_cell_angle_alpha    60.00001262643678
_cell_angle_beta     60.00000559937871
_cell_angle_gamma    59.99998897277276

_space_group_name_H-M_alt    "P 1"
_space_group_IT_number       1

loop_
  _space_group_symop_operation_xyz
  'x, y, z'

loop_
  _atom_site_type_symbol
  _atom_site_label
  _atom_site_symmetry_multiplicity
  _atom_site_fract_x
  _atom_site_fract_y
  _atom_site_fract_z
  _atom_site_occupancy
  Au  Au1       1.0  0.24999896844132588  0.2500003354986237  0.24999996988665607  1.0000
  Au  Au2       1.0  0.7499994156688654  0.7499998407114145  0.7500003788314786  1.0000
  Ir  Ir1       1.0  1.2968209403997191e-07  0.9999999618296945  6.187297982803461e-09  1.0000
  F   F1        1.0  0.17292813225509718  0.17292794152893728  0.8270720315045939  1.0000
  F   F2        1.0  0.8270723406793608  0.8270721265315687  0.172927712554192  1.0000
  F   F3        1.0  0.8270723292547401  0.17292776767618429  0.17292811293565039  1.0000
  F   F4        1.0  0.17292817992696444  0.8270721556553375  0.8270717450987002  1.0000
  F   F5        1.0  0.17292823329080767  0.8270717861809422  0.1729280089196148  1.0000
  F   F6        1.0  0.8270723168184725  0.17292798287902497  0.8270719629242603  1.0000
