data_image0
_chemical_formula_structural       Au2IrBr6
_chemical_formula_sum              "Au2 Ir1 Br6"
_cell_length_a       7.26947166557391
_cell_length_b       7.269471538483889
_cell_length_c       7.269471674379301
_cell_angle_alpha    60.00000027315811
_cell_angle_beta     59.999998805212606
_cell_angle_gamma    60.0000002443937

_space_group_name_H-M_alt    "P 1"
_space_group_IT_number       1

loop_
  _space_group_symop_operation_xyz
  'x, y, z'

loop_
  _atom_site_type_symbol
  _atom_site_label
  _atom_site_symmetry_multiplicity
  _atom_site_fract_x
  _atom_site_fract_y
  _atom_site_fract_z
  _atom_site_occupancy
  Au  Au1       1.0  0.2500000489266354  0.25000006603704106  0.24999997129546658  1.0000
  Au  Au2       1.0  0.7500000034089112  0.7499999420248038  0.7500000420830356  1.0000
  Ir  Ir1       1.0  2.055316254745088e-08  5.054334813527789e-09  0.9999999500546249  1.0000
  Br  Br1       1.0  0.2423409687502401  0.24234094423730043  0.7576590286656584  1.0000
  Br  Br2       1.0  0.7576590119300369  0.7576590452919807  0.2423409802845926  1.0000
  Br  Br3       1.0  0.7576590450270461  0.24234094399124106  0.24234097681951133  1.0000
  Br  Br4       1.0  0.2423408860101292  0.7576590943966139  0.7576590586597043  1.0000
  Br  Br5       1.0  0.24234096844304526  0.7576590128095984  0.242340954281164  1.0000
  Br  Br6       1.0  0.757659047953399  0.2423409362850014  0.7576590556527276  1.0000
