data_image0
_chemical_formula_structural       Au2IrI6
_chemical_formula_sum              "Au2 Ir1 I6"
_cell_length_a       7.491244323016328
_cell_length_b       7.49124432499163
_cell_length_c       7.491244291354929
_cell_angle_alpha    59.99999953129902
_cell_angle_beta     60.00000001405334
_cell_angle_gamma    59.9999997814457

_space_group_name_H-M_alt    "P 1"
_space_group_IT_number       1

loop_
  _space_group_symop_operation_xyz
  'x, y, z'

loop_
  _atom_site_type_symbol
  _atom_site_label
  _atom_site_symmetry_multiplicity
  _atom_site_fract_x
  _atom_site_fract_y
  _atom_site_fract_z
  _atom_site_occupancy
  Au  Au1       1.0  0.2500000024575542  0.2499999891603104  0.2500000060340762  1.0000
  Au  Au2       1.0  0.7499999999140816  0.7500000083534761  0.7499999893812208  1.0000
  Ir  Ir1       1.0  0.9999999968397404  0.9999999771113751  0.9999999823219328  1.0000
  I   I1        1.0  0.2523169898948594  0.252316981799784  0.7476830152247964  1.0000
  I   I2        1.0  0.7476830275167718  0.7476830353328241  0.2523169695355506  1.0000
  I   I3        1.0  0.7476830069305068  0.2523169638473896  0.2523169978341719  1.0000
  I   I4        1.0  0.2523169888240626  0.7476830303965932  0.7476830265526112  1.0000
  I   I5        1.0  0.25231697258687497  0.7476830532461463  0.2523169711364372  1.0000
  I   I6        1.0  0.7476830187144546  0.2523169589817565  0.7476830344709803  1.0000
