data_image0
_chemical_formula_structural       Au2IrCl6
_chemical_formula_sum              "Au2 Ir1 Cl6"
_cell_length_a       7.207492793591839
_cell_length_b       7.207493124727526
_cell_length_c       7.207493178786063
_cell_angle_alpha    60.00000029253268
_cell_angle_beta     60.00000062084602
_cell_angle_gamma    60.00000053129564

_space_group_name_H-M_alt    "P 1"
_space_group_IT_number       1

loop_
  _space_group_symop_operation_xyz
  'x, y, z'

loop_
  _atom_site_type_symbol
  _atom_site_label
  _atom_site_symmetry_multiplicity
  _atom_site_fract_x
  _atom_site_fract_y
  _atom_site_fract_z
  _atom_site_occupancy
  Au  Au1       1.0  0.2500000035071434  0.24999988965438505  0.25000001047758447  1.0000
  Au  Au2       1.0  0.7499999721767064  0.7500001396598612  0.7499998610424468  1.0000
  Ir  Ir1       1.0  0.9999999814386038  0.9999999932029356  6.123980312896782e-08  1.0000
  Cl  Cl1       1.0  0.22768549928294207  0.22768521953984103  0.7723146679968453  1.0000
  Cl  Cl2       1.0  0.7723145094310822  0.7723147299088986  0.22768541008358525  1.0000
  Cl  Cl3       1.0  0.772314631483832  0.22768543828020238  0.22768529996269804  1.0000
  Cl  Cl4       1.0  0.2276853405266143  0.7723145876355114  0.7723146916386767  1.0000
  Cl  Cl5       1.0  0.22768530426749128  0.7723145994092413  0.2276854697457468  1.0000
  Cl  Cl6       1.0  0.7723147407113572  0.2276853806262876  0.7723145402227543  1.0000
