data_image0
_chemical_formula_structural       Au2MoF6
_chemical_formula_sum              "Au2 Mo1 F6"
_cell_length_a       8.183772710603963
_cell_length_b       8.183773397969286
_cell_length_c       8.183774423078361
_cell_angle_alpha    59.99998564893292
_cell_angle_beta     59.99999391610193
_cell_angle_gamma    59.99998781405317

_space_group_name_H-M_alt    "P 1"
_space_group_IT_number       1

loop_
  _space_group_symop_operation_xyz
  'x, y, z'

loop_
  _atom_site_type_symbol
  _atom_site_label
  _atom_site_symmetry_multiplicity
  _atom_site_fract_x
  _atom_site_fract_y
  _atom_site_fract_z
  _atom_site_occupancy
  Au  Au1       1.0  0.25000046428007044  0.24999955950773212  0.24999986512987982  1.0000
  Au  Au2       1.0  0.7500003678146333  0.750000119703761  0.74999979788053  1.0000
  Mo  Mo1       1.0  0.9999998135643945  1.8257948240690027e-07  0.9999999726017248  1.0000
  F   F1        1.0  0.16181227579146998  0.16181270524328653  0.8381873766776327  1.0000
  F   F2        1.0  0.8381874688290406  0.8381873241616844  0.16181260120817811  1.0000
  F   F3        1.0  0.838187238064448  0.16181273408387664  0.1618126020171748  1.0000
  F   F4        1.0  0.16181247361722717  0.8381874195349389  0.8381878128934966  1.0000
  F   F5        1.0  0.1618123957117274  0.8381873398122104  0.1618124219255572  1.0000
  F   F6        1.0  0.8381873016622634  0.16181272551003717  0.8381875494055712  1.0000
