data_image0
_chemical_formula_structural       Au2MoCl6
_chemical_formula_sum              "Au2 Mo1 Cl6"
_cell_length_a       11.331128749339799
_cell_length_b       11.331131243357717
_cell_length_c       11.331131112950446
_cell_angle_alpha    59.999997444541535
_cell_angle_beta     59.999999550765374
_cell_angle_gamma    60.00000566766855

_space_group_name_H-M_alt    "P 1"
_space_group_IT_number       1

loop_
  _space_group_symop_operation_xyz
  'x, y, z'

loop_
  _atom_site_type_symbol
  _atom_site_label
  _atom_site_symmetry_multiplicity
  _atom_site_fract_x
  _atom_site_fract_y
  _atom_site_fract_z
  _atom_site_occupancy
  Au  Au1       1.0  0.2500006160297273  0.25000001997868193  0.24999958392735797  1.0000
  Au  Au2       1.0  0.7499994483496277  0.7500004630994046  0.75000027517208  1.0000
  Mo  Mo1       1.0  0.9999999789301994  0.9999999470375053  2.113070810383189e-08  1.0000
  Cl  Cl1       1.0  0.14492995770491837  0.14492997750874778  0.8550698268243387  1.0000
  Cl  Cl2       1.0  0.8550700244493485  0.8550699543270571  0.14493009572428153  1.0000
  Cl  Cl3       1.0  0.8550701233641923  0.14492992683223832  0.144929927002993  1.0000
  Cl  Cl4       1.0  0.14492988782865382  0.855069960688007  0.855070071138501  1.0000
  Cl  Cl5       1.0  0.14493009697409218  0.8550700232533558  0.14492986014062736  1.0000
  Cl  Cl6       1.0  0.8550698207644748  0.14492986642862168  0.8550701598189757  1.0000
