data_image0
_chemical_formula_structural       Au2MoBr6
_chemical_formula_sum              "Au2 Mo1 Br6"
_cell_length_a       7.707515163727627
_cell_length_b       7.707515179982636
_cell_length_c       7.707515147008252
_cell_angle_alpha    59.99999940564785
_cell_angle_beta     59.999998323371116
_cell_angle_gamma    59.99999965298346

_space_group_name_H-M_alt    "P 1"
_space_group_IT_number       1

loop_
  _space_group_symop_operation_xyz
  'x, y, z'

loop_
  _atom_site_type_symbol
  _atom_site_label
  _atom_site_symmetry_multiplicity
  _atom_site_fract_x
  _atom_site_fract_y
  _atom_site_fract_z
  _atom_site_occupancy
  Au  Au1       1.0  0.2500000626703474  0.2499999309952013  0.25000010311112597  1.0000
  Au  Au2       1.0  0.7499998627724016  0.7500000361067154  0.7500000870128382  1.0000
  Mo  Mo1       1.0  2.9796815392814506e-08  0.9999999825207045  0.9999999510258843  1.0000
  Br  Br1       1.0  0.22752121722602148  0.22752115865135514  0.7724787900137187  1.0000
  Br  Br2       1.0  0.7724787829268293  0.7724788449981801  0.22752117062509278  1.0000
  Br  Br3       1.0  0.7724788578890075  0.22752122388818188  0.2275211763421887  1.0000
  Br  Br4       1.0  0.22752118657216502  0.7724788131309178  0.7724787636217691  1.0000
  Br  Br5       1.0  0.22752118494769571  0.7724787838850963  0.22752121103573772  1.0000
  Br  Br6       1.0  0.7724788047181121  0.22752121976443895  0.7724787756055556  1.0000
