data_image0
_chemical_formula_structural       Au2NF6
_chemical_formula_sum              "Au2 N1 F6"
_cell_length_a       5.515600825095624
_cell_length_b       5.515599822828976
_cell_length_c       5.515600547937098
_cell_angle_alpha    59.99998972707894
_cell_angle_beta     59.99998659217955
_cell_angle_gamma    59.99998826460533

_space_group_name_H-M_alt    "P 1"
_space_group_IT_number       1

loop_
  _space_group_symop_operation_xyz
  'x, y, z'

loop_
  _atom_site_type_symbol
  _atom_site_label
  _atom_site_symmetry_multiplicity
  _atom_site_fract_x
  _atom_site_fract_y
  _atom_site_fract_z
  _atom_site_occupancy
  Au  Au1       1.0  0.25000122538968034  0.24999883952625035  0.2499984114558242  1.0000
  Au  Au2       1.0  0.7500005103512836  0.7500000181041919  0.7499950711399131  1.0000
  N   N1        1.0  0.9999997783808248  1.3101014536764663e-07  9.409458986475407e-07  1.0000
  F   F1        1.0  0.22011466724313775  0.22011543717942064  0.7798858342624848  1.0000
  F   F2        1.0  0.7798846558490956  0.7798850058958485  0.22011684973640627  1.0000
  F   F3        1.0  0.779884938953739  0.22011433448261628  0.22011615869051673  1.0000
  F   F4        1.0  0.22011574824192617  0.7798850560704139  0.7798851003902303  1.0000
  F   F5        1.0  0.22011448731711225  0.7798854636987126  0.2201159818791516  1.0000
  F   F6        1.0  0.7798840228261665  0.22011549009411505  0.7798860881329651  1.0000
