data_image0
_chemical_formula_structural       Au2NCl6
_chemical_formula_sum              "Au2 N1 Cl6"
_cell_length_a       11.257936328011704
_cell_length_b       11.257943521617905
_cell_length_c       11.257940827818862
_cell_angle_alpha    60.00001698416056
_cell_angle_beta     59.99997962483755
_cell_angle_gamma    59.99999373343832

_space_group_name_H-M_alt    "P 1"
_space_group_IT_number       1

loop_
  _space_group_symop_operation_xyz
  'x, y, z'

loop_
  _atom_site_type_symbol
  _atom_site_label
  _atom_site_symmetry_multiplicity
  _atom_site_fract_x
  _atom_site_fract_y
  _atom_site_fract_z
  _atom_site_occupancy
  Au  Au1       1.0  0.25000086896550217  0.2500005355096693  0.24999948845787034  1.0000
  Au  Au2       1.0  0.7499965925789632  0.7500037812298124  0.7499985313798527  1.0000
  N   N1        1.0  5.692599109566848e-07  0.9999994614924959  2.1379530115495774e-07  1.0000
  Cl  Cl1       1.0  0.1329415711477354  0.13293934972923355  0.8670597957227255  1.0000
  Cl  Cl2       1.0  0.867059185977638  0.8670596004298747  0.13294061421359407  1.0000
  Cl  Cl3       1.0  0.8670604485640294  0.13293983103714313  0.13294062297828532  1.0000
  Cl  Cl4       1.0  0.13294098970182805  0.8670586480638297  0.8670598009438862  1.0000
  Cl  Cl5       1.0  0.1329402557955272  0.86705852228749  0.1329412034780673  1.0000
  Cl  Cl6       1.0  0.8670597566261887  0.13293980342082656  0.8670600420399984  1.0000
