data_image0
_chemical_formula_structural       Au2NF6
_chemical_formula_sum              "Au2 N1 F6"
_cell_length_a       5.517165062010366
_cell_length_b       5.51716533015223
_cell_length_c       5.517166077855057
_cell_angle_alpha    60.000000359681444
_cell_angle_beta     60.000000053590284
_cell_angle_gamma    60.000001620833245

_space_group_name_H-M_alt    "P 1"
_space_group_IT_number       1

loop_
  _space_group_symop_operation_xyz
  'x, y, z'

loop_
  _atom_site_type_symbol
  _atom_site_label
  _atom_site_symmetry_multiplicity
  _atom_site_fract_x
  _atom_site_fract_y
  _atom_site_fract_z
  _atom_site_occupancy
  Au  Au1       1.0  0.24999902252018652  0.2500012671577843  0.2500005811863146  1.0000
  Au  Au2       1.0  0.7499993454829057  0.7500002452245357  0.7500013822084993  1.0000
  N   N1        1.0  2.61006168787542e-07  0.999999775792045  0.9999996281585731  1.0000
  F   F1        1.0  0.22009762585930048  0.22009725944445743  0.7799022370705985  1.0000
  F   F2        1.0  0.7799029512491453  0.7799021840090266  0.22009695919917346  1.0000
  F   F3        1.0  0.7799024826085544  0.22009757644631237  0.22009720847251438  1.0000
  F   F4        1.0  0.22009749263719605  0.7799024419562782  0.779902706326168  1.0000
  F   F5        1.0  0.220097779901997  0.7799022421911371  0.22009696225550904  1.0000
  F   F6        1.0  0.7799029494857747  0.22009700813272792  0.7799021420628758  1.0000
