data_image0
_chemical_formula_structural       Au2NCl6
_chemical_formula_sum              "Au2 N1 Cl6"
_cell_length_a       11.087857924036827
_cell_length_b       11.087854290528917
_cell_length_c       11.087881438436128
_cell_angle_alpha    59.99985356426531
_cell_angle_beta     59.99991001994559
_cell_angle_gamma    59.999871961378844

_space_group_name_H-M_alt    "P 1"
_space_group_IT_number       1

loop_
  _space_group_symop_operation_xyz
  'x, y, z'

loop_
  _atom_site_type_symbol
  _atom_site_label
  _atom_site_symmetry_multiplicity
  _atom_site_fract_x
  _atom_site_fract_y
  _atom_site_fract_z
  _atom_site_occupancy
  Au  Au1       1.0  0.2500084575611771  0.2499993125440071  0.24999476252192163  1.0000
  Au  Au2       1.0  0.7499994278276988  0.7500017528732952  0.7499998672140857  1.0000
  N   N1        1.0  0.9999989830398653  0.9999997735605337  7.443564990784609e-07  1.0000
  Cl  Cl1       1.0  0.13497597813252776  0.13498179244848532  0.8650217087905389  1.0000
  Cl  Cl2       1.0  0.8650215943305639  0.8650181352499754  0.1349802002186844  1.0000
  Cl  Cl3       1.0  0.8650173123621869  0.134978407598892  0.13498048748364844  1.0000
  Cl  Cl4       1.0  0.1349801951532049  0.8650210119911813  0.865021161511239  1.0000
  Cl  Cl5       1.0  0.13497949884608482  0.8650219263667656  0.13497875765726064  1.0000
  Cl  Cl6       1.0  0.8650194043960852  0.13497782680747059  0.8650216533011662  1.0000
