data_image0
_chemical_formula_structural       Au2PI6
_chemical_formula_sum              "Au2 P1 I6"
_cell_length_a       7.598733175582677
_cell_length_b       7.598733101980283
_cell_length_c       7.598733148409022
_cell_angle_alpha    60.00000009784288
_cell_angle_beta     59.99999994677532
_cell_angle_gamma    59.99999927716845

_space_group_name_H-M_alt    "P 1"
_space_group_IT_number       1

loop_
  _space_group_symop_operation_xyz
  'x, y, z'

loop_
  _atom_site_type_symbol
  _atom_site_label
  _atom_site_symmetry_multiplicity
  _atom_site_fract_x
  _atom_site_fract_y
  _atom_site_fract_z
  _atom_site_occupancy
  Au  Au1       1.0  0.25000000079257534  0.24999999456201935  0.2500000020120594  1.0000
  Au  Au2       1.0  0.7499999934286915  0.7500000014155841  0.7499999898018529  1.0000
  P   P1        1.0  0.9999999678119447  1.4505975938631374e-08  0.999999982520863  1.0000
  I   I1        1.0  0.25599077992063846  0.25599078404240955  0.7440092184763395  1.0000
  I   I2        1.0  0.7440092472708476  0.7440092361118202  0.25599076713630026  1.0000
  I   I3        1.0  0.7440092460432571  0.2559907716614674  0.2559907589355551  1.0000
  I   I4        1.0  0.2559907522917187  0.744009221092586  0.7440092508574013  1.0000
  I   I5        1.0  0.2559907364487854  0.7440092255639053  0.25599079641654554  1.0000
  I   I6        1.0  0.7440092745038541  0.2559907430135217  0.7440092441600601  1.0000
