data_image0
_chemical_formula_structural       Au2PCl6
_chemical_formula_sum              "Au2 P1 Cl6"
_cell_length_a       7.623428774854683
_cell_length_b       7.6234293923495136
_cell_length_c       7.623429337096562
_cell_angle_alpha    59.99999584702446
_cell_angle_beta     59.99999421578287
_cell_angle_gamma    59.999997530217556

_space_group_name_H-M_alt    "P 1"
_space_group_IT_number       1

loop_
  _space_group_symop_operation_xyz
  'x, y, z'

loop_
  _atom_site_type_symbol
  _atom_site_label
  _atom_site_symmetry_multiplicity
  _atom_site_fract_x
  _atom_site_fract_y
  _atom_site_fract_z
  _atom_site_occupancy
  Au  Au1       1.0  0.24999998054155456  0.2500002703873454  0.24999981681979097  1.0000
  Au  Au2       1.0  0.750000020852494  0.7500004689660906  0.7499994520806241  1.0000
  P   P1        1.0  8.539459157932528e-09  0.9999998698691437  1.1720076409129044e-07  1.0000
  Cl  Cl1       1.0  0.20017689538529543  0.200177016781473  0.7998230470214682  1.0000
  Cl  Cl2       1.0  0.799823008075154  0.7998228212952906  0.20017717797158888  1.0000
  Cl  Cl3       1.0  0.7998229580428546  0.20017690381027045  0.20017711003389352  1.0000
  Cl  Cl4       1.0  0.20017705260766017  0.7998229262337222  0.7998231007976455  1.0000
  Cl  Cl5       1.0  0.20017706158034293  0.7998229099586474  0.20017707536384755  1.0000
  Cl  Cl6       1.0  0.7998230090927706  0.200176817265905  0.7998231437486581  1.0000
