data_image0
_chemical_formula_structural       Au2PF6
_chemical_formula_sum              "Au2 P1 F6"
_cell_length_a       7.437005727822493
_cell_length_b       7.4370077271438655
_cell_length_c       7.437006144522871
_cell_angle_alpha    59.99999262798004
_cell_angle_beta     59.999988438542324
_cell_angle_gamma    59.9999834212047

_space_group_name_H-M_alt    "P 1"
_space_group_IT_number       1

loop_
  _space_group_symop_operation_xyz
  'x, y, z'

loop_
  _atom_site_type_symbol
  _atom_site_label
  _atom_site_symmetry_multiplicity
  _atom_site_fract_x
  _atom_site_fract_y
  _atom_site_fract_z
  _atom_site_occupancy
  Au  Au1       1.0  0.25000118200836  0.24999943298017924  0.2499995256144798  1.0000
  Au  Au2       1.0  0.7499984582150299  0.7500004875714646  0.750002531473422  1.0000
  P   P1        1.0  3.0801912767747885e-06  9.090475652573288e-07  0.9999922248283538  1.0000
  F   F1        1.0  0.15599924818428434  0.15599960285016898  0.8440005763650219  1.0000
  F   F2        1.0  0.8439984528411506  0.8439991204603041  0.15600125521016497  1.0000
  F   F3        1.0  0.8439979918015952  0.15600124880372762  0.15600192767433385  1.0000
  F   F4        1.0  0.15599905594713745  0.8440006034738897  0.8440015892746531  1.0000
  F   F5        1.0  0.15600187085953832  0.8439984904769532  0.1560005844828323  1.0000
  F   F6        1.0  0.8440004682819291  0.15599942588828603  0.844000903375782  1.0000
