data_image0
_chemical_formula_structural       Au2RhBr6
_chemical_formula_sum              "Au2 Rh1 Br6"
_cell_length_a       7.192625764692698
_cell_length_b       7.1926258102772564
_cell_length_c       7.192625555457577
_cell_angle_alpha    59.9999994653326
_cell_angle_beta     59.99999893442651
_cell_angle_gamma    59.9999983826325

_space_group_name_H-M_alt    "P 1"
_space_group_IT_number       1

loop_
  _space_group_symop_operation_xyz
  'x, y, z'

loop_
  _atom_site_type_symbol
  _atom_site_label
  _atom_site_symmetry_multiplicity
  _atom_site_fract_x
  _atom_site_fract_y
  _atom_site_fract_z
  _atom_site_occupancy
  Au  Au1       1.0  0.2499999763229319  0.2500000122240699  0.2500000003767438  1.0000
  Au  Au2       1.0  0.7499999968990118  0.7499999821832949  0.7500000708767892  1.0000
  Rh  Rh1       1.0  1.550306622236934e-08  0.9999999727555434  0.9999999905772535  1.0000
  Br  Br1       1.0  0.24411714295105916  0.2441171075658875  0.7558828684832622  1.0000
  Br  Br2       1.0  0.7558828722865986  0.755882900463706  0.244117084580961  1.0000
  Br  Br3       1.0  0.7558828722355387  0.24411711847052892  0.24411713861488799  1.0000
  Br  Br4       1.0  0.2441171295913655  0.7558828912618429  0.7558828494998938  1.0000
  Br  Br5       1.0  0.24411712012096698  0.7558828836189692  0.24411710831483807  1.0000
  Br  Br6       1.0  0.7558828762247758  0.24411713292451698  0.7558828749640286  1.0000
