data_image0
_chemical_formula_structural       Au2RuBr6
_chemical_formula_sum              "Au2 Ru1 Br6"
_cell_length_a       7.286003915011023
_cell_length_b       7.2860037982299755
_cell_length_c       7.286003824527144
_cell_angle_alpha    60.00000253304395
_cell_angle_beta     60.000003369435454
_cell_angle_gamma    60.00000098308496

_space_group_name_H-M_alt    "P 1"
_space_group_IT_number       1

loop_
  _space_group_symop_operation_xyz
  'x, y, z'

loop_
  _atom_site_type_symbol
  _atom_site_label
  _atom_site_symmetry_multiplicity
  _atom_site_fract_x
  _atom_site_fract_y
  _atom_site_fract_z
  _atom_site_occupancy
  Au  Au1       1.0  0.24999993515176286  0.24999996281413564  0.25000008326767953  1.0000
  Au  Au2       1.0  0.7500000358116765  0.7500000531760452  0.7499998806962245  1.0000
  Ru  Ru1       1.0  2.2247788976143022e-09  2.185242161999558e-08  0.9999999660014887  1.0000
  Br  Br1       1.0  0.24180313171727727  0.24180315233505978  0.7581968552538344  1.0000
  Br  Br2       1.0  0.7581968748647938  0.758196851888433  0.2418031448214051  1.0000
  Br  Br3       1.0  0.7581968461206314  0.2418031776823915  0.24180314096569078  1.0000
  Br  Br4       1.0  0.24180317416450178  0.758196828222057  0.7581968623974958  1.0000
  Br  Br5       1.0  0.24180312464135803  0.7581968117441794  0.2418031766170269  1.0000
  Br  Br6       1.0  0.7581968608107236  0.24180313700778094  0.7581968699939389  1.0000
