data_image0
_chemical_formula_structural       Au2RuI6
_chemical_formula_sum              "Au2 Ru1 I6"
_cell_length_a       7.531419478589742
_cell_length_b       7.5314195659726675
_cell_length_c       7.5314194829439645
_cell_angle_alpha    60.00000010087878
_cell_angle_beta     60.00000029915935
_cell_angle_gamma    59.999999967400775

_space_group_name_H-M_alt    "P 1"
_space_group_IT_number       1

loop_
  _space_group_symop_operation_xyz
  'x, y, z'

loop_
  _atom_site_type_symbol
  _atom_site_label
  _atom_site_symmetry_multiplicity
  _atom_site_fract_x
  _atom_site_fract_y
  _atom_site_fract_z
  _atom_site_occupancy
  Au  Au1       1.0  0.2499999940074117  0.2499999981522897  0.2499999985165569  1.0000
  Au  Au2       1.0  0.7499999982521283  0.7500000009615916  0.7499999987878434  1.0000
  Ru  Ru1       1.0  3.761733647872609e-08  0.9999999837381935  0.9999999627668161  1.0000
  I   I1        1.0  0.2520562843950606  0.25205624292686635  0.7479437533129515  1.0000
  I   I2        1.0  0.7479437338514562  0.7479437334204858  0.25205626760887306  1.0000
  I   I3        1.0  0.7479437301592298  0.2520562860475615  0.2520562878700774  1.0000
  I   I4        1.0  0.25205626028812417  0.7479437277019454  0.7479437481668155  1.0000
  I   I5        1.0  0.25205624581618913  0.7479437525478551  0.2520562561046281  1.0000
  I   I6        1.0  0.7479437172970153  0.25205627421109716  0.7479437207060691  1.0000
