data_image0
_chemical_formula_structural       Au2RhF6
_chemical_formula_sum              "Au2 Rh1 F6"
_cell_length_a       5.685816359226161
_cell_length_b       5.6858162816757565
_cell_length_c       5.685816747469129
_cell_angle_alpha    59.999998786229554
_cell_angle_beta     60.00000145540959
_cell_angle_gamma    60.00000154767083

_space_group_name_H-M_alt    "P 1"
_space_group_IT_number       1

loop_
  _space_group_symop_operation_xyz
  'x, y, z'

loop_
  _atom_site_type_symbol
  _atom_site_label
  _atom_site_symmetry_multiplicity
  _atom_site_fract_x
  _atom_site_fract_y
  _atom_site_fract_z
  _atom_site_occupancy
  Au  Au1       1.0  0.2499999461842113  0.2500002600297098  0.24999988321665143  1.0000
  Au  Au2       1.0  0.7499998859311485  0.7500000347929265  0.7500001287571998  1.0000
  Rh  Rh1       1.0  1.2206199185626937e-08  0.9999999633814006  1.7482486827159473e-08  1.0000
  F   F1        1.0  0.24255252473596947  0.24255242802554572  0.7574475177865804  1.0000
  F   F2        1.0  0.7574475556423476  0.7574474144496888  0.24255245025222594  1.0000
  F   F3        1.0  0.7574474816168518  0.24255250652430227  0.24255239268414552  1.0000
  F   F4        1.0  0.242552540644791  0.7574474371905889  0.7574476100735621  1.0000
  F   F5        1.0  0.2425524494627522  0.7574474701484765  0.24255251153257937  1.0000
  F   F6        1.0  0.7574475944412967  0.24255243910185087  0.7574474835661088  1.0000
