data_image0
_chemical_formula_structural       Au2RuCl6
_chemical_formula_sum              "Au2 Ru1 Cl6"
_cell_length_a       7.493755351406903
_cell_length_b       7.493756185550715
_cell_length_c       7.493754986530537
_cell_angle_alpha    60.000000078008114
_cell_angle_beta     59.99999935504119
_cell_angle_gamma    59.999999962109435

_space_group_name_H-M_alt    "P 1"
_space_group_IT_number       1

loop_
  _space_group_symop_operation_xyz
  'x, y, z'

loop_
  _atom_site_type_symbol
  _atom_site_label
  _atom_site_symmetry_multiplicity
  _atom_site_fract_x
  _atom_site_fract_y
  _atom_site_fract_z
  _atom_site_occupancy
  Au  Au1       1.0  0.2500001100871066  0.2500000007287353  0.24999964713960202  1.0000
  Au  Au2       1.0  0.7499999352209741  0.7499998975875146  0.7500003495361467  1.0000
  Ru  Ru1       1.0  0.9999999781632541  0.9999999869251721  0.9999999827602312  1.0000
  Cl  Cl1       1.0  0.21867247938064646  0.21867249686628998  0.781327552037025  1.0000
  Cl  Cl2       1.0  0.7813275353713862  0.78132757632581  0.21867243252881793  1.0000
  Cl  Cl3       1.0  0.7813275182691691  0.21867246359576936  0.2186725204168887  1.0000
  Cl  Cl4       1.0  0.21867246446886127  0.7813274837510924  0.7813275324030243  1.0000
  Cl  Cl5       1.0  0.2186725253395387  0.7813276446002392  0.21867243381283283  1.0000
  Cl  Cl6       1.0  0.7813274829364762  0.2186724988690726  0.7813275201868551  1.0000
