data_image0
_chemical_formula_structural       Au2RhI6
_chemical_formula_sum              "Au2 Rh1 I6"
_cell_length_a       7.486820499149267
_cell_length_b       7.486820564444784
_cell_length_c       7.486820622278076
_cell_angle_alpha    59.999999545594264
_cell_angle_beta     60.00000025219002
_cell_angle_gamma    60.00000038546897

_space_group_name_H-M_alt    "P 1"
_space_group_IT_number       1

loop_
  _space_group_symop_operation_xyz
  'x, y, z'

loop_
  _atom_site_type_symbol
  _atom_site_label
  _atom_site_symmetry_multiplicity
  _atom_site_fract_x
  _atom_site_fract_y
  _atom_site_fract_z
  _atom_site_occupancy
  Au  Au1       1.0  0.2500000086499872  0.25000000283125173  0.249999985886089  1.0000
  Au  Au2       1.0  0.7500000018343275  0.7499999790481344  0.7500000031384209  1.0000
  Rh  Rh1       1.0  0.9999999784076468  0.9999999999999998  4.151682713675344e-08  1.0000
  I   I1        1.0  0.25172667988818515  0.25172669794046254  0.7482732958896381  1.0000
  I   I2        1.0  0.7482733144245652  0.7482733231997509  0.25172668426160066  1.0000
  I   I3        1.0  0.7482732761894856  0.2517267278212007  0.251726687442941  1.0000
  I   I4        1.0  0.25172671985268935  0.7482732835038058  0.7482732793873432  1.0000
  I   I5        1.0  0.25172670401433106  0.7482732959324483  0.25172670978289274  1.0000
  I   I6        1.0  0.7482733130909601  0.25172668921867325  0.7482733116943138  1.0000
