data_image0
_chemical_formula_structural       Au2SbCl6
_chemical_formula_sum              "Au2 Sb1 Cl6"
_cell_length_a       7.542112886047756
_cell_length_b       7.5421132123468135
_cell_length_c       7.542113672845556
_cell_angle_alpha    59.99999535527447
_cell_angle_beta     59.99999692557558
_cell_angle_gamma    59.99999969032122

_space_group_name_H-M_alt    "P 1"
_space_group_IT_number       1

loop_
  _space_group_symop_operation_xyz
  'x, y, z'

loop_
  _atom_site_type_symbol
  _atom_site_label
  _atom_site_symmetry_multiplicity
  _atom_site_fract_x
  _atom_site_fract_y
  _atom_site_fract_z
  _atom_site_occupancy
  Au  Au1       1.0  0.2500000153182617  0.2499999251572984  0.24999994113140883  1.0000
  Au  Au2       1.0  0.7500001179993946  0.7500000921275141  0.7499999247171891  1.0000
  Sb  Sb1       1.0  0.999999898040956  2.111037124922183e-08  9.743753096018757e-08  1.0000
  Cl  Cl1       1.0  0.22522103646662178  0.2252209697047983  0.7747790497230046  1.0000
  Cl  Cl2       1.0  0.7747790186318867  0.7747789745056322  0.2252210535307275  1.0000
  Cl  Cl3       1.0  0.7747789419747401  0.22522103826178744  0.2252210672917698  1.0000
  Cl  Cl4       1.0  0.22522109314377686  0.7747788832143945  0.7747789936764462  1.0000
  Cl  Cl5       1.0  0.22522092949257097  0.7747789912866019  0.22522094931397496  1.0000
  Cl  Cl6       1.0  0.7747789627914135  0.2252210877054585  0.7747789226668724  1.0000
