data_image0
_chemical_formula_structural       Au2SbF6
_chemical_formula_sum              "Au2 Sb1 F6"
_cell_length_a       8.462740807128514
_cell_length_b       8.462739401893
_cell_length_c       8.462742726360595
_cell_angle_alpha    60.00000062413255
_cell_angle_beta     60.00000067002562
_cell_angle_gamma    60.000002141767176

_space_group_name_H-M_alt    "P 1"
_space_group_IT_number       1

loop_
  _space_group_symop_operation_xyz
  'x, y, z'

loop_
  _atom_site_type_symbol
  _atom_site_label
  _atom_site_symmetry_multiplicity
  _atom_site_fract_x
  _atom_site_fract_y
  _atom_site_fract_z
  _atom_site_occupancy
  Au  Au1       1.0  0.2500000363096471  0.2499997298551051  0.2500002026160268  1.0000
  Au  Au2       1.0  0.749999851056366  0.7500002865582959  0.7499999271433233  1.0000
  Sb  Sb1       1.0  0.999999927159011  7.525541295648196e-08  0.9999996620225393  1.0000
  F   F1        1.0  0.1614690444166654  0.1614691575172661  0.83853085042921  1.0000
  F   F2        1.0  0.8385309845496991  0.8385308270572793  0.1614691027394469  1.0000
  F   F3        1.0  0.8385310159290419  0.16146912681658973  0.16146910710949047  1.0000
  F   F4        1.0  0.16146903321320497  0.8385309445911978  0.8385309544406653  1.0000
  F   F5        1.0  0.1614693044252625  0.8385307987377478  0.16146907678354397  1.0000
  F   F6        1.0  0.8385308988079931  0.161469015064841  0.8385311653235404  1.0000
