data_image0
_chemical_formula_structural       Au2SbBr6
_chemical_formula_sum              "Au2 Sb1 Br6"
_cell_length_a       7.5033999874705675
_cell_length_b       7.503400052671515
_cell_length_c       7.503400092241347
_cell_angle_alpha    60.00000016731683
_cell_angle_beta     59.99999918091891
_cell_angle_gamma    60.000000435348646

_space_group_name_H-M_alt    "P 1"
_space_group_IT_number       1

loop_
  _space_group_symop_operation_xyz
  'x, y, z'

loop_
  _atom_site_type_symbol
  _atom_site_label
  _atom_site_symmetry_multiplicity
  _atom_site_fract_x
  _atom_site_fract_y
  _atom_site_fract_z
  _atom_site_occupancy
  Au  Au1       1.0  0.24999999682945329  0.24999997743512967  0.25000000535920935  1.0000
  Au  Au2       1.0  0.7500000113795527  0.749999966582706  0.7499999671697067  1.0000
  Sb  Sb1       1.0  0.9999999079110853  2.0239939577386914e-07  1.2742865332331733e-07  1.0000
  Br  Br1       1.0  0.24396833630934064  0.2439683262477024  0.7560316537343164  1.0000
  Br  Br2       1.0  0.7560315915193201  0.7560316096088673  0.24396843503277937  1.0000
  Br  Br3       1.0  0.7560317233114374  0.2439682681487285  0.24396823877564294  1.0000
  Br  Br4       1.0  0.24396842506313315  0.7560316154757394  0.7560315965779467  1.0000
  Br  Br5       1.0  0.2439683780862024  0.7560316372844906  0.24396835346907142  1.0000
  Br  Br6       1.0  0.7560316367744521  0.24396838834600473  0.7560316229059401  1.0000
