data_image0
_chemical_formula_structural       Au2SbI6
_chemical_formula_sum              "Au2 Sb1 I6"
_cell_length_a       7.952468486752704
_cell_length_b       7.952468542742453
_cell_length_c       7.952468088970168
_cell_angle_alpha    60.00000156698131
_cell_angle_beta     60.00000115297627
_cell_angle_gamma    59.99999739202168

_space_group_name_H-M_alt    "P 1"
_space_group_IT_number       1

loop_
  _space_group_symop_operation_xyz
  'x, y, z'

loop_
  _atom_site_type_symbol
  _atom_site_label
  _atom_site_symmetry_multiplicity
  _atom_site_fract_x
  _atom_site_fract_y
  _atom_site_fract_z
  _atom_site_occupancy
  Au  Au1       1.0  0.2499999790108231  0.24999999804191056  0.25000001312854414  1.0000
  Au  Au2       1.0  0.7500000192102946  0.7499999741046705  0.749999996990009  1.0000
  Sb  Sb1       1.0  9.410082295097174e-08  4.004211158661429e-08  3.2268761142437116e-08  1.0000
  I   I1        1.0  0.2633441020361387  0.2633441764398198  0.7366558429079552  1.0000
  I   I2        1.0  0.7366558725125422  0.736655818807983  0.26334412348471176  1.0000
  I   I3        1.0  0.7366559195490104  0.2633440707535693  0.2633440478301684  1.0000
  I   I4        1.0  0.2633440232166568  0.7366559414351296  0.7366559674801084  1.0000
  I   I5        1.0  0.26334400936304875  0.7366559422579032  0.26334403889696795  1.0000
  I   I6        1.0  0.7366559682657953  0.26334404374941106  0.7366559393781602  1.0000
