data_image0
_chemical_formula_structural       Au2TaF6
_chemical_formula_sum              "Au2 Ta1 F6"
_cell_length_a       11.177970463272457
_cell_length_b       11.177904908571602
_cell_length_c       11.17790182562302
_cell_angle_alpha    60.0004345553974
_cell_angle_beta     59.99922391823554
_cell_angle_gamma    59.99954625083961

_space_group_name_H-M_alt    "P 1"
_space_group_IT_number       1

loop_
  _space_group_symop_operation_xyz
  'x, y, z'

loop_
  _atom_site_type_symbol
  _atom_site_label
  _atom_site_symmetry_multiplicity
  _atom_site_fract_x
  _atom_site_fract_y
  _atom_site_fract_z
  _atom_site_occupancy
  Au  Au1       1.0  0.24999679527329305  0.2500021960731192  0.2500025863270744  1.0000
  Au  Au2       1.0  0.7499940689196891  0.750002146287018  0.7500049266619699  1.0000
  Ta  Ta1       1.0  0.9999854507437452  7.586640270592216e-06  1.276851392877878e-05  1.0000
  F   F1        1.0  0.12268562220033753  0.12266101234069697  0.8773160881386431  1.0000
  F   F2        1.0  0.8773304956482331  0.8772949849495207  0.12267276239938253  1.0000
  F   F3        1.0  0.8773076634874555  0.12270730844056373  0.12269574377881155  1.0000
  F   F4        1.0  0.12266555274355923  0.8773394393241316  0.8773359146050255  1.0000
  F   F5        1.0  0.12270478349307598  0.877304323329435  0.1226693301441237  1.0000
  F   F6        1.0  0.8773289196194407  0.12268161656262877  0.8772898447631227  1.0000
