data_image0
_chemical_formula_structural       Au2TaBr6
_chemical_formula_sum              "Au2 Ta1 Br6"
_cell_length_a       7.9132706949634
_cell_length_b       7.913271141178841
_cell_length_c       7.913271445399532
_cell_angle_alpha    59.99999953207734
_cell_angle_beta     59.99999990079463
_cell_angle_gamma    59.99999998025899

_space_group_name_H-M_alt    "P 1"
_space_group_IT_number       1

loop_
  _space_group_symop_operation_xyz
  'x, y, z'

loop_
  _atom_site_type_symbol
  _atom_site_label
  _atom_site_symmetry_multiplicity
  _atom_site_fract_x
  _atom_site_fract_y
  _atom_site_fract_z
  _atom_site_occupancy
  Au  Au1       1.0  0.24999997187937725  0.2499999014238676  0.2499999931798099  1.0000
  Au  Au2       1.0  0.7499999986452047  0.7499999936933679  0.7499999866710926  1.0000
  Ta  Ta1       1.0  0.9999999950761391  5.416984931437753e-08  0.999999993068804  1.0000
  Br  Br1       1.0  0.2258840276315807  0.22588402366704968  0.7741159878086763  1.0000
  Br  Br2       1.0  0.7741159889068956  0.7741160091963736  0.2258840138951741  1.0000
  Br  Br3       1.0  0.7741159567364477  0.22588401685824672  0.22588404120934094  1.0000
  Br  Br4       1.0  0.22588403705932628  0.7741160098143367  0.7741159787523796  1.0000
  Br  Br5       1.0  0.22588405806451867  0.7741159708715716  0.22588400680989268  1.0000
  Br  Br6       1.0  0.7741159613190197  0.22588404032391182  0.7741160169423951  1.0000
