data_image0
_chemical_formula_structural       Au2TaCl6
_chemical_formula_sum              "Au2 Ta1 Cl6"
_cell_length_a       8.242486431472987
_cell_length_b       8.242486863848624
_cell_length_c       8.242487430207223
_cell_angle_alpha    59.99999493865752
_cell_angle_beta     59.99999678088801
_cell_angle_gamma    59.999994986204996

_space_group_name_H-M_alt    "P 1"
_space_group_IT_number       1

loop_
  _space_group_symop_operation_xyz
  'x, y, z'

loop_
  _atom_site_type_symbol
  _atom_site_label
  _atom_site_symmetry_multiplicity
  _atom_site_fract_x
  _atom_site_fract_y
  _atom_site_fract_z
  _atom_site_occupancy
  Au  Au1       1.0  0.250000028676455  0.24999970591644083  0.2500000397415722  1.0000
  Au  Au2       1.0  0.7499998208727257  0.7500000687205092  0.7500004169007456  1.0000
  Ta  Ta1       1.0  1.2664033479906207e-08  4.6062669421359005e-08  0.999999903909218  1.0000
  Cl  Cl1       1.0  0.20268767130913082  0.2026875891013215  0.7973124103833178  1.0000
  Cl  Cl2       1.0  0.7973122898540106  0.7973125525510822  0.20268752790230743  1.0000
  Cl  Cl3       1.0  0.7973123685818664  0.202687709688223  0.20268746909959118  1.0000
  Cl  Cl4       1.0  0.2026876562317951  0.797312375500265  0.7973124267695015  1.0000
  Cl  Cl5       1.0  0.20268767633160842  0.7973123262322874  0.20268755032396252  1.0000
  Cl  Cl6       1.0  0.7973124714249761  0.20268762968355097  0.7973122941148273  1.0000
