data_image0
_chemical_formula_structural       Au2YBr6
_chemical_formula_sum              "Au2 Y1 Br6"
_cell_length_a       7.701722832529942
_cell_length_b       7.701722860076561
_cell_length_c       7.7017226223087345
_cell_angle_alpha    59.99999956216918
_cell_angle_beta     59.9999989153691
_cell_angle_gamma    59.999999965957045

_space_group_name_H-M_alt    "P 1"
_space_group_IT_number       1

loop_
  _space_group_symop_operation_xyz
  'x, y, z'

loop_
  _atom_site_type_symbol
  _atom_site_label
  _atom_site_symmetry_multiplicity
  _atom_site_fract_x
  _atom_site_fract_y
  _atom_site_fract_z
  _atom_site_occupancy
  Au  Au1       1.0  0.2500000073888189  0.24999999913736762  0.2499999887766498  1.0000
  Au  Au2       1.0  0.74999998556282  0.75000000377299  0.7500000217020599  1.0000
  Y   Y1        1.0  4.122361496609545e-08  0.9999999348008994  1.0287650044515537e-07  1.0000
  Br  Br1       1.0  0.2560357011035832  0.2560357567917919  0.7439642472040239  1.0000
  Br  Br2       1.0  0.7439643122324987  0.7439642254456809  0.2560357387491012  1.0000
  Br  Br3       1.0  0.7439642695224548  0.25603572411492226  0.2560357328143952  1.0000
  Br  Br4       1.0  0.2560357250947485  0.7439642962878769  0.7439642693837225  1.0000
  Br  Br5       1.0  0.2560356924631138  0.7439643245471532  0.25603572437515687  1.0000
  Br  Br6       1.0  0.743964255736285  0.25603574515252714  0.743964171212146  1.0000
