data_image0
_chemical_formula_structural       Au2YCl6
_chemical_formula_sum              "Au2 Y1 Cl6"
_cell_length_a       11.352873837441445
_cell_length_b       11.352877676587722
_cell_length_c       11.352877869128312
_cell_angle_alpha    59.99999382493975
_cell_angle_beta     59.999997269746856
_cell_angle_gamma    60.0000050209387

_space_group_name_H-M_alt    "P 1"
_space_group_IT_number       1

loop_
  _space_group_symop_operation_xyz
  'x, y, z'

loop_
  _atom_site_type_symbol
  _atom_site_label
  _atom_site_symmetry_multiplicity
  _atom_site_fract_x
  _atom_site_fract_y
  _atom_site_fract_z
  _atom_site_occupancy
  Au  Au1       1.0  0.25000052837045333  0.2500002021414291  0.24999997901210244  1.0000
  Au  Au2       1.0  0.7499996242133091  0.7500006916492842  0.749999746524436  1.0000
  Y   Y1        1.0  0.9999999636012491  0.9999999352721852  6.553745984386824e-08  1.0000
  Cl  Cl1       1.0  0.16628629020385394  0.16628626978775515  0.8337134160658671  1.0000
  Cl  Cl2       1.0  0.8337141937856946  0.8337130500384011  0.16628630095388816  1.0000
  Cl  Cl3       1.0  0.8337132093894752  0.16628651905396324  0.16628611032309107  1.0000
  Cl  Cl4       1.0  0.16628656740526876  0.8337135462207624  0.8337140191783263  1.0000
  Cl  Cl5       1.0  0.16628623844410761  0.8337140612972664  0.16628642999606752  1.0000
  Cl  Cl6       1.0  0.8337134070461554  0.1662857601693479  0.8337140412075845  1.0000
