data_image0
_chemical_formula_structural       Au2YI6
_chemical_formula_sum              "Au2 Y1 I6"
_cell_length_a       11.534835711006348
_cell_length_b       11.534836709061352
_cell_length_c       11.53483789848504
_cell_angle_alpha    59.99998042847069
_cell_angle_beta     59.99998954523699
_cell_angle_gamma    59.99998784268957

_space_group_name_H-M_alt    "P 1"
_space_group_IT_number       1

loop_
  _space_group_symop_operation_xyz
  'x, y, z'

loop_
  _atom_site_type_symbol
  _atom_site_label
  _atom_site_symmetry_multiplicity
  _atom_site_fract_x
  _atom_site_fract_y
  _atom_site_fract_z
  _atom_site_occupancy
  Au  Au1       1.0  0.25000021708004616  0.250000119699134  0.2499996519314596  1.0000
  Au  Au2       1.0  0.7499998878327782  0.7499995680717714  0.7500000008951235  1.0000
  Y   Y1        1.0  0.999999994686053  0.9999997186284951  3.324151659628416e-08  1.0000
  I   I1        1.0  0.18632819356321006  0.18632935355404684  0.8136717675064318  1.0000
  I   I2        1.0  0.8136709227214748  0.813670942616193  0.186329549230688  1.0000
  I   I3        1.0  0.813672061292496  0.1863287968141338  0.1863282788642615  1.0000
  I   I4        1.0  0.18632850689543357  0.8136709546635089  0.81367118156037  1.0000
  I   I5        1.0  0.18632892692067413  0.8136714196228151  0.186328470916129  1.0000
  I   I6        1.0  0.8136712034986336  0.18632917066047872  0.8136709831842193  1.0000
