data_image0
_chemical_formula_structural       B2CBr6
_chemical_formula_sum              "B2 C1 Br6"
_cell_length_a       2.4427974529452245
_cell_length_b       4.0493693272139994
_cell_length_c       2.538819456819091
_cell_angle_alpha    53.78072910762598
_cell_angle_beta     75.22173865310198
_cell_angle_gamma    58.38049863068771

_space_group_name_H-M_alt    "P 1"
_space_group_IT_number       1

loop_
  _space_group_symop_operation_xyz
  'x, y, z'

loop_
  _atom_site_type_symbol
  _atom_site_label
  _atom_site_symmetry_multiplicity
  _atom_site_fract_x
  _atom_site_fract_y
  _atom_site_fract_z
  _atom_site_occupancy
  B   B1        1.0  0.28365773556253804  0.21395074377829726  0.14606830284128458  1.0000
  B   B2        1.0  0.7376459852318988  0.36152987071927956  0.774948824204322  1.0000
  C   C1        1.0  0.9196545224095576  0.7769161375165856  0.18003416382435644  1.0000
  Br  Br1       1.0  0.9560168322939497  0.858557647035555  0.9547904329048466  1.0000
  Br  Br2       1.0  0.0951542432198722  0.5666583868141843  0.20234318665182116  1.0000
  Br  Br3       1.0  0.15749620565904565  0.5671395114584984  0.09659464621319659  1.0000
  Br  Br4       1.0  0.8255603883799227  0.0044031783490290355  0.8338150765711307  1.0000
  Br  Br5       1.0  0.9686798670919312  0.962279471780661  0.6734380341476882  1.0000
  Br  Br6       1.0  0.9815840636300869  0.7225345712293753  0.009394003001307523  1.0000
