data_image0
_chemical_formula_structural       B2CCl6
_chemical_formula_sum              "B2 C1 Cl6"
_cell_length_a       4.8938658873884755
_cell_length_b       6.43006541130413
_cell_length_c       4.135825635240419
_cell_angle_alpha    27.13286019978696
_cell_angle_beta     48.78965614243319
_cell_angle_gamma    38.43366445673345

_space_group_name_H-M_alt    "P 1"
_space_group_IT_number       1

loop_
  _space_group_symop_operation_xyz
  'x, y, z'

loop_
  _atom_site_type_symbol
  _atom_site_label
  _atom_site_symmetry_multiplicity
  _atom_site_fract_x
  _atom_site_fract_y
  _atom_site_fract_z
  _atom_site_occupancy
  B   B1        1.0  0.0013917981223429132  0.6892286838611941  0.9939180587395412  1.0000
  B   B2        1.0  0.021572918970599236  0.7292690858636411  0.9140609068399033  1.0000
  C   C1        1.0  0.026278811391324937  0.7201892591159691  0.9227511892937503  1.0000
  Cl  Cl1       1.0  0.11517909803222304  0.03836326265700616  0.7281385977177232  1.0000
  Cl  Cl2       1.0  0.1934026308405725  0.13142163162228684  0.41860778513888974  1.0000
  Cl  Cl3       1.0  0.2823301529921216  0.054669698631478636  0.5007007271787284  1.0000
  Cl  Cl4       1.0  0.2707533017064649  0.11006908238059163  0.6667011391533317  1.0000
  Cl  Cl5       1.0  0.9816203876228954  0.5742917106438932  0.1980676475811399  1.0000
  Cl  Cl6       1.0  0.32263690011758017  0.1452490026669292  0.4428419795983738  1.0000
