data_image0
_chemical_formula_structural       B2CF6
_chemical_formula_sum              "B2 C1 F6"
_cell_length_a       4.075101728824395
_cell_length_b       3.467576554420718
_cell_length_c       3.440573323126767
_cell_angle_alpha    21.648765875855002
_cell_angle_beta     47.62356797576201
_cell_angle_gamma    35.978075397586416

_space_group_name_H-M_alt    "P 1"
_space_group_IT_number       1

loop_
  _space_group_symop_operation_xyz
  'x, y, z'

loop_
  _atom_site_type_symbol
  _atom_site_label
  _atom_site_symmetry_multiplicity
  _atom_site_fract_x
  _atom_site_fract_y
  _atom_site_fract_z
  _atom_site_occupancy
  B   B1        1.0  0.22510061209232157  0.8162485685388692  0.21205509272631792  1.0000
  B   B2        1.0  0.5194478965808542  0.8084409096519786  0.7193352330303397  1.0000
  C   C1        1.0  0.336797708596854  0.863927362195875  0.010920142031377367  1.0000
  F   F1        1.0  0.14507860425258534  0.4989342424194956  0.6367764609679997  1.0000
  F   F2        1.0  0.13162118998019728  0.6784670411567291  0.5784069604930455  1.0000
  F   F3        1.0  0.8607433478788119  0.9833247253975718  0.36233309724263996  1.0000
  F   F4        1.0  0.1624491261162777  0.7136627823150699  0.3936319747094086  1.0000
  F   F5        1.0  0.8431718771762197  0.21359758110330174  0.15450245835502216  1.0000
  F   F6        1.0  0.13717456039991793  0.8180968233724726  0.320336377641396  1.0000
