data_image0
_chemical_formula_structural       B2CI6
_chemical_formula_sum              "B2 C1 I6"
_cell_length_a       5.994712986369263
_cell_length_b       5.884620257512577
_cell_length_c       4.767038099518132
_cell_angle_alpha    69.77414347701718
_cell_angle_beta     96.15573130960003
_cell_angle_gamma    43.5045432324364

_space_group_name_H-M_alt    "P 1"
_space_group_IT_number       1

loop_
  _space_group_symop_operation_xyz
  'x, y, z'

loop_
  _atom_site_type_symbol
  _atom_site_label
  _atom_site_symmetry_multiplicity
  _atom_site_fract_x
  _atom_site_fract_y
  _atom_site_fract_z
  _atom_site_occupancy
  B   B1        1.0  0.6664511891344903  0.10277309990379506  0.1679478035301177  1.0000
  B   B2        1.0  0.1229207518714075  0.43027954470922575  0.12440033895924874  1.0000
  C   C1        1.0  0.5528778882793315  0.45789741541797335  0.2672664933027975  1.0000
  I   I1        1.0  0.8552330509564569  0.040507211803652264  0.3259029841989314  1.0000
  I   I2        1.0  0.8450070655867502  0.8306107330372554  0.278720931379172  1.0000
  I   I3        1.0  0.7064259313321779  0.15238776757393283  0.0186692879133199  1.0000
  I   I4        1.0  0.9161945745436995  0.616783061747194  0.9423093885253276  1.0000
  I   I5        1.0  0.8276847172052119  0.8618033183275535  0.26584009453518304  1.0000
  I   I6        1.0  0.6168944797052269  0.2571016159159801  0.09007779864680243  1.0000
