data_image0
_chemical_formula_structural       B2NCl6
_chemical_formula_sum              "B2 N1 Cl6"
_cell_length_a       6.155590222202084
_cell_length_b       4.817536563822461
_cell_length_c       5.304763062573522
_cell_angle_alpha    60.458553687019275
_cell_angle_beta     64.81393727652654
_cell_angle_gamma    50.677516077792134

_space_group_name_H-M_alt    "P 1"
_space_group_IT_number       1

loop_
  _space_group_symop_operation_xyz
  'x, y, z'

loop_
  _atom_site_type_symbol
  _atom_site_label
  _atom_site_symmetry_multiplicity
  _atom_site_fract_x
  _atom_site_fract_y
  _atom_site_fract_z
  _atom_site_occupancy
  B   B1        1.0  0.1375756301615818  0.8872021088864375  0.9930814425720509  1.0000
  B   B2        1.0  0.11950436090340366  0.8829373036262538  0.9856812186662519  1.0000
  N   N1        1.0  0.6670738716792062  0.08584848069499762  0.975858924416035  1.0000
  Cl  Cl1       1.0  0.1934087370938875  0.9490130017141603  0.166888383538502  1.0000
  Cl  Cl2       1.0  0.6587256610351189  0.10050148341993032  0.9899569969180222  1.0000
  Cl  Cl3       1.0  0.13834739651757655  0.1899098175757301  0.7373893242808752  1.0000
  Cl  Cl4       1.0  0.511994565613871  0.6417780461085862  0.9392749914858957  1.0000
  Cl  Cl5       1.0  0.5826168775617836  0.2745437531642143  0.02031901286082749  1.0000
  Cl  Cl6       1.0  0.9604835250694329  0.7769754721092406  0.07066690801042896  1.0000
