data_image0
_chemical_formula_structural       B2NF6
_chemical_formula_sum              "B2 N1 F6"
_cell_length_a       4.997023300510067
_cell_length_b       4.776188074403666
_cell_length_c       5.063746615149255
_cell_angle_alpha    42.57569406437942
_cell_angle_beta     61.003317786091095
_cell_angle_gamma    60.48080461268026

_space_group_name_H-M_alt    "P 1"
_space_group_IT_number       1

loop_
  _space_group_symop_operation_xyz
  'x, y, z'

loop_
  _atom_site_type_symbol
  _atom_site_label
  _atom_site_symmetry_multiplicity
  _atom_site_fract_x
  _atom_site_fract_y
  _atom_site_fract_z
  _atom_site_occupancy
  B   B1        1.0  0.5409742068920961  0.06119365752393513  0.7125934496173536  1.0000
  B   B2        1.0  0.39085052688636973  0.34438589142758946  0.8719473417514323  1.0000
  N   N1        1.0  0.832455551940645  0.11534914761687887  0.27744487079251523  1.0000
  F   F1        1.0  0.8624523018400145  0.08329123187768439  0.27792341484593464  1.0000
  F   F2        1.0  0.4321182455288386  0.17314854443888827  0.8700408082599425  1.0000
  F   F3        1.0  0.8058676820325399  0.04741129690499668  0.2841843678353986  1.0000
  F   F4        1.0  0.5752484383917299  0.25556123855134194  0.10418680913298972  1.0000
  F   F5        1.0  0.8377546239986104  0.09175151733642295  0.28476756980812445  1.0000
  F   F6        1.0  0.240956413569972  0.40328802480160997  0.9426087812855761  1.0000
