data_image0
_chemical_formula_structural       Ba2AsF6
_chemical_formula_sum              "Ba2 As1 F6"
_cell_length_a       6.087035044677996
_cell_length_b       6.087035416482662
_cell_length_c       6.0870354909181
_cell_angle_alpha    59.99999978025267
_cell_angle_beta     59.999999340539006
_cell_angle_gamma    59.9999981494671

_space_group_name_H-M_alt    "P 1"
_space_group_IT_number       1

loop_
  _space_group_symop_operation_xyz
  'x, y, z'

loop_
  _atom_site_type_symbol
  _atom_site_label
  _atom_site_symmetry_multiplicity
  _atom_site_fract_x
  _atom_site_fract_y
  _atom_site_fract_z
  _atom_site_occupancy
  Ba  Ba1       1.0  0.2500000011902814  0.24999998088867387  0.25000003146272004  1.0000
  Ba  Ba2       1.0  0.7500000124606596  0.7500000070517753  0.7499999509660468  1.0000
  As  As1       1.0  0.999999945733744  6.036164572772737e-08  0.9999999049534981  1.0000
  F   F1        1.0  0.2562035732653961  0.2562036342714145  0.7437964047857142  1.0000
  F   F2        1.0  0.7437963626848032  0.7437964160427352  0.2562036230917961  1.0000
  F   F3        1.0  0.7437965035095986  0.25620351817432213  0.2562035630420525  1.0000
  F   F4        1.0  0.2562035350322718  0.7437964576937974  0.7437964080489071  1.0000
  F   F5        1.0  0.256203557115788  0.7437963995639727  0.25620368993174025  1.0000
  F   F6        1.0  0.7437965022173193  0.2562035139304471  0.7437964284488098  1.0000
