data_image0
_chemical_formula_structural       Ba2AsBr6
_chemical_formula_sum              "Ba2 As1 Br6"
_cell_length_a       7.503489091924892
_cell_length_b       7.5034894419116345
_cell_length_c       7.503489230704739
_cell_angle_alpha    59.9999982505887
_cell_angle_beta     59.99999993963766
_cell_angle_gamma    59.99999842136674

_space_group_name_H-M_alt    "P 1"
_space_group_IT_number       1

loop_
  _space_group_symop_operation_xyz
  'x, y, z'

loop_
  _atom_site_type_symbol
  _atom_site_label
  _atom_site_symmetry_multiplicity
  _atom_site_fract_x
  _atom_site_fract_y
  _atom_site_fract_z
  _atom_site_occupancy
  Ba  Ba1       1.0  0.2499999655245806  0.2500000304104217  0.24999998663485742  1.0000
  Ba  Ba2       1.0  0.7500000223756341  0.7499999769748963  0.7500000194347657  1.0000
  As  As1       1.0  2.8305323456784144e-08  4.896700836867739e-08  1.0396415782243877e-07  1.0000
  Br  Br1       1.0  0.25293739025570067  0.2529374408011736  0.7470626016311729  1.0000
  Br  Br2       1.0  0.7470625689497807  0.7470625649519104  0.2529374395926336  1.0000
  Br  Br3       1.0  0.7470626089927864  0.25293735900372416  0.2529373923619619  1.0000
  Br  Br4       1.0  0.25293747781750003  0.7470625455508677  0.7470624997219325  1.0000
  Br  Br5       1.0  0.25293733451757816  0.7470626578974111  0.2529373667506119  1.0000
  Br  Br6       1.0  0.747062596691912  0.25293739029375384  0.7470626006164831  1.0000
