data_image0
_chemical_formula_structural       Ba2AsCl6
_chemical_formula_sum              "Ba2 As1 Cl6"
_cell_length_a       7.159725350769115
_cell_length_b       7.15972544045776
_cell_length_c       7.1597253822941225
_cell_angle_alpha    59.999999319059434
_cell_angle_beta     60.00000032148541
_cell_angle_gamma    60.000000684208345

_space_group_name_H-M_alt    "P 1"
_space_group_IT_number       1

loop_
  _space_group_symop_operation_xyz
  'x, y, z'

loop_
  _atom_site_type_symbol
  _atom_site_label
  _atom_site_symmetry_multiplicity
  _atom_site_fract_x
  _atom_site_fract_y
  _atom_site_fract_z
  _atom_site_occupancy
  Ba  Ba1       1.0  0.24999996048077086  0.2500000026970037  0.2499999405206291  1.0000
  Ba  Ba2       1.0  0.7500000311534128  0.7499999944061835  0.7500000510461955  1.0000
  As  As1       1.0  0.9999999828464929  0.9999999692091432  4.073260143810101e-08  1.0000
  Cl  Cl1       1.0  0.24982572807578027  0.24982571847240287  0.750174268510931  1.0000
  Cl  Cl2       1.0  0.7501743211290443  0.7501743042898317  0.2498256758542428  1.0000
  Cl  Cl3       1.0  0.7501743016589513  0.2498256951493862  0.24982567359724897  1.0000
  Cl  Cl4       1.0  0.24982566680943744  0.7501743327446566  0.7501743448844806  1.0000
  Cl  Cl5       1.0  0.24982566084931204  0.750174333882671  0.24982563156698118  1.0000
  Cl  Cl6       1.0  0.7501743385720242  0.2498256495356908  0.7501743769156961  1.0000
