data_image0
_chemical_formula_structural       Ba2AsI6
_chemical_formula_sum              "Ba2 As1 I6"
_cell_length_a       8.068126417032715
_cell_length_b       8.068126538616594
_cell_length_c       8.068126262229539
_cell_angle_alpha    60.00000025061731
_cell_angle_beta     60.00000166517987
_cell_angle_gamma    59.99999879976438

_space_group_name_H-M_alt    "P 1"
_space_group_IT_number       1

loop_
  _space_group_symop_operation_xyz
  'x, y, z'

loop_
  _atom_site_type_symbol
  _atom_site_label
  _atom_site_symmetry_multiplicity
  _atom_site_fract_x
  _atom_site_fract_y
  _atom_site_fract_z
  _atom_site_occupancy
  Ba  Ba1       1.0  0.24999989565920624  0.2500000233042753  0.2500000208283953  1.0000
  Ba  Ba2       1.0  0.7500001255586362  0.749999986422593  0.7499999481515005  1.0000
  As  As1       1.0  0.9999999643071169  0.9999999954459892  0.9999999779823114  1.0000
  I   I1        1.0  0.2536157021268891  0.25361573798320874  0.7463842824309725  1.0000
  I   I2        1.0  0.7463842922307519  0.7463842793336797  0.2536157420434842  1.0000
  I   I3        1.0  0.7463843041034876  0.2536156809662443  0.2536157040505681  1.0000
  I   I4        1.0  0.2536156794842834  0.7463843257246163  0.7463843063329346  1.0000
  I   I5        1.0  0.2536156827973087  0.7463842961415629  0.25361569751267543  1.0000
  I   I6        1.0  0.7463843501453823  0.25361567411719926  0.7463843212827589  1.0000
