data_image0
_chemical_formula_structural       Ba2BiCl6
_chemical_formula_sum              "Ba2 Bi1 Cl6"
_cell_length_a       7.362223902199372
_cell_length_b       7.362223982182431
_cell_length_c       7.362223777693279
_cell_angle_alpha    60.000000313963334
_cell_angle_beta     60.00000011564111
_cell_angle_gamma    59.99999767339001

_space_group_name_H-M_alt    "P 1"
_space_group_IT_number       1

loop_
  _space_group_symop_operation_xyz
  'x, y, z'

loop_
  _atom_site_type_symbol
  _atom_site_label
  _atom_site_symmetry_multiplicity
  _atom_site_fract_x
  _atom_site_fract_y
  _atom_site_fract_z
  _atom_site_occupancy
  Ba  Ba1       1.0  0.24999996627939103  0.2500000231941249  0.2500000156632177  1.0000
  Ba  Ba2       1.0  0.7500000159472565  0.7500000146851269  0.7499999792100335  1.0000
  Bi  Bi1       1.0  1.0660819682959033e-08  7.153277294447424e-08  0.9999999235877867  1.0000
  Cl  Cl1       1.0  0.260161540216471  0.26016153517964513  0.7398384754946171  1.0000
  Cl  Cl2       1.0  0.7398384604207243  0.7398384145313043  0.2601615814232168  1.0000
  Cl  Cl3       1.0  0.7398385013688901  0.2601614752554314  0.2601614495855995  1.0000
  Cl  Cl4       1.0  0.2601614667583676  0.7398385343434226  0.7398385094295651  1.0000
  Cl  Cl5       1.0  0.2601614695648339  0.7398385135382514  0.26016150960177203  1.0000
  Cl  Cl6       1.0  0.7398385783150231  0.2601614261913793  0.7398385544928103  1.0000
