data_image0
_chemical_formula_structural       Ba2BCl6
_chemical_formula_sum              "Ba2 B1 Cl6"
_cell_length_a       6.851818903753078
_cell_length_b       6.85181921763159
_cell_length_c       6.851814990324276
_cell_angle_alpha    60.00000486882493
_cell_angle_beta     60.00002864291281
_cell_angle_gamma    59.999952629820086

_space_group_name_H-M_alt    "P 1"
_space_group_IT_number       1

loop_
  _space_group_symop_operation_xyz
  'x, y, z'

loop_
  _atom_site_type_symbol
  _atom_site_label
  _atom_site_symmetry_multiplicity
  _atom_site_fract_x
  _atom_site_fract_y
  _atom_site_fract_z
  _atom_site_occupancy
  Ba  Ba1       1.0  0.25000114810374857  0.250001019472973  0.2500013213952346  1.0000
  Ba  Ba2       1.0  0.7500011272888906  0.7500008383782608  0.7500015040432126  1.0000
  B   B1        1.0  0.9999651903563419  0.9999699311434902  0.9999627409301423  1.0000
  Cl  Cl1       1.0  0.2192177189139543  0.21921758381034984  0.780784961659602  1.0000
  Cl  Cl2       1.0  0.7808080244579454  0.7808082404819979  0.21919410570248776  1.0000
  Cl  Cl3       1.0  0.7807853945909573  0.21921671577926244  0.2192167104334397  1.0000
  Cl  Cl4       1.0  0.2191922537181605  0.7808101595730254  0.7808099937047848  1.0000
  Cl  Cl5       1.0  0.21921764027707152  0.780784578874216  0.2192173324471248  1.0000
  Cl  Cl6       1.0  0.7808114769853456  0.21919094588278606  0.7808113061542631  1.0000
