data_image0
_chemical_formula_structural       Ba2BI6
_chemical_formula_sum              "Ba2 B1 I6"
_cell_length_a       7.829232247790084
_cell_length_b       7.829232405198819
_cell_length_c       7.8292322099778815
_cell_angle_alpha    60.00000108988062
_cell_angle_beta     60.00000098005127
_cell_angle_gamma    59.99999931982587

_space_group_name_H-M_alt    "P 1"
_space_group_IT_number       1

loop_
  _space_group_symop_operation_xyz
  'x, y, z'

loop_
  _atom_site_type_symbol
  _atom_site_label
  _atom_site_symmetry_multiplicity
  _atom_site_fract_x
  _atom_site_fract_y
  _atom_site_fract_z
  _atom_site_occupancy
  Ba  Ba1       1.0  0.25000001942025235  0.2500000273111952  0.24999994100698344  1.0000
  Ba  Ba2       1.0  0.7500000102934531  0.7499999161153446  0.7500000934035723  1.0000
  B   B1        1.0  0.9999999679544007  5.6315630020245974e-08  0.9999999584879021  1.0000
  I   I1        1.0  0.24219552720599288  0.24219553373820285  0.7578044855672168  1.0000
  I   I2        1.0  0.7578045114156252  0.7578044581823509  0.24219551631058225  1.0000
  I   I3        1.0  0.7578044475338199  0.24219554716822658  0.24219551617244336  1.0000
  I   I4        1.0  0.24219552608923328  0.7578044760387892  0.7578044667980021  1.0000
  I   I5        1.0  0.24219553127103813  0.7578044698305259  0.24219551974989662  1.0000
  I   I6        1.0  0.7578044665759986  0.2421955205257057  0.7578044892474453  1.0000
