data_image0
_chemical_formula_structural       Ba2BBr6
_chemical_formula_sum              "Ba2 B1 Br6"
_cell_length_a       7.232691751212084
_cell_length_b       7.232691999086106
_cell_length_c       7.232692352953339
_cell_angle_alpha    59.99998834162148
_cell_angle_beta     59.99999732485049
_cell_angle_gamma    59.99999994124087

_space_group_name_H-M_alt    "P 1"
_space_group_IT_number       1

loop_
  _space_group_symop_operation_xyz
  'x, y, z'

loop_
  _atom_site_type_symbol
  _atom_site_label
  _atom_site_symmetry_multiplicity
  _atom_site_fract_x
  _atom_site_fract_y
  _atom_site_fract_z
  _atom_site_occupancy
  Ba  Ba1       1.0  0.24999991172614244  0.24999991666896615  0.25000008405724916  1.0000
  Ba  Ba2       1.0  0.7499999913711666  0.7500000734359953  0.749999988630414  1.0000
  B   B1        1.0  2.328761138482633e-07  2.0658823725353944e-07  0.999999676571984  1.0000
  Br  Br1       1.0  0.23230071555957388  0.232300527001444  0.7676995059943186  1.0000
  Br  Br2       1.0  0.7676990806718016  0.7676992903822192  0.23230071340002842  1.0000
  Br  Br3       1.0  0.7676992075792399  0.23230089663858855  0.23230091926912025  1.0000
  Br  Br4       1.0  0.23230088446972927  0.7676990917730432  0.7676990238414919  1.0000
  Br  Br5       1.0  0.23230076120418144  0.7676993645334048  0.2323007970602915  1.0000
  Br  Br6       1.0  0.7676992451012978  0.2323006272649051  0.7676992605071091  1.0000
