data_image0
_chemical_formula_structural       Ba2BF6
_chemical_formula_sum              "Ba2 B1 F6"
_cell_length_a       5.74876267843713
_cell_length_b       5.748762871594084
_cell_length_c       5.748762688897373
_cell_angle_alpha    60.000000835564215
_cell_angle_beta     60.000001518540536
_cell_angle_gamma    60.00000344422116

_space_group_name_H-M_alt    "P 1"
_space_group_IT_number       1

loop_
  _space_group_symop_operation_xyz
  'x, y, z'

loop_
  _atom_site_type_symbol
  _atom_site_label
  _atom_site_symmetry_multiplicity
  _atom_site_fract_x
  _atom_site_fract_y
  _atom_site_fract_z
  _atom_site_occupancy
  Ba  Ba1       1.0  0.24999996694104087  0.2500000040099947  0.24999998327528766  1.0000
  Ba  Ba2       1.0  0.749999968304674  0.7499999843341434  0.7499999768996369  1.0000
  B   B1        1.0  0.9999998350296309  4.900033450363612e-08  0.9999997935802933  1.0000
  F   F1        1.0  0.2243680356024634  0.22436804034987154  0.7756319471318003  1.0000
  F   F2        1.0  0.7756320587060588  0.7756321035170768  0.22436793054902143  1.0000
  F   F3        1.0  0.7756319705086432  0.22436801391768538  0.22436800772883686  1.0000
  F   F4        1.0  0.22436791080750115  0.775632063905325  0.7756321207984441  1.0000
  F   F5        1.0  0.22436804012357137  0.7756319087583231  0.22436809978179648  1.0000
  F   F6        1.0  0.7756321698384262  0.22436785801908055  0.7756321556267364  1.0000
