data_image0
_chemical_formula_structural       Ba2BiF6
_chemical_formula_sum              "Ba2 Bi1 F6"
_cell_length_a       6.317228951365467
_cell_length_b       6.317229906772819
_cell_length_c       6.317229437854765
_cell_angle_alpha    60.000000900966434
_cell_angle_beta     59.99999978110036
_cell_angle_gamma    60.00000220297804

_space_group_name_H-M_alt    "P 1"
_space_group_IT_number       1

loop_
  _space_group_symop_operation_xyz
  'x, y, z'

loop_
  _atom_site_type_symbol
  _atom_site_label
  _atom_site_symmetry_multiplicity
  _atom_site_fract_x
  _atom_site_fract_y
  _atom_site_fract_z
  _atom_site_occupancy
  Ba  Ba1       1.0  0.24999997768811913  0.25000005080639154  0.250000011129645  1.0000
  Ba  Ba2       1.0  0.7500000060711004  0.749999966300409  0.7499999823028247  1.0000
  Bi  Bi1       1.0  4.818311005998498e-09  3.4897268140575114e-08  8.63571374434445e-09  1.0000
  F   F1        1.0  0.2581854567833523  0.25818544980982056  0.7418145580512413  1.0000
  F   F2        1.0  0.7418145420612752  0.741814511073602  0.25818546228210404  1.0000
  F   F3        1.0  0.7418145020275309  0.2581854988223125  0.258185477944193  1.0000
  F   F4        1.0  0.2581855148739318  0.741814473693534  0.7418144784723779  1.0000
  F   F5        1.0  0.25818548194788354  0.7418145000427319  0.2581854478535741  1.0000
  F   F6        1.0  0.7418145125757567  0.2581854957379604  0.7418145271151535  1.0000
