data_image0
_chemical_formula_structural       Ba2BiI6
_chemical_formula_sum              "Ba2 Bi1 I6"
_cell_length_a       8.25923988825053
_cell_length_b       8.25924000072154
_cell_length_c       8.259239942696725
_cell_angle_alpha    59.99999976005407
_cell_angle_beta     60.00000038030626
_cell_angle_gamma    59.99999954654256

_space_group_name_H-M_alt    "P 1"
_space_group_IT_number       1

loop_
  _space_group_symop_operation_xyz
  'x, y, z'

loop_
  _atom_site_type_symbol
  _atom_site_label
  _atom_site_symmetry_multiplicity
  _atom_site_fract_x
  _atom_site_fract_y
  _atom_site_fract_z
  _atom_site_occupancy
  Ba  Ba1       1.0  0.24999999812930868  0.24999997827668677  0.24999998160273024  1.0000
  Ba  Ba2       1.0  0.7500000353971829  0.7499999837650471  0.7499999954865169  1.0000
  Bi  Bi1       1.0  0.9999999781251543  0.9999999985171213  7.463865065187049e-08  1.0000
  I   I1        1.0  0.2618240501749906  0.2618240732195799  0.7381759442794041  1.0000
  I   I2        1.0  0.7381759578178893  0.7381759570345612  0.26182404416110405  1.0000
  I   I3        1.0  0.7381759618121129  0.26182404053363884  0.2618240254332484  1.0000
  I   I4        1.0  0.2618240446421827  0.7381759481999066  0.7381759603215468  1.0000
  I   I5        1.0  0.2618240390778345  0.7381759562763083  0.2618240505005039  1.0000
  I   I6        1.0  0.7381759337233942  0.2618240621148059  0.7381759263551535  1.0000
