data_image0
_chemical_formula_structural       Ba2BiBr6
_chemical_formula_sum              "Ba2 Bi1 Br6"
_cell_length_a       7.705029485750359
_cell_length_b       7.705029297971062
_cell_length_c       7.705029490755116
_cell_angle_alpha    59.99999905213905
_cell_angle_beta     60.000001105004
_cell_angle_gamma    59.999999945932665

_space_group_name_H-M_alt    "P 1"
_space_group_IT_number       1

loop_
  _space_group_symop_operation_xyz
  'x, y, z'

loop_
  _atom_site_type_symbol
  _atom_site_label
  _atom_site_symmetry_multiplicity
  _atom_site_fract_x
  _atom_site_fract_y
  _atom_site_fract_z
  _atom_site_occupancy
  Ba  Ba1       1.0  0.25000001084698986  0.2500000483795653  0.2499999767814897  1.0000
  Ba  Ba2       1.0  0.7500000483325379  0.749999971878884  0.7500000259506876  1.0000
  Bi  Bi1       1.0  5.974787760530575e-08  3.655940940104736e-08  1.0888663844709973e-07  1.0000
  Br  Br1       1.0  0.2620473236261489  0.26204739486652795  0.7379526231807577  1.0000
  Br  Br2       1.0  0.7379525996635795  0.7379525475044825  0.2620473774203382  1.0000
  Br  Br3       1.0  0.7379525987930211  0.26204742031389905  0.26204732765895045  1.0000
  Br  Br4       1.0  0.2620473690764461  0.7379525681537589  0.7379526055404418  1.0000
  Br  Br5       1.0  0.26204739750857925  0.7379525835442832  0.26204736296776654  1.0000
  Br  Br6       1.0  0.7379525941571884  0.2620474144606125  0.7379525782240747  1.0000
