data_image0
_chemical_formula_structural       Ba2GaBr6
_chemical_formula_sum              "Ba2 Ga1 Br6"
_cell_length_a       7.355220109424766
_cell_length_b       7.355219980722744
_cell_length_c       7.355220334634476
_cell_angle_alpha    59.99999875083614
_cell_angle_beta     60.000000135966815
_cell_angle_gamma    59.99999762426941

_space_group_name_H-M_alt    "P 1"
_space_group_IT_number       1

loop_
  _space_group_symop_operation_xyz
  'x, y, z'

loop_
  _atom_site_type_symbol
  _atom_site_label
  _atom_site_symmetry_multiplicity
  _atom_site_fract_x
  _atom_site_fract_y
  _atom_site_fract_z
  _atom_site_occupancy
  Ba  Ba1       1.0  0.24999991866009538  0.2500000674422944  0.2500000373228794  1.0000
  Ba  Ba2       1.0  0.7500000691100563  0.74999991758845  0.7499999699725856  1.0000
  Ga  Ga1       1.0  1.3247618330177463e-07  0.9999999134128734  0.9999999621001082  1.0000
  Br  Br1       1.0  0.24956329034691985  0.24956324350385292  0.7504367284594659  1.0000
  Br  Br2       1.0  0.7504367107742003  0.7504368097975083  0.24956324754225676  1.0000
  Br  Br3       1.0  0.7504367170443448  0.24956322686446103  0.24956332348003804  1.0000
  Br  Br4       1.0  0.24956320420202247  0.7504368164460795  0.7504367001736275  1.0000
  Br  Br5       1.0  0.2495632143119663  0.7504368016892894  0.24956329525831558  1.0000
  Br  Br6       1.0  0.7504367411240928  0.24956320498823645  0.7504367336957476  1.0000
