data_image0
_chemical_formula_structural       Ba2GaCl6
_chemical_formula_sum              "Ba2 Ga1 Cl6"
_cell_length_a       7.009061801662939
_cell_length_b       7.00906180710624
_cell_length_c       7.009061777895366
_cell_angle_alpha    60.00000039427517
_cell_angle_beta     60.00000110839141
_cell_angle_gamma    60.00000120760698

_space_group_name_H-M_alt    "P 1"
_space_group_IT_number       1

loop_
  _space_group_symop_operation_xyz
  'x, y, z'

loop_
  _atom_site_type_symbol
  _atom_site_label
  _atom_site_symmetry_multiplicity
  _atom_site_fract_x
  _atom_site_fract_y
  _atom_site_fract_z
  _atom_site_occupancy
  Ba  Ba1       1.0  0.24999999219012314  0.2499999845437341  0.2500000255636937  1.0000
  Ba  Ba2       1.0  0.7500000139446618  0.7500000095471538  0.7499999943778478  1.0000
  Ga  Ga1       1.0  0.9999999080916849  6.814756456254489e-08  0.9999998292596416  1.0000
  Cl  Cl1       1.0  0.24541757602597297  0.24541754782659528  0.7545824792188592  1.0000
  Cl  Cl2       1.0  0.7545824567676459  0.7545824305379316  0.24541755523058856  1.0000
  Cl  Cl3       1.0  0.7545823498890066  0.24541766631625786  0.24541758111456793  1.0000
  Cl  Cl4       1.0  0.2454176018288382  0.7545824168906764  0.7545824528653586  1.0000
  Cl  Cl5       1.0  0.24541770187682713  0.7545823089902369  0.245417596630856  1.0000
  Cl  Cl6       1.0  0.7545823981306585  0.2454175715213762  0.7545824773924317  1.0000
