data_image0
_chemical_formula_structural       Ba2IrBr6
_chemical_formula_sum              "Ba2 Ir1 Br6"
_cell_length_a       7.327887170843171
_cell_length_b       7.327887158538804
_cell_length_c       7.327886836960035
_cell_angle_alpha    60.00000211396377
_cell_angle_beta     60.000002284254265
_cell_angle_gamma    59.99999795008939

_space_group_name_H-M_alt    "P 1"
_space_group_IT_number       1

loop_
  _space_group_symop_operation_xyz
  'x, y, z'

loop_
  _atom_site_type_symbol
  _atom_site_label
  _atom_site_symmetry_multiplicity
  _atom_site_fract_x
  _atom_site_fract_y
  _atom_site_fract_z
  _atom_site_occupancy
  Ba  Ba1       1.0  0.2500000614364959  0.25000001683778955  0.25000002656358433  1.0000
  Ba  Ba2       1.0  0.7499999346400238  0.7499999769740708  0.7499999915642012  1.0000
  Ir  Ir1       1.0  0.9999999231372124  3.676965767505222e-08  3.3664534026203697e-07  1.0000
  Br  Br1       1.0  0.2425688078097596  0.24256881233219132  0.7574311452197003  1.0000
  Br  Br2       1.0  0.7574311766629088  0.7574312115639307  0.2425687394847396  1.0000
  Br  Br3       1.0  0.7574313098261022  0.2425686956948182  0.24256869031017378  1.0000
  Br  Br4       1.0  0.2425687470852298  0.7574312479766029  0.7574311737235866  1.0000
  Br  Br5       1.0  0.24256881726301757  0.757431223895322  0.2425687320895732  1.0000
  Br  Br6       1.0  0.7574312271050038  0.24256877158788398  0.7574311709898958  1.0000
