data_image0
_chemical_formula_structural       Ba2IrI6
_chemical_formula_sum              "Ba2 Ir1 I6"
_cell_length_a       7.891222845118847
_cell_length_b       7.891222790508734
_cell_length_c       7.891222911235515
_cell_angle_alpha    59.99999800948313
_cell_angle_beta     59.999998768706035
_cell_angle_gamma    60.00000104581888

_space_group_name_H-M_alt    "P 1"
_space_group_IT_number       1

loop_
  _space_group_symop_operation_xyz
  'x, y, z'

loop_
  _atom_site_type_symbol
  _atom_site_label
  _atom_site_symmetry_multiplicity
  _atom_site_fract_x
  _atom_site_fract_y
  _atom_site_fract_z
  _atom_site_occupancy
  Ba  Ba1       1.0  0.25000000979606235  0.25000000534471006  0.24999999598095785  1.0000
  Ba  Ba2       1.0  0.7500000151105164  0.7499999974097182  0.7499999689114555  1.0000
  Ir  Ir1       1.0  0.999999981111912  0.9999999161901438  8.936589441816104e-08  1.0000
  I   I1        1.0  0.24165204432258305  0.24165198285968634  0.7583480198156964  1.0000
  I   I2        1.0  0.7583479692454871  0.7583481285371456  0.2416519623207651  1.0000
  I   I3        1.0  0.7583479936498051  0.2416519814791443  0.24165199987616165  1.0000
  I   I4        1.0  0.24165203594333357  0.7583479545378072  0.7583479630937124  1.0000
  I   I5        1.0  0.2416519776327773  0.7583480653561081  0.24165199682341218  1.0000
  I   I6        1.0  0.758347980893988  0.24165196533493657  0.7583479999629069  1.0000
