data_image0
_chemical_formula_structural       Ba2IrF6
_chemical_formula_sum              "Ba2 Ir1 F6"
_cell_length_a       5.911098664848972
_cell_length_b       5.91109856903393
_cell_length_c       5.911098916111903
_cell_angle_alpha    59.99999918048531
_cell_angle_beta     59.99999957398243
_cell_angle_gamma    60.00000019819065

_space_group_name_H-M_alt    "P 1"
_space_group_IT_number       1

loop_
  _space_group_symop_operation_xyz
  'x, y, z'

loop_
  _atom_site_type_symbol
  _atom_site_label
  _atom_site_symmetry_multiplicity
  _atom_site_fract_x
  _atom_site_fract_y
  _atom_site_fract_z
  _atom_site_occupancy
  Ba  Ba1       1.0  0.25000000587872406  0.25000001877922085  0.24999996828882745  1.0000
  Ba  Ba2       1.0  0.7500000436640982  0.749999954812543  0.7499999476902771  1.0000
  Ir  Ir1       1.0  1.3890776118630227e-08  2.2791353700647716e-08  0.9999999918093323  1.0000
  F   F1        1.0  0.2503918328918798  0.250391817021533  0.7496081729135298  1.0000
  F   F2        1.0  0.7496081774432186  0.7496081980090555  0.250391816386268  1.0000
  F   F3        1.0  0.749608104620303  0.2503918615672731  0.25039188284000613  1.0000
  F   F4        1.0  0.2503918695269826  0.7496081389597267  0.7496081605649498  1.0000
  F   F5        1.0  0.25039185070785963  0.7496081220227286  0.2503918784151632  1.0000
  F   F6        1.0  0.7496081412574226  0.25039186607262415  0.7496081673718166  1.0000
