data_image0
_chemical_formula_structural       Ba2IrCl6
_chemical_formula_sum              "Ba2 Ir1 Cl6"
_cell_length_a       7.009081214502201
_cell_length_b       7.009081193365668
_cell_length_c       7.009081041244011
_cell_angle_alpha    60.00000047036774
_cell_angle_beta     60.00000015547477
_cell_angle_gamma    59.99999937350458

_space_group_name_H-M_alt    "P 1"
_space_group_IT_number       1

loop_
  _space_group_symop_operation_xyz
  'x, y, z'

loop_
  _atom_site_type_symbol
  _atom_site_label
  _atom_site_symmetry_multiplicity
  _atom_site_fract_x
  _atom_site_fract_y
  _atom_site_fract_z
  _atom_site_occupancy
  Ba  Ba1       1.0  0.25000000007385886  0.2500000149933237  0.2500000049259093  1.0000
  Ba  Ba2       1.0  0.749999974079631  0.7500000047904923  0.7500000022883824  1.0000
  Ir  Ir1       1.0  0.999999983291492  6.989474594655284e-08  0.9999997665324004  1.0000
  Cl  Cl1       1.0  0.2415788446845972  0.24157885656673936  0.7584211289884192  1.0000
  Cl  Cl2       1.0  0.758421218747328  0.7584211177854912  0.2415788277680359  1.0000
  Cl  Cl3       1.0  0.7584211654468148  0.2415788220318766  0.24157883658685145  1.0000
  Cl  Cl4       1.0  0.2415787650910419  0.7584212099835205  0.7584212961769492  1.0000
  Cl  Cl5       1.0  0.2415788238693757  0.7584211280144282  0.24157885600392312  1.0000
  Cl  Cl6       1.0  0.7584212260347725  0.2415787781904254  0.7584212771285621  1.0000
