data_image0
_chemical_formula_structural       Ba2MoF6
_chemical_formula_sum              "Ba2 Mo1 F6"
_cell_length_a       6.090528987730902
_cell_length_b       6.090528964009168
_cell_length_c       6.0905289824575775
_cell_angle_alpha    60.00000094825843
_cell_angle_beta     60.00000110935747
_cell_angle_gamma    59.99999986106623

_space_group_name_H-M_alt    "P 1"
_space_group_IT_number       1

loop_
  _space_group_symop_operation_xyz
  'x, y, z'

loop_
  _atom_site_type_symbol
  _atom_site_label
  _atom_site_symmetry_multiplicity
  _atom_site_fract_x
  _atom_site_fract_y
  _atom_site_fract_z
  _atom_site_occupancy
  Ba  Ba1       1.0  0.25000002712627223  0.2500000005421923  0.25000000312197046  1.0000
  Ba  Ba2       1.0  0.7499999402775261  0.7500000438554913  0.7500000079033999  1.0000
  Mo  Mo1       1.0  0.9999999645332845  4.021802000474392e-09  6.826304873725787e-08  1.0000
  F   F1        1.0  0.24741351643199824  0.247413449321043  0.7525865075660116  1.0000
  F   F2        1.0  0.7525865054369333  0.7525865226842166  0.24741348122702733  1.0000
  F   F3        1.0  0.7525865327366098  0.2474134351060194  0.24741347104927172  1.0000
  F   F4        1.0  0.24741350385919475  0.7525865268447367  0.7525865088400084  1.0000
  F   F5        1.0  0.24741347533052438  0.7525865731759832  0.2474134026819864  1.0000
  F   F6        1.0  0.7525865199564082  0.24741346719989843  0.7525865389464453  1.0000
