data_image0
_chemical_formula_structural       Ba2MoCl6
_chemical_formula_sum              "Ba2 Mo1 Cl6"
_cell_length_a       7.058777760910963
_cell_length_b       7.058777630780963
_cell_length_c       7.058777700656839
_cell_angle_alpha    60.00000019450976
_cell_angle_beta     59.99999909925499
_cell_angle_gamma    59.99999927771502

_space_group_name_H-M_alt    "P 1"
_space_group_IT_number       1

loop_
  _space_group_symop_operation_xyz
  'x, y, z'

loop_
  _atom_site_type_symbol
  _atom_site_label
  _atom_site_symmetry_multiplicity
  _atom_site_fract_x
  _atom_site_fract_y
  _atom_site_fract_z
  _atom_site_occupancy
  Ba  Ba1       1.0  0.2500000404167168  0.2500000094056139  0.2499999922099447  1.0000
  Ba  Ba2       1.0  0.7499999984802175  0.7500000039259105  0.7499999949099088  1.0000
  Mo  Mo1       1.0  0.9999998608036018  9.369359184557678e-08  0.9999999604176668  1.0000
  Cl  Cl1       1.0  0.24932514160297617  0.24932513098442569  0.7506748581174413  1.0000
  Cl  Cl2       1.0  0.7506748905691777  0.7506748632613669  0.2493251348242889  1.0000
  Cl  Cl3       1.0  0.7506749128310559  0.2493251089581713  0.24932507396693393  1.0000
  Cl  Cl4       1.0  0.24932511445061462  0.7506748557914902  0.7506749064179101  1.0000
  Cl  Cl5       1.0  0.24932518677210494  0.7506747794458015  0.24932521871379967  1.0000
  Cl  Cl6       1.0  0.7506748513990887  0.24932515754279663  0.7506748678574492  1.0000
