data_image0
_chemical_formula_structural       Ba2MoI6
_chemical_formula_sum              "Ba2 Mo1 I6"
_cell_length_a       8.001448592396272
_cell_length_b       8.001448946475023
_cell_length_c       8.001448390488513
_cell_angle_alpha    60.00000044216688
_cell_angle_beta     60.00000351499103
_cell_angle_gamma    59.99999768437146

_space_group_name_H-M_alt    "P 1"
_space_group_IT_number       1

loop_
  _space_group_symop_operation_xyz
  'x, y, z'

loop_
  _atom_site_type_symbol
  _atom_site_label
  _atom_site_symmetry_multiplicity
  _atom_site_fract_x
  _atom_site_fract_y
  _atom_site_fract_z
  _atom_site_occupancy
  Ba  Ba1       1.0  0.2500001012276914  0.24999999292652728  0.24999986883944125  1.0000
  Ba  Ba2       1.0  0.7499998534013748  0.7500000308218224  0.7500001530751401  1.0000
  Mo  Mo1       1.0  3.4329642491130186e-08  0.9999999403045006  0.9999999114512579  1.0000
  I   I1        1.0  0.25017389460412554  0.2501739024708477  0.7498261004595714  1.0000
  I   I2        1.0  0.7498261096885855  0.7498261151548845  0.2501738946854025  1.0000
  I   I3        1.0  0.7498261209692363  0.25017387618098774  0.2501738725181926  1.0000
  I   I4        1.0  0.2501738554666052  0.7498261644045525  0.7498261688173915  1.0000
  I   I5        1.0  0.25017388494315307  0.7498261264071608  0.2501738657839952  1.0000
  I   I6        1.0  0.7498261431397061  0.25017385448287643  0.7498261620790014  1.0000
