data_image0
_chemical_formula_structural       Ba2MoBr6
_chemical_formula_sum              "Ba2 Mo1 Br6"
_cell_length_a       7.409410756119986
_cell_length_b       7.409410999743733
_cell_length_c       7.409410642910254
_cell_angle_alpha    59.99999968281525
_cell_angle_beta     60.000002724549674
_cell_angle_gamma    59.99999860461906

_space_group_name_H-M_alt    "P 1"
_space_group_IT_number       1

loop_
  _space_group_symop_operation_xyz
  'x, y, z'

loop_
  _atom_site_type_symbol
  _atom_site_label
  _atom_site_symmetry_multiplicity
  _atom_site_fract_x
  _atom_site_fract_y
  _atom_site_fract_z
  _atom_site_occupancy
  Ba  Ba1       1.0  0.25000000350243684  0.2500000828138679  0.25000000041727455  1.0000
  Ba  Ba2       1.0  0.7499999855780906  0.7499999211558281  0.7499999843615195  1.0000
  Mo  Mo1       1.0  3.396928865391152e-08  7.107721489993443e-08  0.9999999312811276  1.0000
  Br  Br1       1.0  0.25152332771595715  0.25152332355531803  0.7484766759082719  1.0000
  Br  Br2       1.0  0.7484766140149847  0.7484766027253291  0.2515233983825398  1.0000
  Br  Br3       1.0  0.748476738016845  0.25152327380045886  0.25152327232006705  1.0000
  Br  Br4       1.0  0.2515232744400464  0.7484767301692359  0.7484767237143414  1.0000
  Br  Br5       1.0  0.25152321863430654  0.7484767847692184  0.25152320433337483  1.0000
  Br  Br6       1.0  0.7484768086829926  0.2515232026708906  0.7484768087312429  1.0000
