data_image0
_chemical_formula_structural       Ba2NCl6
_chemical_formula_sum              "Ba2 N1 Cl6"
_cell_length_a       6.828444313836234
_cell_length_b       6.828444352577357
_cell_length_c       6.828444020576602
_cell_angle_alpha    60.00000182727985
_cell_angle_beta     59.9999985500371
_cell_angle_gamma    60.00000194587022

_space_group_name_H-M_alt    "P 1"
_space_group_IT_number       1

loop_
  _space_group_symop_operation_xyz
  'x, y, z'

loop_
  _atom_site_type_symbol
  _atom_site_label
  _atom_site_symmetry_multiplicity
  _atom_site_fract_x
  _atom_site_fract_y
  _atom_site_fract_z
  _atom_site_occupancy
  Ba  Ba1       1.0  0.25000000137131223  0.2500000108419188  0.24999996980310352  1.0000
  Ba  Ba2       1.0  0.7499999511971668  0.7500000289385705  0.7499999566993018  1.0000
  N   N1        1.0  0.9999996052290898  0.9999987391042703  0.9999999345112194  1.0000
  Cl  Cl1       1.0  0.24706452498224016  0.24706459664718722  0.7529354546520992  1.0000
  Cl  Cl2       1.0  0.752936215912755  0.7529361067626354  0.2470637693037649  1.0000
  Cl  Cl3       1.0  0.7529356213389196  0.24706450677613484  0.2470645623607675  1.0000
  Cl  Cl4       1.0  0.2470638975496728  0.752936194840089  0.7529360496602334  1.0000
  Cl  Cl5       1.0  0.2470643044661149  0.7529356571937251  0.2470644333373972  1.0000
  Cl  Cl6       1.0  0.752935882286129  0.2470641619748626  0.7529358642103886  1.0000
