data_image0
_chemical_formula_structural       Ba2NF6
_chemical_formula_sum              "Ba2 N1 F6"
_cell_length_a       5.733074431235612
_cell_length_b       5.7330745476823575
_cell_length_c       5.733074421840861
_cell_angle_alpha    60.00000049235931
_cell_angle_beta     59.99999965828709
_cell_angle_gamma    60.000000386454275

_space_group_name_H-M_alt    "P 1"
_space_group_IT_number       1

loop_
  _space_group_symop_operation_xyz
  'x, y, z'

loop_
  _atom_site_type_symbol
  _atom_site_label
  _atom_site_symmetry_multiplicity
  _atom_site_fract_x
  _atom_site_fract_y
  _atom_site_fract_z
  _atom_site_occupancy
  Ba  Ba1       1.0  0.24999996213827966  0.2500001141776324  0.2499999552590305  1.0000
  Ba  Ba2       1.0  0.7500000262294404  0.7499999110044734  0.7500000726832717  1.0000
  N   N1        1.0  0.9999999755864062  1.2817676000807785e-08  0.999999986611046  1.0000
  F   F1        1.0  0.24047529759858902  0.240475418256186  0.7595246510727599  1.0000
  F   F2        1.0  0.7595247196996352  0.759524568472892  0.24047536244389106  1.0000
  F   F3        1.0  0.7595246533791665  0.24047538783144332  0.2404752291773991  1.0000
  F   F4        1.0  0.24047530953826293  0.7595245988976348  0.7595247295492029  1.0000
  F   F5        1.0  0.24047537303333624  0.7595245717248252  0.24047534083332733  1.0000
  F   F6        1.0  0.7595246586079643  0.24047540218657681  0.7595246771534178  1.0000
