data_image0
_chemical_formula_structural       Ba2PBr6
_chemical_formula_sum              "Ba2 P1 Br6"
_cell_length_a       7.445713884811906
_cell_length_b       7.445713957411787
_cell_length_c       7.445713854135551
_cell_angle_alpha    59.999999227871875
_cell_angle_beta     60.00000060874536
_cell_angle_gamma    59.999998554022845

_space_group_name_H-M_alt    "P 1"
_space_group_IT_number       1

loop_
  _space_group_symop_operation_xyz
  'x, y, z'

loop_
  _atom_site_type_symbol
  _atom_site_label
  _atom_site_symmetry_multiplicity
  _atom_site_fract_x
  _atom_site_fract_y
  _atom_site_fract_z
  _atom_site_occupancy
  Ba  Ba1       1.0  0.2499999626499234  0.24999996913867106  0.2500000142636504  1.0000
  Ba  Ba2       1.0  0.7500000244519536  0.7500000143344571  0.7500000244958388  1.0000
  P   P1        1.0  2.3340319472514443e-08  2.3028589022743224e-08  0.9999999338377995  1.0000
  Br  Br1       1.0  0.2566296461814288  0.25662964676504074  0.7433703649307777  1.0000
  Br  Br2       1.0  0.7433703531227668  0.7433703745407687  0.2566296394098296  1.0000
  Br  Br3       1.0  0.7433703878627232  0.25662961697915215  0.25662961192527795  1.0000
  Br  Br4       1.0  0.2566296072593617  0.7433703796531701  0.7433703772959279  1.0000
  Br  Br5       1.0  0.25662960284258546  0.7433703906041647  0.25662962881644935  1.0000
  Br  Br6       1.0  0.7433704005039962  0.2566295813546689  0.7433703968333985  1.0000
