data_image0
_chemical_formula_structural       Ba2PCl6
_chemical_formula_sum              "Ba2 P1 Cl6"
_cell_length_a       7.156695027985559
_cell_length_b       7.1566948704874935
_cell_length_c       7.156694966169676
_cell_angle_alpha    60.00000008541959
_cell_angle_beta     59.99999992219542
_cell_angle_gamma    60.00000098583221

_space_group_name_H-M_alt    "P 1"
_space_group_IT_number       1

loop_
  _space_group_symop_operation_xyz
  'x, y, z'

loop_
  _atom_site_type_symbol
  _atom_site_label
  _atom_site_symmetry_multiplicity
  _atom_site_fract_x
  _atom_site_fract_y
  _atom_site_fract_z
  _atom_site_occupancy
  Ba  Ba1       1.0  0.24999998127918377  0.24999995471863642  0.25000000393433136  1.0000
  Ba  Ba2       1.0  0.7500000113229551  0.7500000198867129  0.7500000049918683  1.0000
  P   P1        1.0  0.999999993171482  0.9999999914433629  6.777617785517887e-08  1.0000
  Cl  Cl1       1.0  0.2550273008286977  0.25502722427239305  0.7449727271226998  1.0000
  Cl  Cl2       1.0  0.7449727694625222  0.7449728222087117  0.25502718466439306  1.0000
  Cl  Cl3       1.0  0.7449727584581907  0.2550272007098338  0.2550272261546218  1.0000
  Cl  Cl4       1.0  0.2550272370940329  0.7449727602048954  0.7449727937310172  1.0000
  Cl  Cl5       1.0  0.2550272275571288  0.7449727651576776  0.2550272015028398  1.0000
  Cl  Cl6       1.0  0.744972729434336  0.2550272436742206  0.7449727871560269  1.0000
