data_image0
_chemical_formula_structural       Ba2PF6
_chemical_formula_sum              "Ba2 P1 F6"
_cell_length_a       5.966391558957261
_cell_length_b       5.966391106946847
_cell_length_c       5.966391758987638
_cell_angle_alpha    60.000000482894706
_cell_angle_beta     60.000000407348516
_cell_angle_gamma    60.00000124965976

_space_group_name_H-M_alt    "P 1"
_space_group_IT_number       1

loop_
  _space_group_symop_operation_xyz
  'x, y, z'

loop_
  _atom_site_type_symbol
  _atom_site_label
  _atom_site_symmetry_multiplicity
  _atom_site_fract_x
  _atom_site_fract_y
  _atom_site_fract_z
  _atom_site_occupancy
  Ba  Ba1       1.0  0.24999996957464993  0.2500000184857916  0.2500000216905246  1.0000
  Ba  Ba2       1.0  0.7500000426549931  0.7499999671895643  0.7500000154230781  1.0000
  P   P1        1.0  1.0486123285784963e-07  0.9999987970944643  6.026558713962128e-07  1.0000
  F   F1        1.0  0.25604581144345806  0.2560457929799658  0.7439541887095781  1.0000
  F   F2        1.0  0.7439548642457582  0.7439548208337939  0.2560451824924044  1.0000
  F   F3        1.0  0.7439542732415431  0.2560457192248955  0.25604576985083444  1.0000
  F   F4        1.0  0.2560453852464558  0.7439545148319839  0.7439546367172039  1.0000
  F   F5        1.0  0.2560453323147302  0.7439546222311245  0.25604538937322874  1.0000
  F   F6        1.0  0.7439542207826113  0.2560457596229891  0.743954230034446  1.0000
