data_image0
_chemical_formula_structural       Ba2RuI6
_chemical_formula_sum              "Ba2 Ru1 I6"
_cell_length_a       7.881775088999951
_cell_length_b       7.881774958415376
_cell_length_c       7.881774896343578
_cell_angle_alpha    59.999999508993874
_cell_angle_beta     60.00000051588862
_cell_angle_gamma    59.99999831149749

_space_group_name_H-M_alt    "P 1"
_space_group_IT_number       1

loop_
  _space_group_symop_operation_xyz
  'x, y, z'

loop_
  _atom_site_type_symbol
  _atom_site_label
  _atom_site_symmetry_multiplicity
  _atom_site_fract_x
  _atom_site_fract_y
  _atom_site_fract_z
  _atom_site_occupancy
  Ba  Ba1       1.0  0.249999998722675  0.25000003541673554  0.24999999641434445  1.0000
  Ba  Ba2       1.0  0.7500000128622685  0.7499999990314679  0.7499999634552951  1.0000
  Ru  Ru1       1.0  2.7170287453037633e-08  0.9999999580448409  4.854936490821103e-09  1.0000
  I   I1        1.0  0.24530418961542275  0.2453042006341277  0.7546958097470381  1.0000
  I   I2        1.0  0.7546958126918959  0.7546957825355484  0.24530422226941986  1.0000
  I   I3        1.0  0.7546957664703879  0.24530421858390125  0.2453042191658743  1.0000
  I   I4        1.0  0.2453042348010009  0.7546957676935642  0.7546958143521533  1.0000
  I   I5        1.0  0.2453041772864866  0.7546958041016939  0.24530419005130388  1.0000
  I   I6        1.0  0.7546957775026705  0.24530423811598426  0.7546957778377448  1.0000
