data_image0
_chemical_formula_structural       Ba2RhI6
_chemical_formula_sum              "Ba2 Rh1 I6"
_cell_length_a       7.882995296692946
_cell_length_b       7.882995071843966
_cell_length_c       7.882995160817468
_cell_angle_alpha    60.00000036603952
_cell_angle_beta     60.000000014870054
_cell_angle_gamma    60.000000634586556

_space_group_name_H-M_alt    "P 1"
_space_group_IT_number       1

loop_
  _space_group_symop_operation_xyz
  'x, y, z'

loop_
  _atom_site_type_symbol
  _atom_site_label
  _atom_site_symmetry_multiplicity
  _atom_site_fract_x
  _atom_site_fract_y
  _atom_site_fract_z
  _atom_site_occupancy
  Ba  Ba1       1.0  0.25000006290426724  0.24999998183922922  0.24999998426698872  1.0000
  Ba  Ba2       1.0  0.7499999085349959  0.7500000433979017  0.7500000426812101  1.0000
  Rh  Rh1       1.0  0.9999999493387677  0.9999999937853818  0.9999999586674906  1.0000
  I   I1        1.0  0.24303301821609463  0.24303297106241734  0.7569670106693845  1.0000
  I   I2        1.0  0.7569670660127085  0.7569670541747143  0.24303292817020955  1.0000
  I   I3        1.0  0.7569669864096031  0.24303299703911216  0.24303300476622805  1.0000
  I   I4        1.0  0.24303295884098397  0.7569670188760929  0.7569670412058253  1.0000
  I   I5        1.0  0.2430330168669608  0.7569669808631074  0.24303298489453903  1.0000
  I   I6        1.0  0.7569670280357085  0.24303295581573275  0.7569670508696545  1.0000
