data_image0
_chemical_formula_structural       Ba2RuBr6
_chemical_formula_sum              "Ba2 Ru1 Br6"
_cell_length_a       7.317586787687643
_cell_length_b       7.317586810074457
_cell_length_c       7.317586865164897
_cell_angle_alpha    59.999999478427995
_cell_angle_beta     59.99999961469778
_cell_angle_gamma    60.00000011272996

_space_group_name_H-M_alt    "P 1"
_space_group_IT_number       1

loop_
  _space_group_symop_operation_xyz
  'x, y, z'

loop_
  _atom_site_type_symbol
  _atom_site_label
  _atom_site_symmetry_multiplicity
  _atom_site_fract_x
  _atom_site_fract_y
  _atom_site_fract_z
  _atom_site_occupancy
  Ba  Ba1       1.0  0.24999996118569523  0.25000001344067807  0.2500000363510216  1.0000
  Ba  Ba2       1.0  0.7500000474126872  0.7499999984795223  0.7499999523865692  1.0000
  Ru  Ru1       1.0  0.9999999919515049  0.9999999531363858  8.324064567753072e-09  1.0000
  Br  Br1       1.0  0.24373479798609887  0.24373478187689154  0.7562651937638164  1.0000
  Br  Br2       1.0  0.7562652248934011  0.756265253475116  0.24373476245160475  1.0000
  Br  Br3       1.0  0.7562652154963875  0.24373476479956627  0.2437347854196694  1.0000
  Br  Br4       1.0  0.2437347372190754  0.7562652538154356  0.7562652538768241  1.0000
  Br  Br5       1.0  0.24373478017046554  0.756265220183278  0.24373477173780125  1.0000
  Br  Br6       1.0  0.7562652411639  0.2437347582629123  0.7562652342016567  1.0000
