data_image0
_chemical_formula_structural       Ba2RhCl6
_chemical_formula_sum              "Ba2 Rh1 Cl6"
_cell_length_a       6.992562522867792
_cell_length_b       6.992562532329956
_cell_length_c       6.992562514626705
_cell_angle_alpha    60.00000006917622
_cell_angle_beta     60.00000015593508
_cell_angle_gamma    59.99999957942473

_space_group_name_H-M_alt    "P 1"
_space_group_IT_number       1

loop_
  _space_group_symop_operation_xyz
  'x, y, z'

loop_
  _atom_site_type_symbol
  _atom_site_label
  _atom_site_symmetry_multiplicity
  _atom_site_fract_x
  _atom_site_fract_y
  _atom_site_fract_z
  _atom_site_occupancy
  Ba  Ba1       1.0  0.24999998910097143  0.2500000055806259  0.25000000895720725  1.0000
  Ba  Ba2       1.0  0.7500000095705935  0.749999993972423  0.7499999942410551  1.0000
  Rh  Rh1       1.0  0.9999999933775066  2.9775440342717973e-08  1.5595253591215408e-08  1.0000
  Cl  Cl1       1.0  0.24225100848018438  0.24225101003152527  0.7577489902699162  1.0000
  Cl  Cl2       1.0  0.7577489829192581  0.7577489667520695  0.24225102794913447  1.0000
  Cl  Cl3       1.0  0.7577489979315444  0.24225100374245875  0.24225100423301163  1.0000
  Cl  Cl4       1.0  0.24225102484310598  0.7577489730411358  0.7577489754169807  1.0000
  Cl  Cl5       1.0  0.24225101285532782  0.7577489873660762  0.24225101302746488  1.0000
  Cl  Cl6       1.0  0.7577489805617473  0.24225102795044123  0.7577489734755811  1.0000
