data_image0
_chemical_formula_structural       Ba2RhF6
_chemical_formula_sum              "Ba2 Rh1 F6"
_cell_length_a       5.9332090218496
_cell_length_b       5.933209032264548
_cell_length_c       5.933209246333012
_cell_angle_alpha    59.999999418359444
_cell_angle_beta     59.999999935307514
_cell_angle_gamma    59.99999860725766

_space_group_name_H-M_alt    "P 1"
_space_group_IT_number       1

loop_
  _space_group_symop_operation_xyz
  'x, y, z'

loop_
  _atom_site_type_symbol
  _atom_site_label
  _atom_site_symmetry_multiplicity
  _atom_site_fract_x
  _atom_site_fract_y
  _atom_site_fract_z
  _atom_site_occupancy
  Ba  Ba1       1.0  0.2500000250341114  0.25000002087186113  0.24999991249469147  1.0000
  Ba  Ba2       1.0  0.7499999843611538  0.7499999903678848  0.7500001459516431  1.0000
  Rh  Rh1       1.0  0.999999973421504  3.302752062058179e-08  8.573487152856932e-09  1.0000
  F   F1        1.0  0.24514015704894507  0.24514016085658802  0.754859834885152  1.0000
  F   F2        1.0  0.7548598630215838  0.7548598008418771  0.24514013849762376  1.0000
  F   F3        1.0  0.7548598806773554  0.2451401351811519  0.24514016888682844  1.0000
  F   F4        1.0  0.24514018016484554  0.7548597976182325  0.7548598406953645  1.0000
  F   F5        1.0  0.24514012498442506  0.7548598748090967  0.24514016122081692  1.0000
  F   F6        1.0  0.7548597868462095  0.24514018390771053  0.7548598194581632  1.0000
