data_image0
_chemical_formula_structural       Ba2RuCl6
_chemical_formula_sum              "Ba2 Ru1 Cl6"
_cell_length_a       6.987972520413959
_cell_length_b       6.987972523380312
_cell_length_c       6.987972468035003
_cell_angle_alpha    60.00000080907905
_cell_angle_beta     60.000000337661916
_cell_angle_gamma    60.000000340374456

_space_group_name_H-M_alt    "P 1"
_space_group_IT_number       1

loop_
  _space_group_symop_operation_xyz
  'x, y, z'

loop_
  _atom_site_type_symbol
  _atom_site_label
  _atom_site_symmetry_multiplicity
  _atom_site_fract_x
  _atom_site_fract_y
  _atom_site_fract_z
  _atom_site_occupancy
  Ba  Ba1       1.0  0.2500000142881685  0.24999992543548566  0.24999998354240216  1.0000
  Ba  Ba2       1.0  0.7499999821375228  0.7500000725037899  0.7500000203569956  1.0000
  Ru  Ru1       1.0  7.4375710122707e-08  0.9999999702050014  0.9999998689513451  1.0000
  Cl  Cl1       1.0  0.24400282343548044  0.2440028385270891  0.7559971919396486  1.0000
  Cl  Cl2       1.0  0.755997112787505  0.7559970525007238  0.24400294130980063  1.0000
  Cl  Cl3       1.0  0.7559971336607914  0.24400292216609548  0.2440028676923413  1.0000
  Cl  Cl4       1.0  0.24400282799547  0.755997194953172  0.7559971455188648  1.0000
  Cl  Cl5       1.0  0.24400288017612157  0.7559971411246429  0.24400287384589592  1.0000
  Cl  Cl6       1.0  0.7559971510332467  0.24400288135168968  0.7559971032551952  1.0000
