data_image0
_chemical_formula_structural       Ba2RhBr6
_chemical_formula_sum              "Ba2 Rh1 Br6"
_cell_length_a       7.319209343118139
_cell_length_b       7.319209285544999
_cell_length_c       7.31920944186311
_cell_angle_alpha    59.99999964769171
_cell_angle_beta     59.999999916386024
_cell_angle_gamma    60.00000084062631

_space_group_name_H-M_alt    "P 1"
_space_group_IT_number       1

loop_
  _space_group_symop_operation_xyz
  'x, y, z'

loop_
  _atom_site_type_symbol
  _atom_site_label
  _atom_site_symmetry_multiplicity
  _atom_site_fract_x
  _atom_site_fract_y
  _atom_site_fract_z
  _atom_site_occupancy
  Ba  Ba1       1.0  0.24999998804311263  0.24999996470988753  0.25000005764105954  1.0000
  Ba  Ba2       1.0  0.7500000321724362  0.7500000213027042  0.7499999605486162  1.0000
  Rh  Rh1       1.0  0.9999999381689073  4.3506565963317684e-08  5.151656436264764e-08  1.0000
  Br  Br1       1.0  0.24319870483048406  0.24319875338226354  0.7568012787879762  1.0000
  Br  Br2       1.0  0.7568012948594536  0.7568012610769294  0.24319872997613357  1.0000
  Br  Br3       1.0  0.7568013046334028  0.2431986992219166  0.24319873465096015  1.0000
  Br  Br4       1.0  0.24319871877024435  0.7568012298974726  0.7568012338802723  1.0000
  Br  Br5       1.0  0.24319871471572121  0.7568012837590401  0.2431987441396323  1.0000
  Br  Br6       1.0  0.7568013026945262  0.24319873906680028  0.7568012133255014  1.0000
