data_image0
_chemical_formula_structural       Ba2RuF6
_chemical_formula_sum              "Ba2 Ru1 F6"
_cell_length_a       5.895417372572384
_cell_length_b       5.895417363299902
_cell_length_c       5.895417463296332
_cell_angle_alpha    59.99999918936369
_cell_angle_beta     59.999999842666604
_cell_angle_gamma    59.9999983289022

_space_group_name_H-M_alt    "P 1"
_space_group_IT_number       1

loop_
  _space_group_symop_operation_xyz
  'x, y, z'

loop_
  _atom_site_type_symbol
  _atom_site_label
  _atom_site_symmetry_multiplicity
  _atom_site_fract_x
  _atom_site_fract_y
  _atom_site_fract_z
  _atom_site_occupancy
  Ba  Ba1       1.0  0.25000001943090533  0.2499999667490175  0.2500000203933894  1.0000
  Ba  Ba2       1.0  0.7499999714573024  0.7500000373589121  0.7499998799885347  1.0000
  Ru  Ru1       1.0  0.9999999896331232  0.9999999958450952  4.118554516075558e-08  1.0000
  F   F1        1.0  0.250469375186255  0.250469379572901  0.7495306239509388  1.0000
  F   F2        1.0  0.7495306768542961  0.7495306702389798  0.2504693570052229  1.0000
  F   F3        1.0  0.7495305798484717  0.25046937374485706  0.25046940836665593  1.0000
  F   F4        1.0  0.2504693990910389  0.7495305721944054  0.7495306288479134  1.0000
  F   F5        1.0  0.25046935175827256  0.7495306677548688  0.2504693663540214  1.0000
  F   F6        1.0  0.7495306192855183  0.2504693841344655  0.749530655758026  1.0000
