data_image0
_chemical_formula_structural       Ba2SbI6
_chemical_formula_sum              "Ba2 Sb1 I6"
_cell_length_a       8.211157098781216
_cell_length_b       8.21115696178121
_cell_length_c       8.211157023482608
_cell_angle_alpha    60.0000012337933
_cell_angle_beta     60.000000233620376
_cell_angle_gamma    59.999999958385175

_space_group_name_H-M_alt    "P 1"
_space_group_IT_number       1

loop_
  _space_group_symop_operation_xyz
  'x, y, z'

loop_
  _atom_site_type_symbol
  _atom_site_label
  _atom_site_symmetry_multiplicity
  _atom_site_fract_x
  _atom_site_fract_y
  _atom_site_fract_z
  _atom_site_occupancy
  Ba  Ba1       1.0  0.2500000510650334  0.24999989055414049  0.24999995005104705  1.0000
  Ba  Ba2       1.0  0.7499999639398591  0.7500000833335022  0.7500000421911627  1.0000
  Sb  Sb1       1.0  8.384026385398554e-10  0.9999999806096963  3.972232947772376e-08  1.0000
  I   I1        1.0  0.259932398974139  0.2599323482145808  0.740067623885123  1.0000
  I   I2        1.0  0.740067600064728  0.7400676271646242  0.2599323962978562  1.0000
  I   I3        1.0  0.740067632363622  0.2599323612132996  0.2599323772805562  1.0000
  I   I4        1.0  0.2599323932089032  0.7400676484718285  0.7400676222254744  1.0000
  I   I5        1.0  0.2599323951275627  0.7400676268528464  0.2599323504429528  1.0000
  I   I6        1.0  0.7400675601027908  0.2599324335453843  0.7400675992027096  1.0000
