data_image0
_chemical_formula_structural       Ba2SbCl6
_chemical_formula_sum              "Ba2 Sb1 Cl6"
_cell_length_a       7.338642464240493
_cell_length_b       7.338642508960535
_cell_length_c       7.338642754930028
_cell_angle_alpha    59.999999790956295
_cell_angle_beta     60.00000011085749
_cell_angle_gamma    59.99999918759584

_space_group_name_H-M_alt    "P 1"
_space_group_IT_number       1

loop_
  _space_group_symop_operation_xyz
  'x, y, z'

loop_
  _atom_site_type_symbol
  _atom_site_label
  _atom_site_symmetry_multiplicity
  _atom_site_fract_x
  _atom_site_fract_y
  _atom_site_fract_z
  _atom_site_occupancy
  Ba  Ba1       1.0  0.24999991402590013  0.24999996468890023  0.25000015803319253  1.0000
  Ba  Ba2       1.0  0.7500000728026254  0.7500000158962793  0.7499998594671405  1.0000
  Sb  Sb1       1.0  0.9999999932944635  0.9999999115483841  0.9999999426545417  1.0000
  Cl  Cl1       1.0  0.2601945262377638  0.2601944445932504  0.7398055375535888  1.0000
  Cl  Cl2       1.0  0.7398055260240222  0.7398055426675224  0.260194483409162  1.0000
  Cl  Cl3       1.0  0.7398054985823956  0.2601944990184047  0.260194536837341  1.0000
  Cl  Cl4       1.0  0.2601945000701832  0.7398055216203367  0.739805511955476  1.0000
  Cl  Cl5       1.0  0.26019447507601434  0.7398055476756344  0.2601945155584749  1.0000
  Cl  Cl6       1.0  0.7398054930919145  0.2601945313745513  0.7398054852047004  1.0000
