data_image0
_chemical_formula_structural       Ba2SbBr6
_chemical_formula_sum              "Ba2 Sb1 Br6"
_cell_length_a       7.648271580060709
_cell_length_b       7.648271679130017
_cell_length_c       7.648271547177488
_cell_angle_alpha    60.00000064259807
_cell_angle_beta     59.999999727626836
_cell_angle_gamma    59.99999940574408

_space_group_name_H-M_alt    "P 1"
_space_group_IT_number       1

loop_
  _space_group_symop_operation_xyz
  'x, y, z'

loop_
  _atom_site_type_symbol
  _atom_site_label
  _atom_site_symmetry_multiplicity
  _atom_site_fract_x
  _atom_site_fract_y
  _atom_site_fract_z
  _atom_site_occupancy
  Ba  Ba1       1.0  0.24999996537558547  0.24999998898304443  0.2499999811719214  1.0000
  Ba  Ba2       1.0  0.7500000955659669  0.7500000117865241  0.7499999900430225  1.0000
  Sb  Sb1       1.0  6.624599417539386e-08  9.608011876640032e-09  0.9999999320008427  1.0000
  Br  Br1       1.0  0.2613768879473616  0.2613769212156478  0.7386231068779255  1.0000
  Br  Br2       1.0  0.7386230729998394  0.7386230715472446  0.2613769157225625  1.0000
  Br  Br3       1.0  0.7386230692533764  0.26137689396316854  0.26137694878253925  1.0000
  Br  Br4       1.0  0.26137687917359914  0.7386230955970534  0.7386231418237049  1.0000
  Br  Br5       1.0  0.2613768817896057  0.7386231344938383  0.2613768887016404  1.0000
  Br  Br6       1.0  0.738623072126893  0.2613768838904217  0.7386230840714813  1.0000
