data_image0
_chemical_formula_structural       Ba2SbF6
_chemical_formula_sum              "Ba2 Sb1 F6"
_cell_length_a       6.189583398684069
_cell_length_b       6.189582654291189
_cell_length_c       6.189583008635675
_cell_angle_alpha    59.99999937186167
_cell_angle_beta     59.999999119737026
_cell_angle_gamma    59.99999926892755

_space_group_name_H-M_alt    "P 1"
_space_group_IT_number       1

loop_
  _space_group_symop_operation_xyz
  'x, y, z'

loop_
  _atom_site_type_symbol
  _atom_site_label
  _atom_site_symmetry_multiplicity
  _atom_site_fract_x
  _atom_site_fract_y
  _atom_site_fract_z
  _atom_site_occupancy
  Ba  Ba1       1.0  0.2500000262091477  0.24999998197715148  0.2500000113862068  1.0000
  Ba  Ba2       1.0  0.7499999466612296  0.750000050803593  0.7500000056996009  1.0000
  Sb  Sb1       1.0  2.5930266879317185e-08  0.9999999445958503  2.4430646659935306e-08  1.0000
  F   F1        1.0  0.2596712051962442  0.2596711891141199  0.7403287964993513  1.0000
  F   F2        1.0  0.740328817403951  0.74032881200711  0.25967116954524255  1.0000
  F   F3        1.0  0.7403287997214604  0.25967118442456383  0.25967119678377654  1.0000
  F   F4        1.0  0.25967119171071495  0.7403288206541053  0.7403288054847564  1.0000
  F   F5        1.0  0.2596711779973741  0.7403288321175191  0.259671165238856  1.0000
  F   F6        1.0  0.7403288073854782  0.2596711967057854  0.7403288136414617  1.0000
