data_image0
_chemical_formula_structural       Ba2TaI6
_chemical_formula_sum              "Ba2 Ta1 I6"
_cell_length_a       8.148796774933011
_cell_length_b       8.148796783239822
_cell_length_c       8.148796740401325
_cell_angle_alpha    60.00000011179621
_cell_angle_beta     59.99999991234869
_cell_angle_gamma    59.999999534478896

_space_group_name_H-M_alt    "P 1"
_space_group_IT_number       1

loop_
  _space_group_symop_operation_xyz
  'x, y, z'

loop_
  _atom_site_type_symbol
  _atom_site_label
  _atom_site_symmetry_multiplicity
  _atom_site_fract_x
  _atom_site_fract_y
  _atom_site_fract_z
  _atom_site_occupancy
  Ba  Ba1       1.0  0.25000001085022455  0.24999998397642112  0.25000000937730393  1.0000
  Ba  Ba2       1.0  0.749999997095686  0.7500000030304589  0.7499999933109571  1.0000
  Ta  Ta1       1.0  0.9999999901520709  2.1041668744105107e-08  1.2810755844672752e-08  1.0000
  I   I1        1.0  0.2503448617281711  0.2503448795471691  0.7496551312188761  1.0000
  I   I2        1.0  0.7496551357116527  0.7496551134716164  0.2503448761708257  1.0000
  I   I3        1.0  0.7496551394494252  0.25034485550219643  0.25034485996912337  1.0000
  I   I4        1.0  0.25034487699860347  0.7496551315046834  0.7496551249691533  1.0000
  I   I5        1.0  0.25034486424394564  0.7496551434501628  0.2503448542232543  1.0000
  I   I6        1.0  0.7496551243499334  0.2503448676043388  0.7496551399813365  1.0000
