data_image0
_chemical_formula_structural       Ba2TlI6
_chemical_formula_sum              "Ba2 Tl1 I6"
_cell_length_a       8.117388671112904
_cell_length_b       8.117388822196503
_cell_length_c       8.117388846278109
_cell_angle_alpha    59.999998692333946
_cell_angle_beta     60.0000005935008
_cell_angle_gamma    60.00000130805422

_space_group_name_H-M_alt    "P 1"
_space_group_IT_number       1

loop_
  _space_group_symop_operation_xyz
  'x, y, z'

loop_
  _atom_site_type_symbol
  _atom_site_label
  _atom_site_symmetry_multiplicity
  _atom_site_fract_x
  _atom_site_fract_y
  _atom_site_fract_z
  _atom_site_occupancy
  Ba  Ba1       1.0  0.2500000428970397  0.249999996192507  0.25000000858753324  1.0000
  Ba  Ba2       1.0  0.7499999363944192  0.7500000021566448  0.750000015335603  1.0000
  Tl  Tl1       1.0  0.9999999807604764  0.9999999894384561  1.0729477695175302e-07  1.0000
  I   I1        1.0  0.2641895921137616  0.2641896735567512  0.7358103000627397  1.0000
  I   I2        1.0  0.7358104537764446  0.7358103383715271  0.26418967268415117  1.0000
  I   I3        1.0  0.7358103704140909  0.26418955802203126  0.26418961655503287  1.0000
  I   I4        1.0  0.2641897556269146  0.7358103286765394  0.7358103109755356  1.0000
  I   I5        1.0  0.2641896543914232  0.7358104174389737  0.2641895482063589  1.0000
  I   I6        1.0  0.7358102137130476  0.2641896925607621  0.7358104249761244  1.0000
