data_image0
_chemical_formula_structural       Ba2TlBr6
_chemical_formula_sum              "Ba2 Tl1 Br6"
_cell_length_a       7.563719315933286
_cell_length_b       7.563719399442635
_cell_length_c       7.563719560658357
_cell_angle_alpha    59.99999823403202
_cell_angle_beta     59.99999915397516
_cell_angle_gamma    60.00000263700384

_space_group_name_H-M_alt    "P 1"
_space_group_IT_number       1

loop_
  _space_group_symop_operation_xyz
  'x, y, z'

loop_
  _atom_site_type_symbol
  _atom_site_label
  _atom_site_symmetry_multiplicity
  _atom_site_fract_x
  _atom_site_fract_y
  _atom_site_fract_z
  _atom_site_occupancy
  Ba  Ba1       1.0  0.249999986762521  0.25000001308029746  0.2500000090311882  1.0000
  Ba  Ba2       1.0  0.7499999748606874  0.7499999955215143  0.7500000006815658  1.0000
  Tl  Tl1       1.0  8.748097194768855e-08  0.9999999757114584  5.301823908443201e-08  1.0000
  Br  Br1       1.0  0.2619301779423673  0.26193014483841065  0.738069843476954  1.0000
  Br  Br2       1.0  0.7380698435898565  0.7380698443325681  0.26193015260721314  1.0000
  Br  Br3       1.0  0.7380697735692594  0.26193020715925924  0.2619302249696557  1.0000
  Br  Br4       1.0  0.26193021007501555  0.7380697674385919  0.7380697828019406  1.0000
  Br  Br5       1.0  0.26193016299028105  0.7380698642456611  0.261930182548248  1.0000
  Br  Br6       1.0  0.7380697739131334  0.26193018645629323  0.7380697550134907  1.0000
