data_image0
_chemical_formula_structural       Ba2TlCl6
_chemical_formula_sum              "Ba2 Tl1 Cl6"
_cell_length_a       7.210229404187556
_cell_length_b       7.2102294730466205
_cell_length_c       7.210229493824466
_cell_angle_alpha    59.99999984464583
_cell_angle_beta     59.99999988680475
_cell_angle_gamma    60.00000011393852

_space_group_name_H-M_alt    "P 1"
_space_group_IT_number       1

loop_
  _space_group_symop_operation_xyz
  'x, y, z'

loop_
  _atom_site_type_symbol
  _atom_site_label
  _atom_site_symmetry_multiplicity
  _atom_site_fract_x
  _atom_site_fract_y
  _atom_site_fract_z
  _atom_site_occupancy
  Ba  Ba1       1.0  0.24999998713196525  0.24999999962280695  0.25000000888749163  1.0000
  Ba  Ba2       1.0  0.7500000081134536  0.7500000124573907  0.7499999868007822  1.0000
  Tl  Tl1       1.0  0.9999999977351717  6.7944848513395365e-09  0.9999999921874981  1.0000
  Cl  Cl1       1.0  0.2601535310242735  0.2601535138067244  0.7398464719743811  1.0000
  Cl  Cl2       1.0  0.7398464753509951  0.7398464744927763  0.2601535203308875  1.0000
  Cl  Cl3       1.0  0.7398464761227448  0.26015351622429966  0.2601535101551316  1.0000
  Cl  Cl4       1.0  0.26015351224771105  0.7398464924586554  0.7398464892823268  1.0000
  Cl  Cl5       1.0  0.26015352098463423  0.739846476339124  0.2601535146901572  1.0000
  Cl  Cl6       1.0  0.7398464918936821  0.260153506864513  0.7398465018760507  1.0000
