data_image0
_chemical_formula_structural       Ba2TaF6
_chemical_formula_sum              "Ba2 Ta1 F6"
_cell_length_a       6.084363741868404
_cell_length_b       6.08436309028855
_cell_length_c       6.0843643308925595
_cell_angle_alpha    59.99999626236392
_cell_angle_beta     59.99999857401131
_cell_angle_gamma    59.99999888983095

_space_group_name_H-M_alt    "P 1"
_space_group_IT_number       1

loop_
  _space_group_symop_operation_xyz
  'x, y, z'

loop_
  _atom_site_type_symbol
  _atom_site_label
  _atom_site_symmetry_multiplicity
  _atom_site_fract_x
  _atom_site_fract_y
  _atom_site_fract_z
  _atom_site_occupancy
  Ba  Ba1       1.0  0.2500000201452986  0.2499999891133583  0.24999994434583733  1.0000
  Ba  Ba2       1.0  0.7500000081587558  0.7500000216894185  0.7499999585553049  1.0000
  Ta  Ta1       1.0  2.4385504775472862e-08  0.9999999154565802  3.5009627116064766e-08  1.0000
  F   F1        1.0  0.24994996110180157  0.24994997725158294  0.7500500364260351  1.0000
  F   F2        1.0  0.7500500333671717  0.7500500496547045  0.24994998381565875  1.0000
  F   F3        1.0  0.7500500072412604  0.2499499639532403  0.24995000386419716  1.0000
  F   F4        1.0  0.249949966466854  0.7500500569142298  0.7500500001933074  1.0000
  F   F5        1.0  0.24995000651473653  0.7500500351701614  0.24995001600364108  1.0000
  F   F6        1.0  0.7500499554611133  0.24995000381375593  0.7500499947231147  1.0000
