data_image0
_chemical_formula_structural       Be2BI6
_chemical_formula_sum              "Be2 B1 I6"
_cell_length_a       7.235664128123413
_cell_length_b       7.235664376674491
_cell_length_c       7.235664425669112
_cell_angle_alpha    59.99999867204211
_cell_angle_beta     60.00000005595095
_cell_angle_gamma    59.99999967200935

_space_group_name_H-M_alt    "P 1"
_space_group_IT_number       1

loop_
  _space_group_symop_operation_xyz
  'x, y, z'

loop_
  _atom_site_type_symbol
  _atom_site_label
  _atom_site_symmetry_multiplicity
  _atom_site_fract_x
  _atom_site_fract_y
  _atom_site_fract_z
  _atom_site_occupancy
  Be  Be1       1.0  0.2500000096030496  0.24999987718983496  0.25000009273496915  1.0000
  Be  Be2       1.0  0.7500000081044282  0.7500000479614605  0.7499999255724605  1.0000
  B   B1        1.0  0.9999999843319538  0.9999999847661476  4.723794028444243e-08  1.0000
  I   I1        1.0  0.2425470682427158  0.24254707860393296  0.7574529374219724  1.0000
  I   I2        1.0  0.7574529016031443  0.7574529853446793  0.24254707964298475  1.0000
  I   I3        1.0  0.7574529390046557  0.24254704794108817  0.24254710212748767  1.0000
  I   I4        1.0  0.24254706870731182  0.7574529550721171  0.7574528919210431  1.0000
  I   I5        1.0  0.24254704891101106  0.7574529541157924  0.24254708566179897  1.0000
  I   I6        1.0  0.7574529587843465  0.24254707767246764  0.7574528414898719  1.0000
