data_image0
_chemical_formula_structural       Be2BCl6
_chemical_formula_sum              "Be2 B1 Cl6"
_cell_length_a       6.201651537936345
_cell_length_b       6.201650972098225
_cell_length_c       6.201651905022977
_cell_angle_alpha    60.000001427229456
_cell_angle_beta     59.999995548398594
_cell_angle_gamma    59.999990664085445

_space_group_name_H-M_alt    "P 1"
_space_group_IT_number       1

loop_
  _space_group_symop_operation_xyz
  'x, y, z'

loop_
  _atom_site_type_symbol
  _atom_site_label
  _atom_site_symmetry_multiplicity
  _atom_site_fract_x
  _atom_site_fract_y
  _atom_site_fract_z
  _atom_site_occupancy
  Be  Be1       1.0  0.24999996730885954  0.25000001702068986  0.25000015349027943  1.0000
  Be  Be2       1.0  0.7499997906629073  0.7500000273636331  0.7500003199427983  1.0000
  B   B1        1.0  1.2807633260124654e-08  1.1849130621525509e-08  0.9999989766506685  1.0000
  Cl  Cl1       1.0  0.23075547043325836  0.23075536705633737  0.7692446598252025  1.0000
  Cl  Cl2       1.0  0.7692446268993053  0.7692445864839543  0.2307554184539157  1.0000
  Cl  Cl3       1.0  0.7692444301822964  0.23075566469471168  0.2307554446075622  1.0000
  Cl  Cl4       1.0  0.23075529372280337  0.7692447667639516  0.76924474589844  1.0000
  Cl  Cl5       1.0  0.23075563499095486  0.7692443532998302  0.23075554055813127  1.0000
  Cl  Cl6       1.0  0.7692447806437935  0.23075518156819833  0.7692447910776741  1.0000
