data_image0
_chemical_formula_structural       Be2BF6
_chemical_formula_sum              "Be2 B1 F6"
_cell_length_a       4.7335864716348235
_cell_length_b       4.734754433549815
_cell_length_c       4.73329596482332
_cell_angle_alpha    60.00052705429957
_cell_angle_beta     60.00163754275339
_cell_angle_gamma    60.00196311159084

_space_group_name_H-M_alt    "P 1"
_space_group_IT_number       1

loop_
  _space_group_symop_operation_xyz
  'x, y, z'

loop_
  _atom_site_type_symbol
  _atom_site_label
  _atom_site_symmetry_multiplicity
  _atom_site_fract_x
  _atom_site_fract_y
  _atom_site_fract_z
  _atom_site_occupancy
  Be  Be1       1.0  0.24986951220500261  0.2503854579386091  0.25012269397037734  1.0000
  Be  Be2       1.0  0.7499113738760418  0.7497923719697474  0.7498324594327386  1.0000
  B   B1        1.0  2.4634906675256858e-05  0.9999908089195928  1.6008449969412665e-05  1.0000
  F   F1        1.0  0.23145489847317288  0.23118001533025295  0.7686495589036416  1.0000
  F   F2        1.0  0.7686274518644164  0.7687715183191892  0.231382303797308  1.0000
  F   F3        1.0  0.7688469681616749  0.23122460473575476  0.2313953055156914  1.0000
  F   F4        1.0  0.23121921859557004  0.7687301574829525  0.7686435273238127  1.0000
  F   F5        1.0  0.23139793490203817  0.7686040547485098  0.231283872330989  1.0000
  F   F6        1.0  0.7686766070983314  0.2313700311532425  0.7687496105214778  1.0000
