data_image0
_chemical_formula_structural       Be2NF6
_chemical_formula_sum              "Be2 N1 F6"
_cell_length_a       4.907377317281883
_cell_length_b       4.9073769713426625
_cell_length_c       4.907377434511795
_cell_angle_alpha    59.99999464740759
_cell_angle_beta     59.99999624592498
_cell_angle_gamma    59.99999682183032

_space_group_name_H-M_alt    "P 1"
_space_group_IT_number       1

loop_
  _space_group_symop_operation_xyz
  'x, y, z'

loop_
  _atom_site_type_symbol
  _atom_site_label
  _atom_site_symmetry_multiplicity
  _atom_site_fract_x
  _atom_site_fract_y
  _atom_site_fract_z
  _atom_site_occupancy
  Be  Be1       1.0  0.2500002991152082  0.25000015893043337  0.25000057478393356  1.0000
  Be  Be2       1.0  0.7500001024111318  0.7499993462292028  0.7499989967379704  1.0000
  N   N1        1.0  9.143374452111271e-07  1.4500146088566943e-06  0.9999972976636999  1.0000
  F   F1        1.0  0.24338604730277186  0.2433894729548087  0.7566122864543661  1.0000
  F   F2        1.0  0.7566119516509205  0.7566088891640408  0.24338927387564724  1.0000
  F   F3        1.0  0.7566101397447527  0.24338804404144873  0.24339039574704724  1.0000
  F   F4        1.0  0.2433888383279744  0.756613677319425  0.7566100876354444  1.0000
  F   F5        1.0  0.243390613591716  0.756610642263044  0.24338820028910926  1.0000
  F   F6        1.0  0.7566112665500655  0.24338819653877128  0.7566128296436524  1.0000
