data_image0
_chemical_formula_structural       Be2PF6
_chemical_formula_sum              "Be2 P1 F6"
_cell_length_a       5.067532758615175
_cell_length_b       5.06753379559348
_cell_length_c       5.067535367734092
_cell_angle_alpha    59.99999013636593
_cell_angle_beta     59.99999301128038
_cell_angle_gamma    59.999998031031346

_space_group_name_H-M_alt    "P 1"
_space_group_IT_number       1

loop_
  _space_group_symop_operation_xyz
  'x, y, z'

loop_
  _atom_site_type_symbol
  _atom_site_label
  _atom_site_symmetry_multiplicity
  _atom_site_fract_x
  _atom_site_fract_y
  _atom_site_fract_z
  _atom_site_occupancy
  Be  Be1       1.0  0.24999968467622105  0.250000181817695  0.24999986865068272  1.0000
  Be  Be2       1.0  0.7500003493067369  0.7500001732587491  0.7500002554040025  1.0000
  P   P1        1.0  1.636503623775814e-08  0.999999978248385  0.9999999888798694  1.0000
  F   F1        1.0  0.22551860164343976  0.22551843404864017  0.7744814451442757  1.0000
  F   F2        1.0  0.7744813812265584  0.774481534332433  0.22551841434483105  1.0000
  F   F3        1.0  0.7744814800687063  0.2255185469387271  0.22551828573530575  1.0000
  F   F4        1.0  0.22551847851831883  0.7744814601118852  0.7744815428803657  1.0000
  F   F5        1.0  0.2255185295572346  0.7744815026308081  0.22551838126799398  1.0000
  F   F6        1.0  0.7744815383604092  0.22551834732480505  0.7744814534697626  1.0000
