data_image0
_chemical_formula_structural       Be2PBr6
_chemical_formula_sum              "Be2 P1 Br6"
_cell_length_a       6.997117093108013
_cell_length_b       6.997117429235146
_cell_length_c       6.997117301299304
_cell_angle_alpha    60.000000631609076
_cell_angle_beta     59.9999974271684
_cell_angle_gamma    59.999997754510034

_space_group_name_H-M_alt    "P 1"
_space_group_IT_number       1

loop_
  _space_group_symop_operation_xyz
  'x, y, z'

loop_
  _atom_site_type_symbol
  _atom_site_label
  _atom_site_symmetry_multiplicity
  _atom_site_fract_x
  _atom_site_fract_y
  _atom_site_fract_z
  _atom_site_occupancy
  Be  Be1       1.0  0.24999991835814486  0.24999996300758995  0.2500000019653748  1.0000
  Be  Be2       1.0  0.7500000758867365  0.7500000850626667  0.7499998489403796  1.0000
  P   P1        1.0  0.9999999828139263  7.001425091736834e-09  0.9999998907595263  1.0000
  Br  Br1       1.0  0.24869310183061863  0.24869317293726853  0.7513068809323566  1.0000
  Br  Br2       1.0  0.7513069206029976  0.7513068103698046  0.2486931283182994  1.0000
  Br  Br3       1.0  0.7513069094670347  0.24869305140390655  0.24869319586237407  1.0000
  Br  Br4       1.0  0.24869307646082828  0.7513069424053064  0.7513069535853272  1.0000
  Br  Br5       1.0  0.24869317229424504  0.7513068622199449  0.24869317946829173  1.0000
  Br  Br6       1.0  0.7513068483060836  0.2486931018332096  0.7513069503712856  1.0000
