data_image0
_chemical_formula_structural       Be2PI6
_chemical_formula_sum              "Be2 P1 I6"
_cell_length_a       7.522142749229387
_cell_length_b       7.522142370182446
_cell_length_c       7.5221425362155125
_cell_angle_alpha    60.00000111574955
_cell_angle_beta     60.000001117848
_cell_angle_gamma    60.000000096421296

_space_group_name_H-M_alt    "P 1"
_space_group_IT_number       1

loop_
  _space_group_symop_operation_xyz
  'x, y, z'

loop_
  _atom_site_type_symbol
  _atom_site_label
  _atom_site_symmetry_multiplicity
  _atom_site_fract_x
  _atom_site_fract_y
  _atom_site_fract_z
  _atom_site_occupancy
  Be  Be1       1.0  0.24999995652649387  0.2500000171122619  0.25000002125015175  1.0000
  Be  Be2       1.0  0.7499999551256668  0.749999992722081  0.7500000330024043  1.0000
  P   P1        1.0  0.9999999904490716  0.9999999641799031  3.465018834273359e-08  1.0000
  I   I1        1.0  0.258635272794193  0.25863533925219045  0.7413646931243195  1.0000
  I   I2        1.0  0.7413646830796279  0.7413647129149938  0.2586352912628169  1.0000
  I   I3        1.0  0.7413647448999319  0.2586352783963188  0.2586353036623868  1.0000
  I   I4        1.0  0.2586353033893123  0.7413647037588585  0.74136469611121  1.0000
  I   I5        1.0  0.2586353307921622  0.7413646695649729  0.2586352693586405  1.0000
  I   I6        1.0  0.7413647466633858  0.2586353125902034  0.7413646732907339  1.0000
