data_image0
_chemical_formula_structural       Bi2AuI6
_chemical_formula_sum              "Bi2 Au1 I6"
_cell_length_a       7.812070350414122
_cell_length_b       7.812070349212795
_cell_length_c       7.8120703354948065
_cell_angle_alpha    60.00000008515013
_cell_angle_beta     60.000000076425366
_cell_angle_gamma    60.00000090341162

_space_group_name_H-M_alt    "P 1"
_space_group_IT_number       1

loop_
  _space_group_symop_operation_xyz
  'x, y, z'

loop_
  _atom_site_type_symbol
  _atom_site_label
  _atom_site_symmetry_multiplicity
  _atom_site_fract_x
  _atom_site_fract_y
  _atom_site_fract_z
  _atom_site_occupancy
  Bi  Bi1       1.0  0.24999994801087827  0.2500000465922934  0.25000001074335015  1.0000
  Bi  Bi2       1.0  0.7500000275576396  0.7500000237626679  0.7499999575124016  1.0000
  Au  Au1       1.0  2.6859365124832986e-08  1.2542077442122152e-08  0.9999999636583635  1.0000
  I   I1        1.0  0.25927038031395633  0.25927038676801245  0.7407296158346315  1.0000
  I   I2        1.0  0.7407296130532702  0.740729576979293  0.2592704185867908  1.0000
  I   I3        1.0  0.7407296298521936  0.25927038821345055  0.25927040153216724  1.0000
  I   I4        1.0  0.25927037054687635  0.7407295943469706  0.7407296148464939  1.0000
  I   I5        1.0  0.2592703767948283  0.7407295754102587  0.25927042299206854  1.0000
  I   I6        1.0  0.7407296263068358  0.2592703946080855  0.7407295931860521  1.0000
