data_image0
_chemical_formula_structural       Bi2AgF6
_chemical_formula_sum              "Bi2 Ag1 F6"
_cell_length_a       5.685900619488404
_cell_length_b       5.685900308477596
_cell_length_c       5.685900708658829
_cell_angle_alpha    60.00000041383511
_cell_angle_beta     60.00000088949814
_cell_angle_gamma    59.99999903280024

_space_group_name_H-M_alt    "P 1"
_space_group_IT_number       1

loop_
  _space_group_symop_operation_xyz
  'x, y, z'

loop_
  _atom_site_type_symbol
  _atom_site_label
  _atom_site_symmetry_multiplicity
  _atom_site_fract_x
  _atom_site_fract_y
  _atom_site_fract_z
  _atom_site_occupancy
  Bi  Bi1       1.0  0.24999994163925068  0.24999981466690996  0.2500001254094999  1.0000
  Bi  Bi2       1.0  0.750000070818289  0.7500001806698943  0.7499995789235498  1.0000
  Ag  Ag1       1.0  1.1734398585565939e-08  0.9999999526119279  1.5149079503864555e-07  1.0000
  F   F1        1.0  0.2665238856016189  0.26652375429280745  0.7334761710610723  1.0000
  F   F2        1.0  0.7334761281687358  0.7334762431980104  0.26652392725423163  1.0000
  F   F3        1.0  0.733476136935225  0.2665238386890838  0.2665239244245529  1.0000
  F   F4        1.0  0.26652385051546607  0.7334762255758389  0.7334760921077609  1.0000
  F   F5        1.0  0.2665238260951434  0.7334761144616827  0.266523946665094  1.0000
  F   F6        1.0  0.733476192578029  0.2665238744131185  0.7334760374302133  1.0000
