data_image0
_chemical_formula_structural       Bi2AsSe6
_chemical_formula_sum              "Bi2 As1 Se6"
_cell_length_a       6.685798161574805
_cell_length_b       6.685798092949123
_cell_length_c       6.685798080379339
_cell_angle_alpha    60.000000858945796
_cell_angle_beta     60.00000065689298
_cell_angle_gamma    60.000002263984975

_space_group_name_H-M_alt    "P 1"
_space_group_IT_number       1

loop_
  _space_group_symop_operation_xyz
  'x, y, z'

loop_
  _atom_site_type_symbol
  _atom_site_label
  _atom_site_symmetry_multiplicity
  _atom_site_fract_x
  _atom_site_fract_y
  _atom_site_fract_z
  _atom_site_occupancy
  Bi  Bi1       1.0  0.2500001879564198  0.2499997564064092  0.2499999923849731  1.0000
  Bi  Bi2       1.0  0.750000015888833  0.7500004727514775  0.7499998707437607  1.0000
  As  As1       1.0  0.9999999788737775  0.9999999908406976  0.9999999986899771  1.0000
  Se  Se1       1.0  0.2648902361890256  0.26489008719489676  0.7351098508270802  1.0000
  Se  Se2       1.0  0.7351097635838086  0.735109914812299  0.2648900932995093  1.0000
  Se  Se3       1.0  0.7351097853514682  0.26489002945133777  0.26489031193517704  1.0000
  Se  Se4       1.0  0.2648900872809163  0.7351098772991167  0.7351097837741163  1.0000
  Se  Se5       1.0  0.26489013100173947  0.7351099083107238  0.2648901926307662  1.0000
  Se  Se6       1.0  0.7351098134712029  0.26488997462554764  0.7351098985095407  1.0000
