data_image0
_chemical_formula_structural       Bi2AuCl6
_chemical_formula_sum              "Bi2 Au1 Cl6"
_cell_length_a       7.0571065014601455
_cell_length_b       7.057106171354146
_cell_length_c       7.057106293377788
_cell_angle_alpha    60.00000070636801
_cell_angle_beta     60.000001407905835
_cell_angle_gamma    60.00000076079495

_space_group_name_H-M_alt    "P 1"
_space_group_IT_number       1

loop_
  _space_group_symop_operation_xyz
  'x, y, z'

loop_
  _atom_site_type_symbol
  _atom_site_label
  _atom_site_symmetry_multiplicity
  _atom_site_fract_x
  _atom_site_fract_y
  _atom_site_fract_z
  _atom_site_occupancy
  Bi  Bi1       1.0  0.24999990986192258  0.25000002980713343  0.25000023083173323  1.0000
  Bi  Bi2       1.0  0.7499999221128122  0.750000203962906  0.7499998828846528  1.0000
  Au  Au1       1.0  0.9999999999177759  0.9999999757033137  0.999999863403259  1.0000
  Cl  Cl1       1.0  0.2508273969896042  0.2508271925678123  0.7491726555564208  1.0000
  Cl  Cl2       1.0  0.7491727548145766  0.7491727149324665  0.2508272927557649  1.0000
  Cl  Cl3       1.0  0.7491725943499896  0.25082733181475386  0.25082741348071913  1.0000
  Cl  Cl4       1.0  0.2508272139605658  0.7491727127882415  0.7491727301326615  1.0000
  Cl  Cl5       1.0  0.2508273795487863  0.7491725727491454  0.25082732708104544  1.0000
  Cl  Cl6       1.0  0.7491728220539118  0.25082726880299044  0.7491726080507818  1.0000
