data_image0
_chemical_formula_structural       Bi2AuBr6
_chemical_formula_sum              "Bi2 Au1 Br6"
_cell_length_a       7.334511647648388
_cell_length_b       7.334511626027626
_cell_length_c       7.334511657446601
_cell_angle_alpha    60.00000026877848
_cell_angle_beta     59.999999631532965
_cell_angle_gamma    59.99999926288643

_space_group_name_H-M_alt    "P 1"
_space_group_IT_number       1

loop_
  _space_group_symop_operation_xyz
  'x, y, z'

loop_
  _atom_site_type_symbol
  _atom_site_label
  _atom_site_symmetry_multiplicity
  _atom_site_fract_x
  _atom_site_fract_y
  _atom_site_fract_z
  _atom_site_occupancy
  Bi  Bi1       1.0  0.2499999933318439  0.2500000380600928  0.25000002008982647  1.0000
  Bi  Bi2       1.0  0.7500000232203313  0.7499999939519164  0.7499999119830915  1.0000
  Au  Au1       1.0  0.9999999986957748  1.335870699542062e-08  4.032894697961451e-08  1.0000
  Br  Br1       1.0  0.2540359067726275  0.2540359300205304  0.7459640630292211  1.0000
  Br  Br2       1.0  0.745964066445676  0.7459640903026113  0.25403597836010394  1.0000
  Br  Br3       1.0  0.7459641269378776  0.25403587089408153  0.25403590295031697  1.0000
  Br  Br4       1.0  0.2540359520176595  0.7459640258610217  0.7459640600957034  1.0000
  Br  Br5       1.0  0.25403586322825583  0.7459641081308862  0.25403595709405546  1.0000
  Br  Br6       1.0  0.7459640713628076  0.2540359288906389  0.7459640693547696  1.0000
