data_image0
_chemical_formula_structural       Bi2AgBr6
_chemical_formula_sum              "Bi2 Ag1 Br6"
_cell_length_a       7.298991490821114
_cell_length_b       7.298991509618003
_cell_length_c       7.298991484413442
_cell_angle_alpha    59.999999991562746
_cell_angle_beta     60.000000032215695
_cell_angle_gamma    59.9999999718727

_space_group_name_H-M_alt    "P 1"
_space_group_IT_number       1

loop_
  _space_group_symop_operation_xyz
  'x, y, z'

loop_
  _atom_site_type_symbol
  _atom_site_label
  _atom_site_symmetry_multiplicity
  _atom_site_fract_x
  _atom_site_fract_y
  _atom_site_fract_z
  _atom_site_occupancy
  Bi  Bi1       1.0  0.24999999722872157  0.2500000070103277  0.24999999872243148  1.0000
  Bi  Bi2       1.0  0.749999996256701  0.7500000025733736  0.7500000181814064  1.0000
  Ag  Ag1       1.0  2.3825966124450495e-08  0.9999999949661065  0.9999999700531793  1.0000
  Br  Br1       1.0  0.25628440256009427  0.25628439953062465  0.7437155953784323  1.0000
  Br  Br2       1.0  0.743715587777793  0.74371558152768  0.2562844044806166  1.0000
  Br  Br3       1.0  0.7437155883783177  0.25628441625495796  0.25628441179509  1.0000
  Br  Br4       1.0  0.25628437941124554  0.7437156134643174  0.7437156078888906  1.0000
  Br  Br5       1.0  0.25628441063229956  0.743715595690369  0.2562844008964549  1.0000
  Br  Br6       1.0  0.7437156106903039  0.25628439207979364  0.7437155938148299  1.0000
