data_image0
_chemical_formula_structural       Bi2AuF6
_chemical_formula_sum              "Bi2 Au1 F6"
_cell_length_a       5.879550187120847
_cell_length_b       5.879549942187775
_cell_length_c       5.879551112857036
_cell_angle_alpha    60.00000443918951
_cell_angle_beta     60.00000444642651
_cell_angle_gamma    60.000002064692055

_space_group_name_H-M_alt    "P 1"
_space_group_IT_number       1

loop_
  _space_group_symop_operation_xyz
  'x, y, z'

loop_
  _atom_site_type_symbol
  _atom_site_label
  _atom_site_symmetry_multiplicity
  _atom_site_fract_x
  _atom_site_fract_y
  _atom_site_fract_z
  _atom_site_occupancy
  Bi  Bi1       1.0  0.2500000946916753  0.24999954940177954  0.2500005782056056  1.0000
  Bi  Bi2       1.0  0.7499994088467663  0.7500004667154059  0.7499982559437185  1.0000
  Au  Au1       1.0  9.242369313207873e-08  0.9999999937508387  1.3039537193994068e-07  1.0000
  F   F1        1.0  0.263820483498482  0.26382046169851153  0.7361796429844409  1.0000
  F   F2        1.0  0.7361797276697679  0.7361794877609718  0.2638209167534438  1.0000
  F   F3        1.0  0.7361793501003966  0.26382000016156465  0.2638209174408956  1.0000
  F   F4        1.0  0.26382081835841525  0.7361798888891841  0.7361793604972848  1.0000
  F   F5        1.0  0.26382027633758187  0.7361795742017285  0.26382073512583687  1.0000
  F   F6        1.0  0.7361797288326728  0.2638206043941996  0.7361795477164493  1.0000
