data_image0
_chemical_formula_structural       Bi2AsBr6
_chemical_formula_sum              "Bi2 As1 Br6"
_cell_length_a       7.629349120860263
_cell_length_b       7.629349105146127
_cell_length_c       7.629349097149728
_cell_angle_alpha    60.00000005147038
_cell_angle_beta     59.99999925220719
_cell_angle_gamma    59.999999566513

_space_group_name_H-M_alt    "P 1"
_space_group_IT_number       1

loop_
  _space_group_symop_operation_xyz
  'x, y, z'

loop_
  _atom_site_type_symbol
  _atom_site_label
  _atom_site_symmetry_multiplicity
  _atom_site_fract_x
  _atom_site_fract_y
  _atom_site_fract_z
  _atom_site_occupancy
  Bi  Bi1       1.0  0.2499999831581382  0.2500000273429966  0.2500000012252375  1.0000
  Bi  Bi2       1.0  0.7499999463556093  0.750000086844911  0.7500000041378824  1.0000
  As  As1       1.0  3.1188052922487825e-08  0.9999999518407852  0.9999999993104861  1.0000
  Br  Br1       1.0  0.24615121931838782  0.2461511606748439  0.7538488048936881  1.0000
  Br  Br2       1.0  0.7538488480942569  0.7538488122460335  0.24615118118185259  1.0000
  Br  Br3       1.0  0.753848804765616  0.2461511645021838  0.2461512100195277  1.0000
  Br  Br4       1.0  0.24615119944734432  0.7538487891550081  0.7538488251520652  1.0000
  Br  Br5       1.0  0.2461511908296673  0.7538488099007824  0.2461511714017839  1.0000
  Br  Br6       1.0  0.7538487872708376  0.24615119031031682  0.7538488024306986  1.0000
