data_image0
_chemical_formula_structural       Bi2AsO6
_chemical_formula_sum              "Bi2 As1 O6"
_cell_length_a       5.386947656900705
_cell_length_b       5.386947413673752
_cell_length_c       5.3869473162907955
_cell_angle_alpha    59.99999899232282
_cell_angle_beta     59.999999349608636
_cell_angle_gamma    59.99999747895313

_space_group_name_H-M_alt    "P 1"
_space_group_IT_number       1

loop_
  _space_group_symop_operation_xyz
  'x, y, z'

loop_
  _atom_site_type_symbol
  _atom_site_label
  _atom_site_symmetry_multiplicity
  _atom_site_fract_x
  _atom_site_fract_y
  _atom_site_fract_z
  _atom_site_occupancy
  Bi  Bi1       1.0  0.2500000297481882  0.24999998288930347  0.24999998209849586  1.0000
  Bi  Bi2       1.0  0.749999944328766  0.7500000168741594  0.75000004405311  1.0000
  As  As1       1.0  1.6234108059163294e-09  2.728249909818905e-08  0.9999999744090111  1.0000
  O   O1        1.0  0.24213319402502698  0.24213313640913775  0.7578668163775649  1.0000
  O   O2        1.0  0.7578668727208868  0.7578668747220321  0.24213312991062194  1.0000
  O   O3        1.0  0.7578668303491511  0.2421331952965593  0.24213316852092165  1.0000
  O   O4        1.0  0.2421331826788483  0.7578668226552355  0.7578668680441121  1.0000
  O   O5        1.0  0.24213316091659  0.7578668085108272  0.2421331992026468  1.0000
  O   O6        1.0  0.7578668208688619  0.24213316169659482  0.7578668601487978  1.0000
