data_image0
_chemical_formula_structural       Bi2AsI6
_chemical_formula_sum              "Bi2 As1 I6"
_cell_length_a       8.035276235356827
_cell_length_b       8.035276324049129
_cell_length_c       8.035276302326016
_cell_angle_alpha    59.99999973229264
_cell_angle_beta     59.999999784540606
_cell_angle_gamma    60.00000078388257

_space_group_name_H-M_alt    "P 1"
_space_group_IT_number       1

loop_
  _space_group_symop_operation_xyz
  'x, y, z'

loop_
  _atom_site_type_symbol
  _atom_site_label
  _atom_site_symmetry_multiplicity
  _atom_site_fract_x
  _atom_site_fract_y
  _atom_site_fract_z
  _atom_site_occupancy
  Bi  Bi1       1.0  0.2500000060868996  0.2500000558548365  0.2499999546338091  1.0000
  Bi  Bi2       1.0  0.7499999685621389  0.7500000105708767  0.7500000170280153  1.0000
  As  As1       1.0  0.999999997880549  1.0669470049131488e-08  1.4392674542899715e-08  1.0000
  I   I1        1.0  0.25075583311490685  0.25075582411701675  0.7492441742654538  1.0000
  I   I2        1.0  0.7492441612766463  0.7492441615255655  0.250755836628265  1.0000
  I   I3        1.0  0.7492441236252753  0.2507558615486227  0.25075585579082016  1.0000
  I   I4        1.0  0.2507558936866869  0.7492441027550194  0.7492441443560659  1.0000
  I   I5        1.0  0.2507558828608292  0.7492441170803485  0.25075585803539285  1.0000
  I   I6        1.0  0.74924413571383  0.2507558563685536  0.7492441456191006  1.0000
