data_image0
_chemical_formula_structural       Bi2AgI6
_chemical_formula_sum              "Bi2 Ag1 I6"
_cell_length_a       7.766534633939383
_cell_length_b       7.766534681433794
_cell_length_c       7.766534701048708
_cell_angle_alpha    60.00000003610065
_cell_angle_beta     60.000000626413524
_cell_angle_gamma    60.00000115141223

_space_group_name_H-M_alt    "P 1"
_space_group_IT_number       1

loop_
  _space_group_symop_operation_xyz
  'x, y, z'

loop_
  _atom_site_type_symbol
  _atom_site_label
  _atom_site_symmetry_multiplicity
  _atom_site_fract_x
  _atom_site_fract_y
  _atom_site_fract_z
  _atom_site_occupancy
  Bi  Bi1       1.0  0.25000002047782893  0.25000005529033903  0.24999995369743652  1.0000
  Bi  Bi2       1.0  0.7499999832225309  0.7500000570613616  0.7499999533150391  1.0000
  Ag  Ag1       1.0  0.9999999647376503  2.996207847325428e-08  1.4238315157124411e-08  1.0000
  I   I1        1.0  0.2587222887481262  0.25872225203797017  0.7412777211889786  1.0000
  I   I2        1.0  0.7412777396140401  0.7412777105033362  0.2587222805871789  1.0000
  I   I3        1.0  0.7412777095207237  0.25872225761792556  0.2587222919795111  1.0000
  I   I4        1.0  0.2587222969007297  0.7412776859999624  0.7412777405293162  1.0000
  I   I5        1.0  0.2587222681599538  0.7412776964706169  0.2587223019311759  1.0000
  I   I6        1.0  0.7412777247002478  0.25872225660897996  0.7412777377777248  1.0000
