data_image0
_chemical_formula_structural       Bi2AsCl6
_chemical_formula_sum              "Bi2 As1 Cl6"
_cell_length_a       7.208502130796808
_cell_length_b       7.208502232196916
_cell_length_c       7.20850172108377
_cell_angle_alpha    59.999997961084034
_cell_angle_beta     60.00000434433888
_cell_angle_gamma    59.99999672039531

_space_group_name_H-M_alt    "P 1"
_space_group_IT_number       1

loop_
  _space_group_symop_operation_xyz
  'x, y, z'

loop_
  _atom_site_type_symbol
  _atom_site_label
  _atom_site_symmetry_multiplicity
  _atom_site_fract_x
  _atom_site_fract_y
  _atom_site_fract_z
  _atom_site_occupancy
  Bi  Bi1       1.0  0.25000037012767423  0.24999933797053844  0.2500000062971199  1.0000
  Bi  Bi2       1.0  0.7500001018075168  0.7500000833280746  0.7499999920428472  1.0000
  As  As1       1.0  0.9999998201502225  2.7524257208895363e-07  2.3669001049984052e-07  1.0000
  Cl  Cl1       1.0  0.2398289218399476  0.23982891022378328  0.7601712232241816  1.0000
  Cl  Cl2       1.0  0.7601709593697527  0.7601711923851856  0.23982887132290404  1.0000
  Cl  Cl3       1.0  0.7601709162472803  0.23982893888372278  0.23982893994595944  1.0000
  Cl  Cl4       1.0  0.23982903125498922  0.7601710753757965  0.7601707633268296  1.0000
  Cl  Cl5       1.0  0.23982875585995653  0.7601712572968947  0.23982887423137336  1.0000
  Cl  Cl6       1.0  0.7601711297332936  0.23982892346738038  0.7601710888749779  1.0000
