data_image0
_chemical_formula_structural       Bi2BeI6
_chemical_formula_sum              "Bi2 Be1 I6"
_cell_length_a       7.715502256083342
_cell_length_b       7.715502311614602
_cell_length_c       7.7155023167897285
_cell_angle_alpha    59.99999939304982
_cell_angle_beta     59.99999941432165
_cell_angle_gamma    59.99999972289751

_space_group_name_H-M_alt    "P 1"
_space_group_IT_number       1

loop_
  _space_group_symop_operation_xyz
  'x, y, z'

loop_
  _atom_site_type_symbol
  _atom_site_label
  _atom_site_symmetry_multiplicity
  _atom_site_fract_x
  _atom_site_fract_y
  _atom_site_fract_z
  _atom_site_occupancy
  Bi  Bi1       1.0  0.24999998931303327  0.25000004554449845  0.24999994476905632  1.0000
  Bi  Bi2       1.0  0.7500000356673941  0.7499999334486108  0.7499999759127027  1.0000
  Be  Be1       1.0  3.8745556903744985e-08  0.999999982538799  0.9999999971343734  1.0000
  I   I1        1.0  0.24078598399181364  0.24078599249316815  0.759214023478243  1.0000
  I   I2        1.0  0.759213993626604  0.7592139849125586  0.24078601888510404  1.0000
  I   I3        1.0  0.7592139740912393  0.24078600027134192  0.24078604497978737  1.0000
  I   I4        1.0  0.2407859721582516  0.7592140263432239  0.7592140428994628  1.0000
  I   I5        1.0  0.24078601526818413  0.7592140323171864  0.24078598402257184  1.0000
  I   I6        1.0  0.759213996120925  0.24078600540905326  0.75921396852414  1.0000
