data_image0
_chemical_formula_structural       Bi2BaCl6
_chemical_formula_sum              "Bi2 Ba1 Cl6"
_cell_length_a       7.443029815592584
_cell_length_b       7.443029835207963
_cell_length_c       7.443029444682042
_cell_angle_alpha    59.999998504436306
_cell_angle_beta     59.99999839054433
_cell_angle_gamma    59.99999951941073

_space_group_name_H-M_alt    "P 1"
_space_group_IT_number       1

loop_
  _space_group_symop_operation_xyz
  'x, y, z'

loop_
  _atom_site_type_symbol
  _atom_site_label
  _atom_site_symmetry_multiplicity
  _atom_site_fract_x
  _atom_site_fract_y
  _atom_site_fract_z
  _atom_site_occupancy
  Bi  Bi1       1.0  0.24999994582159338  0.25000009887468483  0.25000009674373636  1.0000
  Bi  Bi2       1.0  0.7499998884349114  0.7499997388021373  0.7500005799326661  1.0000
  Ba  Ba1       1.0  3.9709553443249214e-08  0.9999999786085988  1.099400774106287e-08  1.0000
  Cl  Cl1       1.0  0.2751239976291856  0.2751240601649443  0.724875954294267  1.0000
  Cl  Cl2       1.0  0.724875954153406  0.7248759601615499  0.2751238669362977  1.0000
  Cl  Cl3       1.0  0.7248759423433477  0.27512414712500266  0.2751238655003705  1.0000
  Cl  Cl4       1.0  0.27512403900689997  0.7248760311687608  0.7248758243436362  1.0000
  Cl  Cl5       1.0  0.2751241556686158  0.7248759581861413  0.27512389370413404  1.0000
  Cl  Cl6       1.0  0.7248760533938704  0.2751240210030426  0.7248759108157821  1.0000
