data_image0
_chemical_formula_structural       Bi2BBr6
_chemical_formula_sum              "Bi2 B1 Br6"
_cell_length_a       7.674815718698301
_cell_length_b       7.674816253133088
_cell_length_c       7.6748158631451115
_cell_angle_alpha    60.000002767440556
_cell_angle_beta     59.99999173469169
_cell_angle_gamma    60.000000547000724

_space_group_name_H-M_alt    "P 1"
_space_group_IT_number       1

loop_
  _space_group_symop_operation_xyz
  'x, y, z'

loop_
  _atom_site_type_symbol
  _atom_site_label
  _atom_site_symmetry_multiplicity
  _atom_site_fract_x
  _atom_site_fract_y
  _atom_site_fract_z
  _atom_site_occupancy
  Bi  Bi1       1.0  0.25000007472074215  0.24999981094102766  0.2500001566319188  1.0000
  Bi  Bi2       1.0  0.7499995467157244  0.7500001381653209  0.7500003399842391  1.0000
  B   B1        1.0  0.9999995575593803  1.873465793685219e-06  4.351710002819699e-06  1.0000
  Br  Br1       1.0  0.209237440719602  0.20923740653573797  0.7907622541870336  1.0000
  Br  Br2       1.0  0.7907623454647638  0.7907620031912072  0.209237362618283  1.0000
  Br  Br3       1.0  0.7907633968809998  0.2092365766733427  0.20923644048135218  1.0000
  Br  Br4       1.0  0.20923859431980646  0.7907613138548446  0.7907609753899502  1.0000
  Br  Br5       1.0  0.20923719788391143  0.7907626495167529  0.20923689241921245  1.0000
  Br  Br6       1.0  0.790761854672357  0.20923820281056357  0.7907612141719678  1.0000
