data_image0
_chemical_formula_structural       Bi2BeBr6
_chemical_formula_sum              "Bi2 Be1 Br6"
_cell_length_a       7.091807587772427
_cell_length_b       7.091807566760551
_cell_length_c       7.0918075737167925
_cell_angle_alpha    59.99999998886485
_cell_angle_beta     60.000000115764244
_cell_angle_gamma    59.999999636288045

_space_group_name_H-M_alt    "P 1"
_space_group_IT_number       1

loop_
  _space_group_symop_operation_xyz
  'x, y, z'

loop_
  _atom_site_type_symbol
  _atom_site_label
  _atom_site_symmetry_multiplicity
  _atom_site_fract_x
  _atom_site_fract_y
  _atom_site_fract_z
  _atom_site_occupancy
  Bi  Bi1       1.0  0.2499999902781721  0.2500001191227453  0.24999992895671685  1.0000
  Bi  Bi2       1.0  0.7499999850682352  0.7499999238948788  0.7499998456116516  1.0000
  Be  Be1       1.0  0.9999999929114681  1.726985512640064e-09  8.32108416579363e-09  1.0000
  Br  Br1       1.0  0.2417729768737126  0.24177302627999928  0.7582270163607295  1.0000
  Br  Br2       1.0  0.7582270373862716  0.7582269683820312  0.24177307314575006  1.0000
  Br  Br3       1.0  0.7582269785793343  0.24177297080718615  0.24177306661322798  1.0000
  Br  Br4       1.0  0.24177304008840872  0.7582270204008731  0.7582269998551141  1.0000
  Br  Br5       1.0  0.24177297972470022  0.758226956475607  0.2417730632230316  1.0000
  Br  Br6       1.0  0.7582270258354806  0.2417730105546556  0.7582269866360464  1.0000
