data_image0
_chemical_formula_structural       Bi2BI6
_chemical_formula_sum              "Bi2 B1 I6"
_cell_length_a       7.715375682093835
_cell_length_b       7.715375621997343
_cell_length_c       7.715375355086929
_cell_angle_alpha    60.000001724236014
_cell_angle_beta     59.99999915619599
_cell_angle_gamma    59.99999979430317

_space_group_name_H-M_alt    "P 1"
_space_group_IT_number       1

loop_
  _space_group_symop_operation_xyz
  'x, y, z'

loop_
  _atom_site_type_symbol
  _atom_site_label
  _atom_site_symmetry_multiplicity
  _atom_site_fract_x
  _atom_site_fract_y
  _atom_site_fract_z
  _atom_site_occupancy
  Bi  Bi1       1.0  0.2500000480436131  0.24999990364844324  0.25000000706743447  1.0000
  Bi  Bi2       1.0  0.7500000515476181  0.7499999617557841  0.7499998993169532  1.0000
  B   B1        1.0  0.9999999026572253  1.0794374128024107e-07  3.358291547649585e-08  1.0000
  I   I1        1.0  0.22933686481632234  0.22933688574048294  0.7706631458009039  1.0000
  I   I2        1.0  0.7706631948769824  0.7706631622156593  0.22933679813000146  1.0000
  I   I3        1.0  0.7706631066368829  0.2293368466044195  0.2293368732220829  1.0000
  I   I4        1.0  0.22933686409170834  0.7706631315057761  0.7706632745410229  1.0000
  I   I5        1.0  0.22933680534649561  0.7706631693882936  0.2293368118220653  1.0000
  I   I6        1.0  0.7706631665155815  0.22933682777079473  0.7706631482823402  1.0000
