data_image0
_chemical_formula_structural       Bi2BeF6
_chemical_formula_sum              "Bi2 Be1 F6"
_cell_length_a       5.538728375270647
_cell_length_b       5.538728741851073
_cell_length_c       5.538728602668732
_cell_angle_alpha    59.99999858136574
_cell_angle_beta     60.00000077588286
_cell_angle_gamma    59.999998012240006

_space_group_name_H-M_alt    "P 1"
_space_group_IT_number       1

loop_
  _space_group_symop_operation_xyz
  'x, y, z'

loop_
  _atom_site_type_symbol
  _atom_site_label
  _atom_site_symmetry_multiplicity
  _atom_site_fract_x
  _atom_site_fract_y
  _atom_site_fract_z
  _atom_site_occupancy
  Bi  Bi1       1.0  0.24999988108857515  0.2500001000682182  0.2500000197945397  1.0000
  Bi  Bi2       1.0  0.7500000426431414  0.7499999464065196  0.7500000708978926  1.0000
  Be  Be1       1.0  4.106319647778873e-08  3.316857239641205e-08  0.9999999755223952  1.0000
  F   F1        1.0  0.22711501713652904  0.22711496416268295  0.7728850050587148  1.0000
  F   F2        1.0  0.7728849955902433  0.7728849341590933  0.227114972580663  1.0000
  F   F3        1.0  0.7728850202000388  0.22711497553052595  0.2271150490265045  1.0000
  F   F4        1.0  0.22711500191721268  0.7728850134520158  0.7728849742770799  1.0000
  F   F5        1.0  0.22711498748491668  0.7728850715753717  0.22711495053192718  1.0000
  F   F6        1.0  0.7728850531206878  0.22711496826565292  0.7728849406029399  1.0000
