data_image0
_chemical_formula_structural       Bi2BF6
_chemical_formula_sum              "Bi2 B1 F6"
_cell_length_a       5.462863016857564
_cell_length_b       5.4628634527784525
_cell_length_c       5.462862834384834
_cell_angle_alpha    60.000002602330916
_cell_angle_beta     60.00000194504599
_cell_angle_gamma    60.000004753533084

_space_group_name_H-M_alt    "P 1"
_space_group_IT_number       1

loop_
  _space_group_symop_operation_xyz
  'x, y, z'

loop_
  _atom_site_type_symbol
  _atom_site_label
  _atom_site_symmetry_multiplicity
  _atom_site_fract_x
  _atom_site_fract_y
  _atom_site_fract_z
  _atom_site_occupancy
  Bi  Bi1       1.0  0.24999971520879705  0.25000025450047425  0.250000207295287  1.0000
  Bi  Bi2       1.0  0.7499993060905353  0.7499999967556925  0.7500005644098823  1.0000
  B   B1        1.0  0.9999999994029025  0.9999999574030117  1.9183745165685297e-07  1.0000
  F   F1        1.0  0.23335989705146593  0.23335966196450433  0.7666401495958328  1.0000
  F   F2        1.0  0.7666403961846097  0.7666402104027207  0.2333596520504278  1.0000
  F   F3        1.0  0.7666404319820905  0.2333597579060654  0.23335947256485476  1.0000
  F   F4        1.0  0.23335989124906387  0.7666402781232625  0.7666402267611876  1.0000
  F   F5        1.0  0.23335990677879473  0.766640230673055  0.23335941208016878  1.0000
  F   F6        1.0  0.7666405019429907  0.2333596820492151  0.7666400736752514  1.0000
