data_image0
_chemical_formula_structural       Bi2BeCl6
_chemical_formula_sum              "Bi2 Be1 Cl6"
_cell_length_a       6.574822869500532
_cell_length_b       6.574822251798112
_cell_length_c       6.574822654559208
_cell_angle_alpha    59.99999893820963
_cell_angle_beta     59.99999475069966
_cell_angle_gamma    59.999996044593445

_space_group_name_H-M_alt    "P 1"
_space_group_IT_number       1

loop_
  _space_group_symop_operation_xyz
  'x, y, z'

loop_
  _atom_site_type_symbol
  _atom_site_label
  _atom_site_symmetry_multiplicity
  _atom_site_fract_x
  _atom_site_fract_y
  _atom_site_fract_z
  _atom_site_occupancy
  Bi  Bi1       1.0  0.2500003667508211  0.2499993674565565  0.2499997307654202  1.0000
  Bi  Bi2       1.0  0.749999596046699  0.7499995907311449  0.7500005462623988  1.0000
  Be  Be1       1.0  0.9999999973549138  1.080412570080966e-07  3.551722263035996e-08  1.0000
  Cl  Cl1       1.0  0.23854357796667108  0.2385436162524158  0.761456333205836  1.0000
  Cl  Cl2       1.0  0.7614563684334094  0.7614567241182252  0.23854330807880478  1.0000
  Cl  Cl3       1.0  0.7614566258526633  0.23854370368920516  0.23854340925775933  1.0000
  Cl  Cl4       1.0  0.23854359727650812  0.7614563386366096  0.7614566761565015  1.0000
  Cl  Cl5       1.0  0.23854341465298748  0.7614567600254072  0.23854350335243574  1.0000
  Cl  Cl6       1.0  0.7614564346177239  0.2385437927021952  0.7614564559939471  1.0000
