data_image0
_chemical_formula_structural       Bi2CuF6
_chemical_formula_sum              "Bi2 Cu1 F6"
_cell_length_a       5.513897496662096
_cell_length_b       5.513897740481231
_cell_length_c       5.513897623917899
_cell_angle_alpha    60.000000462387646
_cell_angle_beta     60.00000005950152
_cell_angle_gamma    60.000000989269864

_space_group_name_H-M_alt    "P 1"
_space_group_IT_number       1

loop_
  _space_group_symop_operation_xyz
  'x, y, z'

loop_
  _atom_site_type_symbol
  _atom_site_label
  _atom_site_symmetry_multiplicity
  _atom_site_fract_x
  _atom_site_fract_y
  _atom_site_fract_z
  _atom_site_occupancy
  Bi  Bi1       1.0  0.24999999871372058  0.25000006483414744  0.24999997804603008  1.0000
  Bi  Bi2       1.0  0.7500000165566141  0.7500000390187095  0.7500000869113906  1.0000
  Cu  Cu1       1.0  1.81288715551976e-08  0.9999999644608611  1.7773129550430786e-08  1.0000
  F   F1        1.0  0.25518420693139343  0.25518424940933615  0.7448157377909058  1.0000
  F   F2        1.0  0.7448158004704123  0.7448158277891678  0.25518414855924865  1.0000
  F   F3        1.0  0.7448157446238256  0.2551841998337975  0.255184236299211  1.0000
  F   F4        1.0  0.2551841902880245  0.7448157618625051  0.7448157839462026  1.0000
  F   F5        1.0  0.25518423196679274  0.7448157691425382  0.2551842094922357  1.0000
  F   F6        1.0  0.744815791662137  0.25518415257223304  0.7448157845718052  1.0000
