data_image0
_chemical_formula_structural       Bi2CI6
_chemical_formula_sum              "Bi2 C1 I6"
_cell_length_a       7.6610717924338685
_cell_length_b       7.661071862238975
_cell_length_c       7.661071822428259
_cell_angle_alpha    60.000000011760655
_cell_angle_beta     60.00000007315789
_cell_angle_gamma    60.00000017569139

_space_group_name_H-M_alt    "P 1"
_space_group_IT_number       1

loop_
  _space_group_symop_operation_xyz
  'x, y, z'

loop_
  _atom_site_type_symbol
  _atom_site_label
  _atom_site_symmetry_multiplicity
  _atom_site_fract_x
  _atom_site_fract_y
  _atom_site_fract_z
  _atom_site_occupancy
  Bi  Bi1       1.0  0.24999997080557795  0.24999999915642326  0.250000024077982  1.0000
  Bi  Bi2       1.0  0.7499999956644712  0.7500000054625695  0.750000010949823  1.0000
  C   C1        1.0  4.4145776772466006e-10  3.1973198840861764e-09  0.9999999981806111  1.0000
  I   I1        1.0  0.24714549361807694  0.2471454802315731  0.7528545141429573  1.0000
  I   I2        1.0  0.752854510091291  0.7528545211900997  0.2471454803684413  1.0000
  I   I3        1.0  0.7528545149708074  0.24714548571984984  0.24714547997579314  1.0000
  I   I4        1.0  0.24714549441745579  0.7528545077085234  0.7528545117769064  1.0000
  I   I5        1.0  0.24714549480682124  0.7528545170071625  0.2471454691116131  1.0000
  I   I6        1.0  0.7528545224676262  0.24714548441451023  0.7528545094801433  1.0000
