data_image0
_chemical_formula_structural       Bi2CoBr6
_chemical_formula_sum              "Bi2 Co1 Br6"
_cell_length_a       7.232693498958157
_cell_length_b       7.232693481048225
_cell_length_c       7.23269341021723
_cell_angle_alpha    60.000000290737184
_cell_angle_beta     60.00000038103009
_cell_angle_gamma    59.99999988306217

_space_group_name_H-M_alt    "P 1"
_space_group_IT_number       1

loop_
  _space_group_symop_operation_xyz
  'x, y, z'

loop_
  _atom_site_type_symbol
  _atom_site_label
  _atom_site_symmetry_multiplicity
  _atom_site_fract_x
  _atom_site_fract_y
  _atom_site_fract_z
  _atom_site_occupancy
  Bi  Bi1       1.0  0.24999998563592543  0.24999998437770712  0.2500000210902231  1.0000
  Bi  Bi2       1.0  0.7500000041082939  0.7500000174802489  0.7499999120967018  1.0000
  Co  Co1       1.0  1.6819994780437668e-08  0.9999999830665453  4.1535053870870276e-08  1.0000
  Br  Br1       1.0  0.24375237028222446  0.24375230827434696  0.7562476771760587  1.0000
  Br  Br2       1.0  0.7562476437968922  0.7562476732634633  0.24375235216885704  1.0000
  Br  Br3       1.0  0.7562476542091077  0.24375233717206707  0.24375233603849467  1.0000
  Br  Br4       1.0  0.2437523841080623  0.756247629125634  0.7562476583900114  1.0000
  Br  Br5       1.0  0.24375232772942698  0.75624765975074  0.2437523531652626  1.0000
  Br  Br6       1.0  0.756247611264276  0.24375240814768928  0.7562476456550562  1.0000
