data_image0
_chemical_formula_structural       Bi2CuCl6
_chemical_formula_sum              "Bi2 Cu1 Cl6"
_cell_length_a       6.742510144201487
_cell_length_b       6.742508794386558
_cell_length_c       6.7425091363724015
_cell_angle_alpha    59.9999973267561
_cell_angle_beta     60.00000256083291
_cell_angle_gamma    60.00000093603465

_space_group_name_H-M_alt    "P 1"
_space_group_IT_number       1

loop_
  _space_group_symop_operation_xyz
  'x, y, z'

loop_
  _atom_site_type_symbol
  _atom_site_label
  _atom_site_symmetry_multiplicity
  _atom_site_fract_x
  _atom_site_fract_y
  _atom_site_fract_z
  _atom_site_occupancy
  Bi  Bi1       1.0  0.2500000744304233  0.24999975724741477  0.25000010029255115  1.0000
  Bi  Bi2       1.0  0.750000322145054  0.7499997458364395  0.7499999002028492  1.0000
  Cu  Cu1       1.0  2.790268201484257e-08  3.6329072980300388e-09  0.9999999827490774  1.0000
  Cl  Cl1       1.0  0.24759056215691513  0.247591103184282  0.7524091170506758  1.0000
  Cl  Cl2       1.0  0.7524093011209754  0.7524092445501077  0.24759074408265486  1.0000
  Cl  Cl3       1.0  0.7524091972176407  0.24759068824048652  0.24759076039028374  1.0000
  Cl  Cl4       1.0  0.24759056917415187  0.7524094415195578  0.7524092359263609  1.0000
  Cl  Cl5       1.0  0.2475906723092246  0.7524092301439184  0.2475907942675964  1.0000
  Cl  Cl6       1.0  0.752409280719854  0.24759078154670244  0.7524093501897838  1.0000
