data_image0
_chemical_formula_structural       Bi2CuBr6
_chemical_formula_sum              "Bi2 Cu1 Br6"
_cell_length_a       7.165894560322443
_cell_length_b       7.165894550372587
_cell_length_c       7.165894562722399
_cell_angle_alpha    60.0000005919391
_cell_angle_beta     60.000000061419456
_cell_angle_gamma    59.9999999050824

_space_group_name_H-M_alt    "P 1"
_space_group_IT_number       1

loop_
  _space_group_symop_operation_xyz
  'x, y, z'

loop_
  _atom_site_type_symbol
  _atom_site_label
  _atom_site_symmetry_multiplicity
  _atom_site_fract_x
  _atom_site_fract_y
  _atom_site_fract_z
  _atom_site_occupancy
  Bi  Bi1       1.0  0.250000005401746  0.24999999268054227  0.250000038414965  1.0000
  Bi  Bi2       1.0  0.7499999843853227  0.7499999284768439  0.7500002047797151  1.0000
  Cu  Cu1       1.0  0.999999994498392  6.836521865323928e-09  0.9999999993325431  1.0000
  Br  Br1       1.0  0.24834823483545254  0.24834826349678532  0.7516517071520765  1.0000
  Br  Br2       1.0  0.7516517539406067  0.7516517670449481  0.24834815391362744  1.0000
  Br  Br3       1.0  0.7516517265843582  0.24834828690289298  0.2483482245540984  1.0000
  Br  Br4       1.0  0.24834823325100025  0.7516517966218854  0.7516517193843779  1.0000
  Br  Br5       1.0  0.24834827808442822  0.7516517383649681  0.24834820712419287  1.0000
  Br  Br6       1.0  0.7516517873231552  0.24834821697502538  0.7516517481205631  1.0000
