data_image0
_chemical_formula_structural       Bi2CoI6
_chemical_formula_sum              "Bi2 Co1 I6"
_cell_length_a       7.6882022926902
_cell_length_b       7.688202316722825
_cell_length_c       7.688202310911743
_cell_angle_alpha    59.99999911648857
_cell_angle_beta     59.999999686104054
_cell_angle_gamma    59.99999928085548

_space_group_name_H-M_alt    "P 1"
_space_group_IT_number       1

loop_
  _space_group_symop_operation_xyz
  'x, y, z'

loop_
  _atom_site_type_symbol
  _atom_site_label
  _atom_site_symmetry_multiplicity
  _atom_site_fract_x
  _atom_site_fract_y
  _atom_site_fract_z
  _atom_site_occupancy
  Bi  Bi1       1.0  0.2500000541493953  0.2499999514762989  0.24999999041396762  1.0000
  Bi  Bi2       1.0  0.7499999988750655  0.7499999261147321  0.7499999560529188  1.0000
  Co  Co1       1.0  0.9999999673821983  3.0267352301269524e-08  1.0280083815210853e-08  1.0000
  I   I1        1.0  0.2447019321225328  0.24470199086287528  0.7552980375737453  1.0000
  I   I2        1.0  0.755298060898229  0.7552980667392499  0.24470199066510795  1.0000
  I   I3        1.0  0.7552980551838754  0.2447019406864086  0.2447019447572229  1.0000
  I   I4        1.0  0.24470197224555093  0.7552980452298825  0.7552980513931427  1.0000
  I   I5        1.0  0.24470191954651227  0.7552980627783654  0.24470195673702047  1.0000
  I   I6        1.0  0.7552980404321795  0.24470199482375996  0.7552980594075958  1.0000
