data_image0
_chemical_formula_structural       Bi2CrTe6
_chemical_formula_sum              "Bi2 Cr1 Te6"
_cell_length_a       7.15352817520893
_cell_length_b       7.15352797300142
_cell_length_c       7.1535281279978005
_cell_angle_alpha    59.99999970097099
_cell_angle_beta     59.99999967610937
_cell_angle_gamma    59.99999829226794

_space_group_name_H-M_alt    "P 1"
_space_group_IT_number       1

loop_
  _space_group_symop_operation_xyz
  'x, y, z'

loop_
  _atom_site_type_symbol
  _atom_site_label
  _atom_site_symmetry_multiplicity
  _atom_site_fract_x
  _atom_site_fract_y
  _atom_site_fract_z
  _atom_site_occupancy
  Bi  Bi1       1.0  0.25000004039233853  0.24999996832710858  0.25000009689359953  1.0000
  Bi  Bi2       1.0  0.749999905378943  0.7500001891874554  0.7499996819351015  1.0000
  Cr  Cr1       1.0  0.9999999745649548  0.999999979454979  4.81524420682209e-08  1.0000
  Te  Te1       1.0  0.25824695050452817  0.25824677065101365  0.7417531562340853  1.0000
  Te  Te2       1.0  0.7417530881417286  0.7417532002462729  0.2582470496977228  1.0000
  Te  Te3       1.0  0.7417531256860574  0.2582467325110501  0.25824701800710337  1.0000
  Te  Te4       1.0  0.2582469392764888  0.741753212704958  0.741752989103751  1.0000
  Te  Te5       1.0  0.2582468424463991  0.7417530656096217  0.2582469141085055  1.0000
  Te  Te6       1.0  0.7417531385793452  0.25824687960638665  0.7417530441064957  1.0000
