data_image0
_chemical_formula_structural       Bi2CoO6
_chemical_formula_sum              "Bi2 Co1 O6"
_cell_length_a       5.339599924189569
_cell_length_b       5.339599592233472
_cell_length_c       5.339599925674198
_cell_angle_alpha    60.000001159352124
_cell_angle_beta     60.00000029834443
_cell_angle_gamma    60.000000462483115

_space_group_name_H-M_alt    "P 1"
_space_group_IT_number       1

loop_
  _space_group_symop_operation_xyz
  'x, y, z'

loop_
  _atom_site_type_symbol
  _atom_site_label
  _atom_site_symmetry_multiplicity
  _atom_site_fract_x
  _atom_site_fract_y
  _atom_site_fract_z
  _atom_site_occupancy
  Bi  Bi1       1.0  0.25000016047625984  0.24999990507934194  0.24999996961970108  1.0000
  Bi  Bi2       1.0  0.7500000564574034  0.7499998872656483  0.7500000315853845  1.0000
  Co  Co1       1.0  1.2952628462257296e-08  3.899292787556271e-08  0.9999999459352306  1.0000
  O   O1        1.0  0.23846054455139756  0.23846073150044833  0.7615393448041817  1.0000
  O   O2        1.0  0.7615393366176738  0.7615393934312844  0.23846067109943223  1.0000
  O   O3        1.0  0.7615393060696746  0.2384606447767497  0.23846060689984216  1.0000
  O   O4        1.0  0.23846064373425235  0.7615393585887928  0.761539403631845  1.0000
  O   O5        1.0  0.2384606197789015  0.7615393607161055  0.23846061110024044  1.0000
  O   O6        1.0  0.7615393504921466  0.23846066558645457  0.7615393908389746  1.0000
