data_image0
_chemical_formula_structural       Bi2CoCl6
_chemical_formula_sum              "Bi2 Co1 Cl6"
_cell_length_a       6.803981283230152
_cell_length_b       6.803980674864246
_cell_length_c       6.803980767204205
_cell_angle_alpha    60.00000263616652
_cell_angle_beta     60.00000164579092
_cell_angle_gamma    59.99999695808018

_space_group_name_H-M_alt    "P 1"
_space_group_IT_number       1

loop_
  _space_group_symop_operation_xyz
  'x, y, z'

loop_
  _atom_site_type_symbol
  _atom_site_label
  _atom_site_symmetry_multiplicity
  _atom_site_fract_x
  _atom_site_fract_y
  _atom_site_fract_z
  _atom_site_occupancy
  Bi  Bi1       1.0  0.2500002435156792  0.24999985609578726  0.2500000773203169  1.0000
  Bi  Bi2       1.0  0.7500010727901386  0.7499988266701667  0.7499999187129599  1.0000
  Co  Co1       1.0  0.9999998766267667  0.9999999729993821  1.427944067009036e-07  1.0000
  Cl  Cl1       1.0  0.24045965003284542  0.24045977716888503  0.7595402320590429  1.0000
  Cl  Cl2       1.0  0.7595401883812974  0.7595406714379894  0.24045964645476312  1.0000
  Cl  Cl3       1.0  0.7595402214968129  0.24045989448098143  0.24045949750006146  1.0000
  Cl  Cl4       1.0  0.2404592587625879  0.7595404983246071  0.7595403983968673  1.0000
  Cl  Cl5       1.0  0.24045923562399832  0.7595405252787918  0.24045989187864314  1.0000
  Cl  Cl6       1.0  0.7595402611415707  0.24045998092943058  0.7595402021451717  1.0000
