data_image0
_chemical_formula_structural       Bi2CBr6
_chemical_formula_sum              "Bi2 C1 Br6"
_cell_length_a       7.3199498580660975
_cell_length_b       7.319949786481524
_cell_length_c       7.31994972416962
_cell_angle_alpha    59.999999089132075
_cell_angle_beta     59.99999928236899
_cell_angle_gamma    59.99999961451982

_space_group_name_H-M_alt    "P 1"
_space_group_IT_number       1

loop_
  _space_group_symop_operation_xyz
  'x, y, z'

loop_
  _atom_site_type_symbol
  _atom_site_label
  _atom_site_symmetry_multiplicity
  _atom_site_fract_x
  _atom_site_fract_y
  _atom_site_fract_z
  _atom_site_occupancy
  Bi  Bi1       1.0  0.24999984156145738  0.25000010057452526  0.2500000935676744  1.0000
  Bi  Bi2       1.0  0.7500000707518745  0.7499998466239985  0.7500000343980078  1.0000
  C   C1        1.0  0.9999999547318018  0.9999999749025965  3.381667196331164e-08  1.0000
  Br  Br1       1.0  0.2467504870626112  0.24675049957211664  0.7532494618048893  1.0000
  Br  Br2       1.0  0.7532495790609025  0.7532495162259779  0.24675045522845346  1.0000
  Br  Br3       1.0  0.7532495931227907  0.2467504803226511  0.2467503938923445  1.0000
  Br  Br4       1.0  0.2467504816371748  0.7532495237633218  0.7532495520014252  1.0000
  Br  Br5       1.0  0.24675041198021563  0.7532495163664725  0.24675048196777413  1.0000
  Br  Br6       1.0  0.7532495776591933  0.24675053958746665  0.7532494955797165  1.0000
