data_image0
_chemical_formula_structural       Bi2CCl6
_chemical_formula_sum              "Bi2 C1 Cl6"
_cell_length_a       6.957735032455583
_cell_length_b       6.957736097254212
_cell_length_c       6.957735483963814
_cell_angle_alpha    60.0000053761933
_cell_angle_beta     60.00000042139082
_cell_angle_gamma    60.0000051098659

_space_group_name_H-M_alt    "P 1"
_space_group_IT_number       1

loop_
  _space_group_symop_operation_xyz
  'x, y, z'

loop_
  _atom_site_type_symbol
  _atom_site_label
  _atom_site_symmetry_multiplicity
  _atom_site_fract_x
  _atom_site_fract_y
  _atom_site_fract_z
  _atom_site_occupancy
  Bi  Bi1       1.0  0.2500002909992203  0.250000306841752  0.24999945733936105  1.0000
  Bi  Bi2       1.0  0.7499999868245261  0.749999989345956  0.7499994186701925  1.0000
  C   C1        1.0  0.9999999787273088  0.9999999841576299  9.934034551176425e-09  1.0000
  Cl  Cl1       1.0  0.25106636438667085  0.25106634901176  0.7489338434263088  1.0000
  Cl  Cl2       1.0  0.7489336739267284  0.7489335106306643  0.25106664545111873  1.0000
  Cl  Cl3       1.0  0.7489334557730392  0.2510664209216946  0.2510663123972969  1.0000
  Cl  Cl4       1.0  0.2510664116654983  0.7489336675549574  0.7489337953743858  1.0000
  Cl  Cl5       1.0  0.25106611003433915  0.748933438467088  0.2510666758665153  1.0000
  Cl  Cl6       1.0  0.7489337163891034  0.25106633492243086  0.7489338370416537  1.0000
