data_image0
_chemical_formula_structural       Bi2CdBr6
_chemical_formula_sum              "Bi2 Cd1 Br6"
_cell_length_a       7.363725764881132
_cell_length_b       7.363725838190716
_cell_length_c       7.3637257904057
_cell_angle_alpha    60.00000006986495
_cell_angle_beta     59.99999968115309
_cell_angle_gamma    60.00000010056748

_space_group_name_H-M_alt    "P 1"
_space_group_IT_number       1

loop_
  _space_group_symop_operation_xyz
  'x, y, z'

loop_
  _atom_site_type_symbol
  _atom_site_label
  _atom_site_symmetry_multiplicity
  _atom_site_fract_x
  _atom_site_fract_y
  _atom_site_fract_z
  _atom_site_occupancy
  Bi  Bi1       1.0  0.2499999463567211  0.25000009659212263  0.24999996222157925  1.0000
  Bi  Bi2       1.0  0.7499999694965075  0.7499999737657908  0.7500000337771823  1.0000
  Cd  Cd1       1.0  0.999999979044069  2.993784415627487e-08  0.9999999764969286  1.0000
  Br  Br1       1.0  0.25828859641665136  0.25828862281304216  0.7417113910068491  1.0000
  Br  Br2       1.0  0.7417113610630773  0.741711402638105  0.2582886066320456  1.0000
  Br  Br3       1.0  0.741711400521621  0.25828861778219975  0.25828859887390093  1.0000
  Br  Br4       1.0  0.2582886545766646  0.7417113594357541  0.7417113727143035  1.0000
  Br  Br5       1.0  0.2582886740906393  0.741711313286303  0.25828865122052796  1.0000
  Br  Br6       1.0  0.7417114174869041  0.2582885874238267  0.7417114055663533  1.0000
