data_image0
_chemical_formula_structural       Bi2CoTe6
_chemical_formula_sum              "Bi2 Co1 Te6"
_cell_length_a       7.088414301201282
_cell_length_b       7.08841335001511
_cell_length_c       7.088414298076728
_cell_angle_alpha    60.00000302369035
_cell_angle_beta     60.00000128661197
_cell_angle_gamma    60.00000104283684

_space_group_name_H-M_alt    "P 1"
_space_group_IT_number       1

loop_
  _space_group_symop_operation_xyz
  'x, y, z'

loop_
  _atom_site_type_symbol
  _atom_site_label
  _atom_site_symmetry_multiplicity
  _atom_site_fract_x
  _atom_site_fract_y
  _atom_site_fract_z
  _atom_site_occupancy
  Bi  Bi1       1.0  0.25000021160934033  0.2499999633906377  0.2499998628057761  1.0000
  Bi  Bi2       1.0  0.7500002292499032  0.750000315213788  0.7499999892145218  1.0000
  Co  Co1       1.0  0.9999999567257459  0.9999999343431235  0.9999999952139454  1.0000
  Te  Te1       1.0  0.2461143416865848  0.24611432238490796  0.7538857126700441  1.0000
  Te  Te2       1.0  0.7538855316607542  0.7538857039588761  0.24611427272896724  1.0000
  Te  Te3       1.0  0.753885774842499  0.24611425399285838  0.24611443335185837  1.0000
  Te  Te4       1.0  0.24611406197811247  0.7538856375815624  0.7538856884822898  1.0000
  Te  Te5       1.0  0.24611421925780733  0.7538856593509579  0.24611444893106363  1.0000
  Te  Te6       1.0  0.7538857001984363  0.24611417002221253  0.7538855921482533  1.0000
