data_image0
_chemical_formula_structural       Bi2CdI6
_chemical_formula_sum              "Bi2 Cd1 I6"
_cell_length_a       7.956149544791891
_cell_length_b       7.956149529963556
_cell_length_c       7.956149383216653
_cell_angle_alpha    60.00000063157427
_cell_angle_beta     60.000001065420406
_cell_angle_gamma    59.999999079712246

_space_group_name_H-M_alt    "P 1"
_space_group_IT_number       1

loop_
  _space_group_symop_operation_xyz
  'x, y, z'

loop_
  _atom_site_type_symbol
  _atom_site_label
  _atom_site_symmetry_multiplicity
  _atom_site_fract_x
  _atom_site_fract_y
  _atom_site_fract_z
  _atom_site_occupancy
  Bi  Bi1       1.0  0.2500000572680609  0.24999997810626678  0.25000001808780753  1.0000
  Bi  Bi2       1.0  0.7499999564487766  0.7500000143659838  0.7499999912010334  1.0000
  Cd  Cd1       1.0  0.999999980488816  0.9999999322677712  4.36217063635065e-08  1.0000
  I   I1        1.0  0.2611206019896229  0.2611205702643233  0.738879425599834  1.0000
  I   I2        1.0  0.738879465044093  0.7388794930188936  0.26112051534063757  1.0000
  I   I3        1.0  0.738879452677261  0.26112047378886166  0.26112053188971995  1.0000
  I   I4        1.0  0.2611205367191042  0.7388795002109634  0.7388794987955698  1.0000
  I   I5        1.0  0.2611204800035612  0.7388794730968611  0.26112051471492825  1.0000
  I   I6        1.0  0.7388794758939451  0.26112055785961164  0.7388794589934478  1.0000
