data_image0
_chemical_formula_structural       Bi2CuI6
_chemical_formula_sum              "Bi2 Cu1 I6"
_cell_length_a       7.647271755516025
_cell_length_b       7.647271527755947
_cell_length_c       7.6472715462478265
_cell_angle_alpha    60.00000023558284
_cell_angle_beta     60.00000059253144
_cell_angle_gamma    59.99999986162587

_space_group_name_H-M_alt    "P 1"
_space_group_IT_number       1

loop_
  _space_group_symop_operation_xyz
  'x, y, z'

loop_
  _atom_site_type_symbol
  _atom_site_label
  _atom_site_symmetry_multiplicity
  _atom_site_fract_x
  _atom_site_fract_y
  _atom_site_fract_z
  _atom_site_occupancy
  Bi  Bi1       1.0  0.2500000516692926  0.24999987913619173  0.25000004204012316  1.0000
  Bi  Bi2       1.0  0.7499999684829018  0.750000101856596  0.7499998903923095  1.0000
  Cu  Cu1       1.0  7.199094381676617e-09  0.9999999919922755  0.9999999964813472  1.0000
  I   I1        1.0  0.2516094437553358  0.25160946617563185  0.7483905533765726  1.0000
  I   I2        1.0  0.7483905292978814  0.7483905564573238  0.251609500781955  1.0000
  I   I3        1.0  0.7483905454542148  0.25160942092569244  0.2516094694499285  1.0000
  I   I4        1.0  0.2516094342799639  0.7483905680748201  0.7483905354168549  1.0000
  I   I5        1.0  0.2516094690436486  0.7483905817260791  0.25160943222912774  1.0000
  I   I6        1.0  0.7483905539295441  0.2516094361022418  0.7483905810645461  1.0000
