data_image0
_chemical_formula_structural       Bi2CaBr6
_chemical_formula_sum              "Bi2 Ca1 Br6"
_cell_length_a       7.503062749206651
_cell_length_b       7.503062781734243
_cell_length_c       7.503062681228645
_cell_angle_alpha    60.00000071530783
_cell_angle_beta     60.00000085145689
_cell_angle_gamma    60.000001111094775

_space_group_name_H-M_alt    "P 1"
_space_group_IT_number       1

loop_
  _space_group_symop_operation_xyz
  'x, y, z'

loop_
  _atom_site_type_symbol
  _atom_site_label
  _atom_site_symmetry_multiplicity
  _atom_site_fract_x
  _atom_site_fract_y
  _atom_site_fract_z
  _atom_site_occupancy
  Bi  Bi1       1.0  0.25000000739333444  0.24999995441957543  0.24999998991426922  1.0000
  Bi  Bi2       1.0  0.7499999466902795  0.7500000020064826  0.7499999474433147  1.0000
  Ca  Ca1       1.0  3.7170092737259453e-08  0.9999999069573867  5.2788458683653156e-09  1.0000
  Br  Br1       1.0  0.2611922980752056  0.2611922288821137  0.7388077166594061  1.0000
  Br  Br2       1.0  0.7388077650566957  0.7388077928370073  0.26119224015062975  1.0000
  Br  Br3       1.0  0.738807674687189  0.26119230665297255  0.2611923343567371  1.0000
  Br  Br4       1.0  0.2611922468112164  0.7388077983148017  0.7388077782606821  1.0000
  Br  Br5       1.0  0.26119225829121456  0.7388077374407531  0.2611922661762417  1.0000
  Br  Br6       1.0  0.7388077702684966  0.2611922679551022  0.7388077187470999  1.0000
