data_image0
_chemical_formula_structural       Bi2CaCl6
_chemical_formula_sum              "Bi2 Ca1 Cl6"
_cell_length_a       7.103578463889147
_cell_length_b       7.103577945597973
_cell_length_c       7.103578205285642
_cell_angle_alpha    59.999996711984615
_cell_angle_beta     60.00000180699747
_cell_angle_gamma    59.99999820869017

_space_group_name_H-M_alt    "P 1"
_space_group_IT_number       1

loop_
  _space_group_symop_operation_xyz
  'x, y, z'

loop_
  _atom_site_type_symbol
  _atom_site_label
  _atom_site_symmetry_multiplicity
  _atom_site_fract_x
  _atom_site_fract_y
  _atom_site_fract_z
  _atom_site_occupancy
  Bi  Bi1       1.0  0.2500002190239577  0.24999957891806843  0.2500000302967156  1.0000
  Bi  Bi2       1.0  0.7499999152171849  0.7500003039829187  0.749999793637888  1.0000
  Ca  Ca1       1.0  0.9999999630891558  3.448247115559131e-09  3.925515813517631e-08  1.0000
  Cl  Cl1       1.0  0.2600439088334681  0.26004385048548045  0.7399561152880092  1.0000
  Cl  Cl2       1.0  0.739956189758863  0.739956168621298  0.2600438498209112  1.0000
  Cl  Cl3       1.0  0.7399560918992169  0.26004377288171654  0.2600440340300777  1.0000
  Cl  Cl4       1.0  0.26004387159470926  0.7399562272596939  0.7399561080603568  1.0000
  Cl  Cl5       1.0  0.2600437942541294  0.739956260351251  0.2600438533743783  1.0000
  Cl  Cl6       1.0  0.7399560405757903  0.26004383806523046  0.7399561659518804  1.0000
