data_image0
_chemical_formula_structural       Bi2CrI6
_chemical_formula_sum              "Bi2 Cr1 I6"
_cell_length_a       7.913574659530271
_cell_length_b       7.913574674892079
_cell_length_c       7.91357480044295
_cell_angle_alpha    59.99999888750708
_cell_angle_beta     59.99999942960212
_cell_angle_gamma    59.99999906103467

_space_group_name_H-M_alt    "P 1"
_space_group_IT_number       1

loop_
  _space_group_symop_operation_xyz
  'x, y, z'

loop_
  _atom_site_type_symbol
  _atom_site_label
  _atom_site_symmetry_multiplicity
  _atom_site_fract_x
  _atom_site_fract_y
  _atom_site_fract_z
  _atom_site_occupancy
  Bi  Bi1       1.0  0.24999995113760623  0.25000003202459337  0.24999999973387535  1.0000
  Bi  Bi2       1.0  0.75000003868052  0.7500000217865486  0.7499999854118884  1.0000
  Cr  Cr1       1.0  0.9999999830187954  1.253597015886425e-07  0.9999999331742367  1.0000
  I   I1        1.0  0.240421755468872  0.24042178915411236  0.7595782531352759  1.0000
  I   I2        1.0  0.7595781751315563  0.7595781052490145  0.24042185775081323  1.0000
  I   I3        1.0  0.7595781958442488  0.24042184009230178  0.24042185332919072  1.0000
  I   I4        1.0  0.24042182181640254  0.7595781564557669  0.7595781225174704  1.0000
  I   I5        1.0  0.24042185765191065  0.7595781274502912  0.24042188521305696  1.0000
  I   I6        1.0  0.7595782186702087  0.24042180254879986  0.7595781211140389  1.0000
