data_image0
_chemical_formula_structural       Bi2CrF6
_chemical_formula_sum              "Bi2 Cr1 F6"
_cell_length_a       6.003779166999846
_cell_length_b       6.003778656255706
_cell_length_c       6.003778763152771
_cell_angle_alpha    60.00000020758933
_cell_angle_beta     60.0000034051932
_cell_angle_gamma    59.99999989656787

_space_group_name_H-M_alt    "P 1"
_space_group_IT_number       1

loop_
  _space_group_symop_operation_xyz
  'x, y, z'

loop_
  _atom_site_type_symbol
  _atom_site_label
  _atom_site_symmetry_multiplicity
  _atom_site_fract_x
  _atom_site_fract_y
  _atom_site_fract_z
  _atom_site_occupancy
  Bi  Bi1       1.0  0.2500000411029474  0.2500000155228789  0.25000006177125855  1.0000
  Bi  Bi2       1.0  0.7500001856507508  0.7500000384088078  0.7499996135657578  1.0000
  Cr  Cr1       1.0  2.176642324326867e-09  0.9999999530809947  3.5696122611499855e-08  1.0000
  F   F1        1.0  0.2317165314800885  0.231716656366116  0.7682833773665224  1.0000
  F   F2        1.0  0.7682834614489739  0.7682833547264784  0.23171668781062402  1.0000
  F   F3        1.0  0.7682832734222445  0.23171657942752127  0.23171674282909507  1.0000
  F   F4        1.0  0.23171660018624315  0.7682833684264129  0.7682834519368739  1.0000
  F   F5        1.0  0.23171653896465674  0.768283359853921  0.2317166833116041  1.0000
  F   F6        1.0  0.7682833779261302  0.23171667163824033  0.7682833830350132  1.0000
