data_image0
_chemical_formula_structural       Bi2CaI6
_chemical_formula_sum              "Bi2 Ca1 I6"
_cell_length_a       8.138533423427583
_cell_length_b       8.13853328026788
_cell_length_c       8.138533241100381
_cell_angle_alpha    60.00000088112023
_cell_angle_beta     60.00000223588937
_cell_angle_gamma    59.99999932332469

_space_group_name_H-M_alt    "P 1"
_space_group_IT_number       1

loop_
  _space_group_symop_operation_xyz
  'x, y, z'

loop_
  _atom_site_type_symbol
  _atom_site_label
  _atom_site_symmetry_multiplicity
  _atom_site_fract_x
  _atom_site_fract_y
  _atom_site_fract_z
  _atom_site_occupancy
  Bi  Bi1       1.0  0.24999997185706754  0.25000005354822064  0.25000002705093577  1.0000
  Bi  Bi2       1.0  0.749999961907499  0.749999987584411  0.7499999491478855  1.0000
  Ca  Ca1       1.0  0.9999999780146114  6.169974135666608e-08  0.9999999285364731  1.0000
  I   I1        1.0  0.2654192160841607  0.2654191479914297  0.7345807964703662  1.0000
  I   I2        1.0  0.7345807319423082  0.7345807652271042  0.2654192734162314  1.0000
  I   I3        1.0  0.7345808135038537  0.26541919218571125  0.26541921150018993  1.0000
  I   I4        1.0  0.265419252067134  0.7345808068105103  0.734580787443372  1.0000
  I   I5        1.0  0.2654192249606021  0.7345807860576778  0.26541917660608133  1.0000
  I   I6        1.0  0.7345808466298733  0.26541919488008264  0.7345808455590841  1.0000
