data_image0
_chemical_formula_structural       Bi2CrBr6
_chemical_formula_sum              "Bi2 Cr1 Br6"
_cell_length_a       7.361299734005506
_cell_length_b       7.3612998357985635
_cell_length_c       7.36129984697511
_cell_angle_alpha    60.00000035653089
_cell_angle_beta     59.999999614901974
_cell_angle_gamma    60.00000096362247

_space_group_name_H-M_alt    "P 1"
_space_group_IT_number       1

loop_
  _space_group_symop_operation_xyz
  'x, y, z'

loop_
  _atom_site_type_symbol
  _atom_site_label
  _atom_site_symmetry_multiplicity
  _atom_site_fract_x
  _atom_site_fract_y
  _atom_site_fract_z
  _atom_site_occupancy
  Bi  Bi1       1.0  0.25000006045860573  0.2499999789264723  0.2500000256628004  1.0000
  Bi  Bi2       1.0  0.7499999974977382  0.750000064889065  0.7500000885711482  1.0000
  Cr  Cr1       1.0  2.6285754929382432e-08  1.9965140157622666e-08  0.9999999211778674  1.0000
  Br  Br1       1.0  0.23789442304866418  0.23789445090510847  0.7621055290658258  1.0000
  Br  Br2       1.0  0.7621055271493777  0.7621055679540019  0.23789439613580868  1.0000
  Br  Br3       1.0  0.7621055196607598  0.2378944817911531  0.23789444230662524  1.0000
  Br  Br4       1.0  0.23789439499752357  0.7621055636881442  0.7621055688621393  1.0000
  Br  Br5       1.0  0.23789448794101387  0.7621054899719815  0.23789447965419958  1.0000
  Br  Br6       1.0  0.762105563379407  0.23789438081234002  0.7621055573232624  1.0000
