data_image0
_chemical_formula_structural       Bi2CdF6
_chemical_formula_sum              "Bi2 Cd1 F6"
_cell_length_a       5.962355110085432
_cell_length_b       5.962355325845317
_cell_length_c       5.962354902191876
_cell_angle_alpha    60.00000209468452
_cell_angle_beta     60.000000642413646
_cell_angle_gamma    60.00000177951033

_space_group_name_H-M_alt    "P 1"
_space_group_IT_number       1

loop_
  _space_group_symop_operation_xyz
  'x, y, z'

loop_
  _atom_site_type_symbol
  _atom_site_label
  _atom_site_symmetry_multiplicity
  _atom_site_fract_x
  _atom_site_fract_y
  _atom_site_fract_z
  _atom_site_occupancy
  Bi  Bi1       1.0  0.249999807735822  0.2500002177394715  0.25000014831719414  1.0000
  Bi  Bi2       1.0  0.7500000040993259  0.7499998459456263  0.7500000080238367  1.0000
  Cd  Cd1       1.0  2.1917620288288355e-09  0.9999999527550276  2.4203794917658392e-08  1.0000
  F   F1        1.0  0.2576569443804007  0.2576569490557424  0.7423429440810518  1.0000
  F   F2        1.0  0.7423431192027709  0.7423429461907585  0.2576570515247989  1.0000
  F   F3        1.0  0.7423430567988195  0.2576570151686335  0.2576569425159029  1.0000
  F   F4        1.0  0.2576569975675493  0.7423430587871108  0.7423429700209172  1.0000
  F   F5        1.0  0.2576570549185106  0.7423428826015203  0.2576569855166216  1.0000
  F   F6        1.0  0.7423430524624753  0.2576571194597008  0.742342914656686  1.0000
