data_image0
_chemical_formula_structural       Bi2CrO6
_chemical_formula_sum              "Bi2 Cr1 O6"
_cell_length_a       5.392708880900624
_cell_length_b       5.392708627059621
_cell_length_c       5.392708400410083
_cell_angle_alpha    60.00000086512273
_cell_angle_beta     60.00000031455065
_cell_angle_gamma    59.99999905998678

_space_group_name_H-M_alt    "P 1"
_space_group_IT_number       1

loop_
  _space_group_symop_operation_xyz
  'x, y, z'

loop_
  _atom_site_type_symbol
  _atom_site_label
  _atom_site_symmetry_multiplicity
  _atom_site_fract_x
  _atom_site_fract_y
  _atom_site_fract_z
  _atom_site_occupancy
  Bi  Bi1       1.0  0.24999971382844166  0.24999969806738281  0.2500003937456395  1.0000
  Bi  Bi2       1.0  0.7500000023279507  0.7500000639672367  0.7500001379824914  1.0000
  Cr  Cr1       1.0  0.9999999645936983  2.2711125959070492e-08  0.9999998431642797  1.0000
  O   O1        1.0  0.2401143245178724  0.2401142190859806  0.7598857112651226  1.0000
  O   O2        1.0  0.7598858302185391  0.759885749619884  0.24011409915087364  1.0000
  O   O3        1.0  0.7598857223097261  0.24011437775872155  0.24011413507896967  1.0000
  O   O4        1.0  0.24011413003126328  0.7598859906629694  0.759885719394618  1.0000
  O   O5        1.0  0.24011442116936238  0.7598856660883263  0.24011418314205332  1.0000
  O   O6        1.0  0.7598859710947241  0.2401141231996387  0.7598856964999077  1.0000
