data_image0
_chemical_formula_structural       Bi2CrCl6
_chemical_formula_sum              "Bi2 Cr1 Cl6"
_cell_length_a       7.0316422789555215
_cell_length_b       7.031642296320108
_cell_length_c       7.031642151136779
_cell_angle_alpha    59.99999721059383
_cell_angle_beta     59.99999746490995
_cell_angle_gamma    59.99999861522427

_space_group_name_H-M_alt    "P 1"
_space_group_IT_number       1

loop_
  _space_group_symop_operation_xyz
  'x, y, z'

loop_
  _atom_site_type_symbol
  _atom_site_label
  _atom_site_symmetry_multiplicity
  _atom_site_fract_x
  _atom_site_fract_y
  _atom_site_fract_z
  _atom_site_occupancy
  Bi  Bi1       1.0  0.25000012081005296  0.24999991854073852  0.24999980776617697  1.0000
  Bi  Bi2       1.0  0.7499998037463839  0.7500000325623997  0.7499999154396297  1.0000
  Cr  Cr1       1.0  5.815541864764077e-08  0.9999999930329472  1.2515296390033706e-07  1.0000
  Cl  Cl1       1.0  0.2341510822979917  0.23415103530664902  0.7658489023203743  1.0000
  Cl  Cl2       1.0  0.7658488228827365  0.7658490133351658  0.23415110605252903  1.0000
  Cl  Cl3       1.0  0.7658491441044436  0.2341510362723133  0.23415104523465255  1.0000
  Cl  Cl4       1.0  0.23415114662000167  0.765848801616268  0.7658490193794386  1.0000
  Cl  Cl5       1.0  0.23415094189801278  0.7658489538437683  0.23415117340268568  1.0000
  Cl  Cl6       1.0  0.7658488782039538  0.23415122194668703  0.7658489063745657  1.0000
