data_image0
_chemical_formula_structural       Bi2CoS6
_chemical_formula_sum              "Bi2 Co1 S6"
_cell_length_a       6.270377643354187
_cell_length_b       6.270377455620202
_cell_length_c       6.270378028633658
_cell_angle_alpha    59.99999803140986
_cell_angle_beta     59.99999875789067
_cell_angle_gamma    59.99999724860331

_space_group_name_H-M_alt    "P 1"
_space_group_IT_number       1

loop_
  _space_group_symop_operation_xyz
  'x, y, z'

loop_
  _atom_site_type_symbol
  _atom_site_label
  _atom_site_symmetry_multiplicity
  _atom_site_fract_x
  _atom_site_fract_y
  _atom_site_fract_z
  _atom_site_occupancy
  Bi  Bi1       1.0  0.24999986192621848  0.24999991124386642  0.2500004096553153  1.0000
  Bi  Bi2       1.0  0.7500003959819411  0.7500002200842493  0.7499994643278619  1.0000
  Co  Co1       1.0  0.999999997823362  1.7579011175639913e-08  0.9999998790680008  1.0000
  S   S1        1.0  0.24941137104472197  0.24941152861766733  0.7505884741240697  1.0000
  S   S2        1.0  0.7505885175388483  0.7505884952831554  0.24941154414183506  1.0000
  S   S3        1.0  0.7505884874238071  0.24941129960660036  0.24941163145494552  1.0000
  S   S4        1.0  0.2494113897405022  0.7505886149137032  0.750588534924858  1.0000
  S   S5        1.0  0.24941137247918532  0.7505884834607585  0.24941161075821924  1.0000
  S   S6        1.0  0.7505885995695074  0.2494114447321087  0.7505884630679072  1.0000
