data_image0
_chemical_formula_structural       Bi2FeI6
_chemical_formula_sum              "Bi2 Fe1 I6"
_cell_length_a       7.848310996651672
_cell_length_b       7.848311394353325
_cell_length_c       7.84831094989382
_cell_angle_alpha    60.00000441311155
_cell_angle_beta     60.00000526846864
_cell_angle_gamma    60.00000701577639

_space_group_name_H-M_alt    "P 1"
_space_group_IT_number       1

loop_
  _space_group_symop_operation_xyz
  'x, y, z'

loop_
  _atom_site_type_symbol
  _atom_site_label
  _atom_site_symmetry_multiplicity
  _atom_site_fract_x
  _atom_site_fract_y
  _atom_site_fract_z
  _atom_site_occupancy
  Bi  Bi1       1.0  0.24999994434799627  0.24999984609325548  0.25000011725521726  1.0000
  Bi  Bi2       1.0  0.7500001023529529  0.7500000236015395  0.7500001197044863  1.0000
  Fe  Fe1       1.0  1.2644717946649262e-08  1.3420473087038028e-07  0.9999997978851686  1.0000
  I   I1        1.0  0.21988724417249086  0.2198873089457253  0.7801126609272102  1.0000
  I   I2        1.0  0.7801126464536815  0.7801126184883063  0.2198873053862225  1.0000
  I   I3        1.0  0.7801128003344749  0.21988733993675283  0.21988712901525653  1.0000
  I   I4        1.0  0.21988724389554107  0.7801127622755406  0.7801128132646784  1.0000
  I   I5        1.0  0.21988723372530242  0.7801126804162553  0.219887260667104  1.0000
  I   I6        1.0  0.7801127777823473  0.21988728603078542  0.7801127735015936  1.0000
