data_image0
_chemical_formula_structural       Bi2FeO6
_chemical_formula_sum              "Bi2 Fe1 O6"
_cell_length_a       5.381413176486015
_cell_length_b       5.381413169438989
_cell_length_c       5.3814133348868305
_cell_angle_alpha    59.99999912287844
_cell_angle_beta     59.99999975786713
_cell_angle_gamma    59.99999995378557

_space_group_name_H-M_alt    "P 1"
_space_group_IT_number       1

loop_
  _space_group_symop_operation_xyz
  'x, y, z'

loop_
  _atom_site_type_symbol
  _atom_site_label
  _atom_site_symmetry_multiplicity
  _atom_site_fract_x
  _atom_site_fract_y
  _atom_site_fract_z
  _atom_site_occupancy
  Bi  Bi1       1.0  0.2500000099523347  0.25000012030263985  0.25000010609465184  1.0000
  Bi  Bi2       1.0  0.7499999492345945  0.7500000878023592  0.7500002312767388  1.0000
  Fe  Fe1       1.0  0.9999999851101206  0.9999999931723609  3.129948604440612e-08  1.0000
  O   O1        1.0  0.2387672697070012  0.23876721514210644  0.761232680193465  1.0000
  O   O2        1.0  0.7612327788676955  0.7612327312367322  0.23876709481860678  1.0000
  O   O3        1.0  0.7612326839458025  0.23876724772750305  0.23876721605474582  1.0000
  O   O4        1.0  0.23876725027727302  0.7612326940995755  0.7612327317621377  1.0000
  O   O5        1.0  0.2387673676824723  0.7612326264389331  0.2387672252341699  1.0000
  O   O6        1.0  0.7612327357066607  0.23876725849115465  0.7612327054713869  1.0000
