data_image0
_chemical_formula_structural       Bi2FeF6
_chemical_formula_sum              "Bi2 Fe1 F6"
_cell_length_a       5.531708292594727
_cell_length_b       5.531708412007062
_cell_length_c       5.531708349135807
_cell_angle_alpha    59.999999223498904
_cell_angle_beta     60.000000631073725
_cell_angle_gamma    59.99999984907246

_space_group_name_H-M_alt    "P 1"
_space_group_IT_number       1

loop_
  _space_group_symop_operation_xyz
  'x, y, z'

loop_
  _atom_site_type_symbol
  _atom_site_label
  _atom_site_symmetry_multiplicity
  _atom_site_fract_x
  _atom_site_fract_y
  _atom_site_fract_z
  _atom_site_occupancy
  Bi  Bi1       1.0  0.24999998966562625  0.24999998379826907  0.2500000392123933  1.0000
  Bi  Bi2       1.0  0.7500000134621128  0.7500001373745496  0.7499999337198177  1.0000
  Fe  Fe1       1.0  1.9503080400910145e-08  3.5424713020397095e-08  0.9999999472274659  1.0000
  F   F1        1.0  0.253290341083136  0.25329033122517775  0.746709674497781  1.0000
  F   F2        1.0  0.7467096205097015  0.7467096327504793  0.25329035802974714  1.0000
  F   F3        1.0  0.7467096334597161  0.2532903230236929  0.25329039338508197  1.0000
  F   F4        1.0  0.2532903012281666  0.7467096653064546  0.7467096169168003  1.0000
  F   F5        1.0  0.25329036994495846  0.7467096137806936  0.2532903610056875  1.0000
  F   F6        1.0  0.7467096932369549  0.2532902771314932  0.746709668105598  1.0000
