data_image0
_chemical_formula_structural       Bi2FeTe6
_chemical_formula_sum              "Bi2 Fe1 Te6"
_cell_length_a       7.160067266742087
_cell_length_b       7.1600669396727294
_cell_length_c       7.16006629109029
_cell_angle_alpha    59.999999934271074
_cell_angle_beta     59.99999916660106
_cell_angle_gamma    59.99999693523851

_space_group_name_H-M_alt    "P 1"
_space_group_IT_number       1

loop_
  _space_group_symop_operation_xyz
  'x, y, z'

loop_
  _atom_site_type_symbol
  _atom_site_label
  _atom_site_symmetry_multiplicity
  _atom_site_fract_x
  _atom_site_fract_y
  _atom_site_fract_z
  _atom_site_occupancy
  Bi  Bi1       1.0  0.24999987630152282  0.24999999622811458  0.25000001496144303  1.0000
  Bi  Bi2       1.0  0.7500001103484738  0.7500001409207484  0.749999911003351  1.0000
  Fe  Fe1       1.0  1.1226812022364997e-07  8.894711602000512e-08  6.69885889562937e-08  1.0000
  Te  Te1       1.0  0.23835826043349814  0.23835829410459572  0.7616417367706639  1.0000
  Te  Te2       1.0  0.7616415861273471  0.76164163436064  0.23835837475361082  1.0000
  Te  Te3       1.0  0.761641953687095  0.23835804404359467  0.23835824049340842  1.0000
  Te  Te4       1.0  0.23835822167078904  0.761641725343128  0.7616417791884182  1.0000
  Te  Te5       1.0  0.2383581870251021  0.7616417928156166  0.23835822074101295  1.0000
  Te  Te6       1.0  0.7616417011052021  0.2383582673597804  0.7616416547034898  1.0000
