data_image0
_chemical_formula_structural       Bi2FeS6
_chemical_formula_sum              "Bi2 Fe1 S6"
_cell_length_a       6.347336816249702
_cell_length_b       6.347336656438017
_cell_length_c       6.34733696604875
_cell_angle_alpha    60.000000009786056
_cell_angle_beta     59.99999688444057
_cell_angle_gamma    59.99999831237363

_space_group_name_H-M_alt    "P 1"
_space_group_IT_number       1

loop_
  _space_group_symop_operation_xyz
  'x, y, z'

loop_
  _atom_site_type_symbol
  _atom_site_label
  _atom_site_symmetry_multiplicity
  _atom_site_fract_x
  _atom_site_fract_y
  _atom_site_fract_z
  _atom_site_occupancy
  Bi  Bi1       1.0  0.24999978502618564  0.2500001606330515  0.2500000962454597  1.0000
  Bi  Bi2       1.0  0.7500001511898967  0.7500002001860996  0.7499997904912489  1.0000
  Fe  Fe1       1.0  7.760088415655272e-08  0.9999999691273366  0.9999999514284661  1.0000
  S   S1        1.0  0.24609055838738725  0.24609074013493795  0.75390934373619  1.0000
  S   S2        1.0  0.7539093825581636  0.7539092135509807  0.24609070796672658  1.0000
  S   S3        1.0  0.7539093656760862  0.24609052433387793  0.2460907777743115  1.0000
  S   S4        1.0  0.24609060015173118  0.7539093328749724  0.7539093428107454  1.0000
  S   S5        1.0  0.24609071775664462  0.7539092669516957  0.246090690474895  1.0000
  S   S6        1.0  0.7539093320659954  0.24609060569348332  0.7539093189514944  1.0000
