data_image0
_chemical_formula_structural       Bi2FeSe6
_chemical_formula_sum              "Bi2 Fe1 Se6"
_cell_length_a       6.714025953719881
_cell_length_b       6.7140260104401985
_cell_length_c       6.7140256028287535
_cell_angle_alpha    60.00000151462344
_cell_angle_beta     60.00000238080437
_cell_angle_gamma    59.99999937950375

_space_group_name_H-M_alt    "P 1"
_space_group_IT_number       1

loop_
  _space_group_symop_operation_xyz
  'x, y, z'

loop_
  _atom_site_type_symbol
  _atom_site_label
  _atom_site_symmetry_multiplicity
  _atom_site_fract_x
  _atom_site_fract_y
  _atom_site_fract_z
  _atom_site_occupancy
  Bi  Bi1       1.0  0.250000001969841  0.2500000450138542  0.2500000004273208  1.0000
  Bi  Bi2       1.0  0.7499999959750988  0.7499999945813481  0.749999920090245  1.0000
  Fe  Fe1       1.0  2.0810849448160356e-08  5.107644223432209e-08  0.9999999000113198  1.0000
  Se  Se1       1.0  0.24321353420613984  0.2432134522386795  0.7567864917530749  1.0000
  Se  Se2       1.0  0.7567864783499706  0.7567865125660175  0.24321351843093467  1.0000
  Se  Se3       1.0  0.7567865473603906  0.24321342309735805  0.24321344500313358  1.0000
  Se  Se4       1.0  0.24321341459027693  0.7567865800146711  0.7567866175019323  1.0000
  Se  Se5       1.0  0.24321343202141818  0.7567865330775894  0.2432134849396428  1.0000
  Se  Se6       1.0  0.756786573864011  0.24321342078215494  0.7567866159702508  1.0000
