data_image0
_chemical_formula_structural       Bi2GaBr6
_chemical_formula_sum              "Bi2 Ga1 Br6"
_cell_length_a       7.353127753346989
_cell_length_b       7.353127713494653
_cell_length_c       7.353127720145153
_cell_angle_alpha    59.99999905413257
_cell_angle_beta     59.99999935199829
_cell_angle_gamma    59.99999978634695

_space_group_name_H-M_alt    "P 1"
_space_group_IT_number       1

loop_
  _space_group_symop_operation_xyz
  'x, y, z'

loop_
  _atom_site_type_symbol
  _atom_site_label
  _atom_site_symmetry_multiplicity
  _atom_site_fract_x
  _atom_site_fract_y
  _atom_site_fract_z
  _atom_site_occupancy
  Bi  Bi1       1.0  0.24999995544580453  0.25000007322782364  0.2499999674565994  1.0000
  Bi  Bi2       1.0  0.7499999539942052  0.7500000697784998  0.7500000300514386  1.0000
  Ga  Ga1       1.0  2.669599922463553e-08  1.9842053870445135e-16  0.9999999784922071  1.0000
  Br  Br1       1.0  0.24697132052626128  0.24697124292635908  0.7530287177760019  1.0000
  Br  Br2       1.0  0.75302872438062  0.7530286585664016  0.24697129467634865  1.0000
  Br  Br3       1.0  0.7530287113845415  0.24697128572159646  0.24697129898253195  1.0000
  Br  Br4       1.0  0.24697129578483915  0.7530287007173139  0.7530287116249416  1.0000
  Br  Br5       1.0  0.2469713082991836  0.7530287177720298  0.24697127724665158  1.0000
  Br  Br6       1.0  0.7530287081181425  0.246971250345162  0.7530287202181571  1.0000
