data_image0
_chemical_formula_structural       Bi2GeI6
_chemical_formula_sum              "Bi2 Ge1 I6"
_cell_length_a       7.930808945697768
_cell_length_b       7.930809004450744
_cell_length_c       7.930808888161837
_cell_angle_alpha    59.999999926756324
_cell_angle_beta     60.00000036679314
_cell_angle_gamma    59.99999939132722

_space_group_name_H-M_alt    "P 1"
_space_group_IT_number       1

loop_
  _space_group_symop_operation_xyz
  'x, y, z'

loop_
  _atom_site_type_symbol
  _atom_site_label
  _atom_site_symmetry_multiplicity
  _atom_site_fract_x
  _atom_site_fract_y
  _atom_site_fract_z
  _atom_site_occupancy
  Bi  Bi1       1.0  0.25000002327745047  0.2500000232064859  0.24999996912371003  1.0000
  Bi  Bi2       1.0  0.7499999732691501  0.7499999924050861  0.7500000459570395  1.0000
  Ge  Ge1       1.0  0.9999999942644466  0.9999999953671377  7.706018699129767e-09  1.0000
  I   I1        1.0  0.25842051194775123  0.25842049255150795  0.7415795084876065  1.0000
  I   I2        1.0  0.7415795164686639  0.741579506072902  0.2584204739337084  1.0000
  I   I3        1.0  0.7415795117209668  0.25842049468986433  0.25842047342053936  1.0000
  I   I4        1.0  0.25842049297351444  0.741579500845971  0.7415795198842189  1.0000
  I   I5        1.0  0.25842049023014235  0.7415795072239353  0.2584204653100575  1.0000
  I   I6        1.0  0.7415794898011993  0.25842048367903814  0.7415795401208906  1.0000
