data_image0
_chemical_formula_structural       Bi2GeTe6
_chemical_formula_sum              "Bi2 Ge1 Te6"
_cell_length_a       7.292881018650612
_cell_length_b       7.292879964245754
_cell_length_c       7.292880723700095
_cell_angle_alpha    59.99999861257297
_cell_angle_beta     59.999995792629534
_cell_angle_gamma    59.99999991105356

_space_group_name_H-M_alt    "P 1"
_space_group_IT_number       1

loop_
  _space_group_symop_operation_xyz
  'x, y, z'

loop_
  _atom_site_type_symbol
  _atom_site_label
  _atom_site_symmetry_multiplicity
  _atom_site_fract_x
  _atom_site_fract_y
  _atom_site_fract_z
  _atom_site_occupancy
  Bi  Bi1       1.0  0.2500000491909881  0.24999985336919428  0.249999996626752  1.0000
  Bi  Bi2       1.0  0.7500000837568856  0.7499997515558395  0.749999932920174  1.0000
  Ge  Ge1       1.0  0.9999999133149263  1.1755594019892893e-07  0.9999998762397511  1.0000
  Te  Te1       1.0  0.2680028393668144  0.26800309117406607  0.731997010703394  1.0000
  Te  Te2       1.0  0.7319970549376472  0.7319970444321099  0.268003058034341  1.0000
  Te  Te3       1.0  0.7319969219803534  0.268002992869987  0.2680029811759677  1.0000
  Te  Te4       1.0  0.2680030764587405  0.7319969680816341  0.731996966504891  1.0000
  Te  Te5       1.0  0.2680030686900368  0.7319969979185028  0.2680030485084608  1.0000
  Te  Te6       1.0  0.7319969915589905  0.26800318135132833  0.7319971457868024  1.0000
