data_image0
_chemical_formula_structural       Bi2GeF6
_chemical_formula_sum              "Bi2 Ge1 F6"
_cell_length_a       6.671896070633899
_cell_length_b       6.671896262282022
_cell_length_c       6.671895259314747
_cell_angle_alpha    60.00000339904325
_cell_angle_beta     60.00000622870745
_cell_angle_gamma    59.999998725362225

_space_group_name_H-M_alt    "P 1"
_space_group_IT_number       1

loop_
  _space_group_symop_operation_xyz
  'x, y, z'

loop_
  _atom_site_type_symbol
  _atom_site_label
  _atom_site_symmetry_multiplicity
  _atom_site_fract_x
  _atom_site_fract_y
  _atom_site_fract_z
  _atom_site_occupancy
  Bi  Bi1       1.0  0.2500003418982571  0.2500009222841372  0.24999801871410887  1.0000
  Bi  Bi2       1.0  0.7499998816700456  0.7499987742541433  0.7500044033529478  1.0000
  Ge  Ge1       1.0  0.9999999549659446  6.241303492717797e-08  0.9999998189456926  1.0000
  F   F1        1.0  0.19451656016996186  0.19451687547830648  0.8054829384785879  1.0000
  F   F2        1.0  0.8054834232456289  0.8054831624960497  0.19451614752349988  1.0000
  F   F3        1.0  0.8054832609637677  0.19451695519288262  0.1945163125289635  1.0000
  F   F4        1.0  0.1945165503062605  0.8054832461567561  0.805482990691337  1.0000
  F   F5        1.0  0.194517076246574  0.8054832786709152  0.19451615674953923  1.0000
  F   F6        1.0  0.8054829926028977  0.19451672626123706  0.8054832133133809  1.0000
