data_image0
_chemical_formula_structural       Bi2GaF6
_chemical_formula_sum              "Bi2 Ga1 F6"
_cell_length_a       6.056186349743053
_cell_length_b       6.056185588627554
_cell_length_c       6.056186344609651
_cell_angle_alpha    60.000001765380524
_cell_angle_beta     60.000001810759606
_cell_angle_gamma    59.999997914387905

_space_group_name_H-M_alt    "P 1"
_space_group_IT_number       1

loop_
  _space_group_symop_operation_xyz
  'x, y, z'

loop_
  _atom_site_type_symbol
  _atom_site_label
  _atom_site_symmetry_multiplicity
  _atom_site_fract_x
  _atom_site_fract_y
  _atom_site_fract_z
  _atom_site_occupancy
  Bi  Bi1       1.0  0.2500001790754599  0.25000001178690323  0.25000033479713774  1.0000
  Bi  Bi2       1.0  0.7499999366724935  0.7499999666022847  0.7499997604963943  1.0000
  Ga  Ga1       1.0  0.9999999547790868  3.8423778274035946e-08  1.0003385143412408e-08  1.0000
  F   F1        1.0  0.22493443568045818  0.22493441240736328  0.775065485871381  1.0000
  F   F2        1.0  0.7750654844329955  0.7750656266509381  0.22493449031877571  1.0000
  F   F3        1.0  0.775065446323854  0.2249344349622374  0.22493449236612495  1.0000
  F   F4        1.0  0.22493453705590083  0.7750655858953256  0.775065444779209  1.0000
  F   F5        1.0  0.22493442787748924  0.7750654719475111  0.224934511750961  1.0000
  F   F6        1.0  0.7750655889561734  0.22493449430784224  0.775065445875747  1.0000
