data_image0
_chemical_formula_structural       Bi2GeCl6
_chemical_formula_sum              "Bi2 Ge1 Cl6"
_cell_length_a       7.216689962179577
_cell_length_b       7.21668862930804
_cell_length_c       7.21669028422346
_cell_angle_alpha    59.999990197764426
_cell_angle_beta     59.99999855898913
_cell_angle_gamma    59.99998579348169

_space_group_name_H-M_alt    "P 1"
_space_group_IT_number       1

loop_
  _space_group_symop_operation_xyz
  'x, y, z'

loop_
  _atom_site_type_symbol
  _atom_site_label
  _atom_site_symmetry_multiplicity
  _atom_site_fract_x
  _atom_site_fract_y
  _atom_site_fract_z
  _atom_site_occupancy
  Bi  Bi1       1.0  0.24999999613904222  0.25000007905633603  0.25000022958105705  1.0000
  Bi  Bi2       1.0  0.7500002479954799  0.7500002456545087  0.7500000641816716  1.0000
  Ge  Ge1       1.0  0.9999999260764664  0.9999999049623428  0.9999999860975471  1.0000
  Cl  Cl1       1.0  0.22809442579081413  0.2280945378875823  0.7719055346005527  1.0000
  Cl  Cl2       1.0  0.7719053183766023  0.7719054626769931  0.22809448253751977  1.0000
  Cl  Cl3       1.0  0.771905450593147  0.2280944432128801  0.2280944435953496  1.0000
  Cl  Cl4       1.0  0.2280945055424949  0.7719053774589625  0.7719053884524152  1.0000
  Cl  Cl5       1.0  0.22809468983671263  0.7719052656097246  0.2280945448603143  1.0000
  Cl  Cl6       1.0  0.7719054404427408  0.22809468064758703  0.7719053216178168  1.0000
