data_image0
_chemical_formula_structural       Bi2GaTe6
_chemical_formula_sum              "Bi2 Ga1 Te6"
_cell_length_a       7.278904913038564
_cell_length_b       7.27890479927706
_cell_length_c       7.278904729288768
_cell_angle_alpha    60.00000112529212
_cell_angle_beta     60.00000028216692
_cell_angle_gamma    60.00000047636836

_space_group_name_H-M_alt    "P 1"
_space_group_IT_number       1

loop_
  _space_group_symop_operation_xyz
  'x, y, z'

loop_
  _atom_site_type_symbol
  _atom_site_label
  _atom_site_symmetry_multiplicity
  _atom_site_fract_x
  _atom_site_fract_y
  _atom_site_fract_z
  _atom_site_occupancy
  Bi  Bi1       1.0  0.2500000761322637  0.25000013947147903  0.24999980274142497  1.0000
  Bi  Bi2       1.0  0.7499997135840798  0.7500002400593742  0.7500001381075886  1.0000
  Ga  Ga1       1.0  1.2339029717892797e-08  0.9999999629829107  1.0965196433261176e-08  1.0000
  Te  Te1       1.0  0.26638663387380357  0.2663864377672266  0.7336134455555336  1.0000
  Te  Te2       1.0  0.7336134600648546  0.7336134336199458  0.2663864708615167  1.0000
  Te  Te3       1.0  0.7336134621993045  0.26638645767821706  0.26638661564992633  1.0000
  Te  Te4       1.0  0.2663866187762486  0.7336134002481978  0.7336135255493473  1.0000
  Te  Te5       1.0  0.2663866500486176  0.7336134808088371  0.2663864325326743  1.0000
  Te  Te6       1.0  0.7336133749861983  0.26638645451694465  0.7336135564324794  1.0000
