data_image0
_chemical_formula_structural       Bi2GaI6
_chemical_formula_sum              "Bi2 Ga1 I6"
_cell_length_a       7.881481933447193
_cell_length_b       7.881482007817092
_cell_length_c       7.881481893322245
_cell_angle_alpha    59.99999989191303
_cell_angle_beta     59.999999805181886
_cell_angle_gamma    59.99999946588986

_space_group_name_H-M_alt    "P 1"
_space_group_IT_number       1

loop_
  _space_group_symop_operation_xyz
  'x, y, z'

loop_
  _atom_site_type_symbol
  _atom_site_label
  _atom_site_symmetry_multiplicity
  _atom_site_fract_x
  _atom_site_fract_y
  _atom_site_fract_z
  _atom_site_occupancy
  Bi  Bi1       1.0  0.2500000155932944  0.24999998559145628  0.24999999422643696  1.0000
  Bi  Bi2       1.0  0.7499999713498017  0.7499999940692295  0.7500000385420321  1.0000
  Ga  Ga1       1.0  0.9999999886195963  7.769763113004958e-09  0.9999999091831446  1.0000
  I   I1        1.0  0.2502883633028847  0.2502883669998233  0.7497116338954104  1.0000
  I   I2        1.0  0.7497116461039068  0.7497116639412952  0.25028831759310194  1.0000
  I   I3        1.0  0.7497116382718602  0.2502883711214903  0.2502883376535542  1.0000
  I   I4        1.0  0.2502882811276685  0.7497117188698239  0.7497116940221348  1.0000
  I   I5        1.0  0.2502883721846239  0.7497116313877236  0.25028834859484866  1.0000
  I   I6        1.0  0.7497117258100938  0.25028826125162057  0.7497117254479515  1.0000
