data_image0
_chemical_formula_structural       Bi2GeSe6
_chemical_formula_sum              "Bi2 Ge1 Se6"
_cell_length_a       6.713538631240841
_cell_length_b       6.713538571587163
_cell_length_c       6.713538736439726
_cell_angle_alpha    60.00000082762989
_cell_angle_beta     60.000000900073445
_cell_angle_gamma    60.0000015009532

_space_group_name_H-M_alt    "P 1"
_space_group_IT_number       1

loop_
  _space_group_symop_operation_xyz
  'x, y, z'

loop_
  _atom_site_type_symbol
  _atom_site_label
  _atom_site_symmetry_multiplicity
  _atom_site_fract_x
  _atom_site_fract_y
  _atom_site_fract_z
  _atom_site_occupancy
  Bi  Bi1       1.0  0.25000028410845887  0.24999980394370905  0.24999996648598932  1.0000
  Bi  Bi2       1.0  0.750000049945221  0.7500000594544501  0.7499997727711277  1.0000
  Ge  Ge1       1.0  0.9999999784394071  1.8242910818752507e-08  1.8043642608526162e-08  1.0000
  Se  Se1       1.0  0.25989345379452067  0.2598935396111952  0.740106514303043  1.0000
  Se  Se2       1.0  0.7401064267594466  0.7401065645933855  0.25989360984234444  1.0000
  Se  Se3       1.0  0.7401064490123139  0.25989342010854477  0.25989356798205826  1.0000
  Se  Se4       1.0  0.25989344808250475  0.7401065983543539  0.7401064775596601  1.0000
  Se  Se5       1.0  0.2598934622055762  0.7401065044348905  0.25989352002608757  1.0000
  Se  Se6       1.0  0.7401064415783101  0.2598934939608066  0.7401065679533555  1.0000
