data_image0
_chemical_formula_structural       Bi2HgCl6
_chemical_formula_sum              "Bi2 Hg1 Cl6"
_cell_length_a       7.147759795783276
_cell_length_b       7.147759592341304
_cell_length_c       7.147759726074404
_cell_angle_alpha    59.999998166466824
_cell_angle_beta     60.000000196618565
_cell_angle_gamma    59.9999995740707

_space_group_name_H-M_alt    "P 1"
_space_group_IT_number       1

loop_
  _space_group_symop_operation_xyz
  'x, y, z'

loop_
  _atom_site_type_symbol
  _atom_site_label
  _atom_site_symmetry_multiplicity
  _atom_site_fract_x
  _atom_site_fract_y
  _atom_site_fract_z
  _atom_site_occupancy
  Bi  Bi1       1.0  0.24999990030326807  0.25000002059938714  0.250000077162991  1.0000
  Bi  Bi2       1.0  0.750000071197301  0.7499999589901575  0.749999945253894  1.0000
  Hg  Hg1       1.0  3.279941283840794e-08  0.9999999742979979  0.9999999936532153  1.0000
  Cl  Cl1       1.0  0.2593030513461901  0.25930307658963214  0.7406969241608441  1.0000
  Cl  Cl2       1.0  0.7406969384452854  0.7406969886732536  0.25930307145663195  1.0000
  Cl  Cl3       1.0  0.7406969397149028  0.2593030471617896  0.2593030631748795  1.0000
  Cl  Cl4       1.0  0.2593030042890164  0.7406969906856271  0.7406969368661952  1.0000
  Cl  Cl5       1.0  0.25930302099653957  0.7406968600075032  0.2593031135496811  1.0000
  Cl  Cl6       1.0  0.740697039469794  0.25930308531270585  0.740696874523791  1.0000
