data_image0
_chemical_formula_structural       Bi2HfS6
_chemical_formula_sum              "Bi2 Hf1 S6"
_cell_length_a       6.424679712419099
_cell_length_b       6.424680134566938
_cell_length_c       6.424679858398886
_cell_angle_alpha    59.999997935281854
_cell_angle_beta     59.9999979513383
_cell_angle_gamma    60.00000008701358

_space_group_name_H-M_alt    "P 1"
_space_group_IT_number       1

loop_
  _space_group_symop_operation_xyz
  'x, y, z'

loop_
  _atom_site_type_symbol
  _atom_site_label
  _atom_site_symmetry_multiplicity
  _atom_site_fract_x
  _atom_site_fract_y
  _atom_site_fract_z
  _atom_site_occupancy
  Bi  Bi1       1.0  0.24999986425228876  0.25000033523930215  0.24999994114853297  1.0000
  Bi  Bi2       1.0  0.749999886245096  0.7499997208632073  0.7500000623067292  1.0000
  Hf  Hf1       1.0  2.9064988925324082e-08  1.525049837340068e-08  5.722364294549754e-08  1.0000
  S   S1        1.0  0.26803928762555673  0.26803924157426645  0.7319607181764431  1.0000
  S   S2        1.0  0.7319607542164734  0.7319606791800428  0.26803935203489143  1.0000
  S   S3        1.0  0.7319606898674642  0.26803931829380345  0.268039256595601  1.0000
  S   S4        1.0  0.26803938545020867  0.7319606691814496  0.7319607121530113  1.0000
  S   S5        1.0  0.268039332097299  0.7319605670531406  0.268039322101952  1.0000
  S   S6        1.0  0.7319607547298641  0.26803944520417783  0.7319605942579304  1.0000
