data_image0
_chemical_formula_structural       Bi2HgF6
_chemical_formula_sum              "Bi2 Hg1 F6"
_cell_length_a       5.995593968355038
_cell_length_b       5.995593840388693
_cell_length_c       5.995593754979079
_cell_angle_alpha    59.99999967101115
_cell_angle_beta     59.99999733005948
_cell_angle_gamma    60.00000201766587

_space_group_name_H-M_alt    "P 1"
_space_group_IT_number       1

loop_
  _space_group_symop_operation_xyz
  'x, y, z'

loop_
  _atom_site_type_symbol
  _atom_site_label
  _atom_site_symmetry_multiplicity
  _atom_site_fract_x
  _atom_site_fract_y
  _atom_site_fract_z
  _atom_site_occupancy
  Bi  Bi1       1.0  0.25000014774552703  0.25000063668782196  0.24999965446171818  1.0000
  Bi  Bi2       1.0  0.7499998985472796  0.7499999388178601  0.7500005265767847  1.0000
  Hg  Hg1       1.0  0.9999999634276543  0.9999999652733925  3.23136947998034e-08  1.0000
  F   F1        1.0  0.2628852917328497  0.2628853199770107  0.7371146790776324  1.0000
  F   F2        1.0  0.7371148000746784  0.737114518098972  0.262885150739706  1.0000
  F   F3        1.0  0.7371145028500246  0.26288544296753386  0.2628852539585493  1.0000
  F   F4        1.0  0.2628853771835664  0.7371144584334302  0.7371147768430286  1.0000
  F   F5        1.0  0.2628854725741795  0.7371144354138266  0.26288529880469785  1.0000
  F   F6        1.0  0.7371145737724685  0.26288526171298826  0.7371146492360395  1.0000
