data_image0
_chemical_formula_structural       Bi2IrO6
_chemical_formula_sum              "Bi2 Ir1 O6"
_cell_length_a       5.504407326437621
_cell_length_b       5.504407505417125
_cell_length_c       5.504407594066057
_cell_angle_alpha    59.99999842688123
_cell_angle_beta     59.999999451641074
_cell_angle_gamma    59.99999938581407

_space_group_name_H-M_alt    "P 1"
_space_group_IT_number       1

loop_
  _space_group_symop_operation_xyz
  'x, y, z'

loop_
  _atom_site_type_symbol
  _atom_site_label
  _atom_site_symmetry_multiplicity
  _atom_site_fract_x
  _atom_site_fract_y
  _atom_site_fract_z
  _atom_site_occupancy
  Bi  Bi1       1.0  0.2500000999168751  0.250000024433481  0.24999986209844985  1.0000
  Bi  Bi2       1.0  0.7499998964289967  0.7499999553740694  0.7500002229816156  1.0000
  Ir  Ir1       1.0  0.9999999866716779  2.225025585895706e-09  2.371890744233882e-08  1.0000
  O   O1        1.0  0.24715197075566772  0.24715193897779375  0.75284811346684  1.0000
  O   O2        1.0  0.7528479827876186  0.7528480119044222  0.2471519293579704  1.0000
  O   O3        1.0  0.7528479908544017  0.24715205932801862  0.24715195125124279  1.0000
  O   O4        1.0  0.24715203026117577  0.7528479783302056  0.7528479544474623  1.0000
  O   O5        1.0  0.2471520896633428  0.7528480419455129  0.24715192794500415  1.0000
  O   O6        1.0  0.7528479583633828  0.2471519779125037  0.7528480258832829  1.0000
