data_image0
_chemical_formula_structural       Bi2IrI6
_chemical_formula_sum              "Bi2 Ir1 I6"
_cell_length_a       7.727223213180584
_cell_length_b       7.727223177947168
_cell_length_c       7.7272232254397935
_cell_angle_alpha    59.99999982279024
_cell_angle_beta     60.000000664933424
_cell_angle_gamma    59.99999837539321

_space_group_name_H-M_alt    "P 1"
_space_group_IT_number       1

loop_
  _space_group_symop_operation_xyz
  'x, y, z'

loop_
  _atom_site_type_symbol
  _atom_site_label
  _atom_site_symmetry_multiplicity
  _atom_site_fract_x
  _atom_site_fract_y
  _atom_site_fract_z
  _atom_site_occupancy
  Bi  Bi1       1.0  0.25000006347699927  0.24999999410759838  0.2499999437897251  1.0000
  Bi  Bi2       1.0  0.7500000114431273  0.750000017192229  0.7500000017819637  1.0000
  Ir  Ir1       1.0  0.9999999696757639  0.999999996830052  9.95711518535961e-08  1.0000
  I   I1        1.0  0.24488136178339165  0.24488137768469553  0.7551186231732437  1.0000
  I   I2        1.0  0.7551186255903587  0.7551186272752368  0.24488136157682447  1.0000
  I   I3        1.0  0.7551186800954391  0.24488130581254494  0.24488133557551722  1.0000
  I   I4        1.0  0.2448813371959755  0.7551186452582666  0.7551186378660126  1.0000
  I   I5        1.0  0.2448813063489379  0.7551186908697756  0.24488133631325654  1.0000
  I   I6        1.0  0.755118642594412  0.244881344204666  0.7551186616536386  1.0000
