data_image0
_chemical_formula_structural       Bi2InCl6
_chemical_formula_sum              "Bi2 In1 Cl6"
_cell_length_a       7.18001889302616
_cell_length_b       7.180018062879829
_cell_length_c       7.180018839634794
_cell_angle_alpha    59.99999156527979
_cell_angle_beta     59.9999970289826
_cell_angle_gamma    59.99999575083773

_space_group_name_H-M_alt    "P 1"
_space_group_IT_number       1

loop_
  _space_group_symop_operation_xyz
  'x, y, z'

loop_
  _atom_site_type_symbol
  _atom_site_label
  _atom_site_symmetry_multiplicity
  _atom_site_fract_x
  _atom_site_fract_y
  _atom_site_fract_z
  _atom_site_occupancy
  Bi  Bi1       1.0  0.25000005321199914  0.24999990218868107  0.2500001170996274  1.0000
  Bi  Bi2       1.0  0.7499997497752889  0.7500002848216184  0.7500001473245932  1.0000
  In  In1       1.0  0.999999987702878  0.9999999982942289  5.5747837083813495e-08  1.0000
  Cl  Cl1       1.0  0.2488568957650302  0.24885696964246526  0.751143032665268  1.0000
  Cl  Cl2       1.0  0.7511431481980274  0.7511430058525363  0.24885695240545755  1.0000
  Cl  Cl3       1.0  0.751143167629707  0.24885683701136924  0.24885680897663873  1.0000
  Cl  Cl4       1.0  0.24885701896274953  0.7511430241971422  0.7511429892211363  1.0000
  Cl  Cl5       1.0  0.24885692958909716  0.7511430372129835  0.24885685231482044  1.0000
  Cl  Cl6       1.0  0.7511430510850341  0.24885693998779013  0.7511430451633933  1.0000
