data_image0
_chemical_formula_structural       Bi2InI6
_chemical_formula_sum              "Bi2 In1 I6"
_cell_length_a       8.045487662579607
_cell_length_b       8.04548779447497
_cell_length_c       8.04548779587679
_cell_angle_alpha    59.9999996815178
_cell_angle_beta     60.000000186943716
_cell_angle_gamma    60.00000014739884

_space_group_name_H-M_alt    "P 1"
_space_group_IT_number       1

loop_
  _space_group_symop_operation_xyz
  'x, y, z'

loop_
  _atom_site_type_symbol
  _atom_site_label
  _atom_site_symmetry_multiplicity
  _atom_site_fract_x
  _atom_site_fract_y
  _atom_site_fract_z
  _atom_site_occupancy
  Bi  Bi1       1.0  0.25000000087427343  0.24999995329913813  0.2500000351537939  1.0000
  Bi  Bi2       1.0  0.7499999905141771  0.7500000684491546  0.7499999450931966  1.0000
  In  In1       1.0  0.9999999386762409  5.4801917321932805e-08  0.9999999547865445  1.0000
  I   I1        1.0  0.25515445685182325  0.25515443730213544  0.7448455530068866  1.0000
  I   I2        1.0  0.7448455294773129  0.7448455737902288  0.25515445498464845  1.0000
  I   I3        1.0  0.7448455566879549  0.25515442821828804  0.255154421123898  1.0000
  I   I4        1.0  0.25515446756619586  0.7448455509062917  0.7448455242282519  1.0000
  I   I5        1.0  0.2551544495700215  0.7448455509577943  0.2551544976838725  1.0000
  I   I6        1.0  0.7448456075498315  0.255154385543071  0.744845617857335  1.0000
