data_image0
_chemical_formula_structural       Bi2IrF6
_chemical_formula_sum              "Bi2 Ir1 F6"
_cell_length_a       5.7710181460390295
_cell_length_b       5.771017500621293
_cell_length_c       5.771017400113421
_cell_angle_alpha    60.00000242001037
_cell_angle_beta     60.00000475937517
_cell_angle_gamma    60.00000230218682

_space_group_name_H-M_alt    "P 1"
_space_group_IT_number       1

loop_
  _space_group_symop_operation_xyz
  'x, y, z'

loop_
  _atom_site_type_symbol
  _atom_site_label
  _atom_site_symmetry_multiplicity
  _atom_site_fract_x
  _atom_site_fract_y
  _atom_site_fract_z
  _atom_site_occupancy
  Bi  Bi1       1.0  0.24999927680482953  0.25000077055142783  0.2500003636578187  1.0000
  Bi  Bi2       1.0  0.7500000255720533  0.7499992917155683  0.7499993616272562  1.0000
  Ir  Ir1       1.0  1.021652801382941e-07  0.9999999936333015  0.9999999798254569  1.0000
  F   F1        1.0  0.25576195627075615  0.2557621357180351  0.7442379567522056  1.0000
  F   F2        1.0  0.7442382435252796  0.744237767381465  0.2557623784371864  1.0000
  F   F3        1.0  0.7442378655398352  0.2557621323465858  0.25576196014971475  1.0000
  F   F4        1.0  0.2557623177013471  0.7442379044536385  0.7442379924337579  1.0000
  F   F5        1.0  0.255761920660845  0.7442378038798554  0.2557622110101454  1.0000
  F   F6        1.0  0.7442382728273871  0.2557622201869659  0.744237727221333  1.0000
