data_image0
_chemical_formula_structural       Bi2IrSe6
_chemical_formula_sum              "Bi2 Ir1 Se6"
_cell_length_a       6.736553189269285
_cell_length_b       6.736553263355471
_cell_length_c       6.736553261786993
_cell_angle_alpha    60.00000137051463
_cell_angle_beta     60.00000070773071
_cell_angle_gamma    60.000000623470406

_space_group_name_H-M_alt    "P 1"
_space_group_IT_number       1

loop_
  _space_group_symop_operation_xyz
  'x, y, z'

loop_
  _atom_site_type_symbol
  _atom_site_label
  _atom_site_symmetry_multiplicity
  _atom_site_fract_x
  _atom_site_fract_y
  _atom_site_fract_z
  _atom_site_occupancy
  Bi  Bi1       1.0  0.24999994152955693  0.2500000743501963  0.24999999799676006  1.0000
  Bi  Bi2       1.0  0.7500000390956263  0.7499999703404425  0.7499999017589765  1.0000
  Ir  Ir1       1.0  3.6361174114402702e-09  0.9999999890916488  3.035601246000947e-08  1.0000
  Se  Se1       1.0  0.25750694499160354  0.2575069548580233  0.7424930604701773  1.0000
  Se  Se2       1.0  0.7424930673188707  0.7424930461992111  0.2575069892501644  1.0000
  Se  Se3       1.0  0.742493069832312  0.257506922827356  0.25750693930553975  1.0000
  Se  Se4       1.0  0.25750696076272456  0.7424930182339441  0.742493086737328  1.0000
  Se  Se5       1.0  0.2575069140394906  0.742493039961801  0.25750693894845256  1.0000
  Se  Se6       1.0  0.7424930629674154  0.2575069847301943  0.7424930542598696  1.0000
