data_image0
_chemical_formula_structural       Bi2InF6
_chemical_formula_sum              "Bi2 In1 F6"
_cell_length_a       6.181077844381998
_cell_length_b       6.181077575155421
_cell_length_c       6.181077688653881
_cell_angle_alpha    59.999999611661124
_cell_angle_beta     60.0000018474265
_cell_angle_gamma    59.99999946258212

_space_group_name_H-M_alt    "P 1"
_space_group_IT_number       1

loop_
  _space_group_symop_operation_xyz
  'x, y, z'

loop_
  _atom_site_type_symbol
  _atom_site_label
  _atom_site_symmetry_multiplicity
  _atom_site_fract_x
  _atom_site_fract_y
  _atom_site_fract_z
  _atom_site_occupancy
  Bi  Bi1       1.0  0.2500000427665949  0.25000002099884405  0.2499999875432583  1.0000
  Bi  Bi2       1.0  0.74999989982234  0.7500000927181676  0.7499997707963242  1.0000
  In  In1       1.0  0.9999999774692202  5.944326980804966e-09  4.065004332341363e-08  1.0000
  F   F1        1.0  0.24264568898427483  0.2426456295520095  0.7573543545357475  1.0000
  F   F2        1.0  0.7573543898675615  0.7573542939465364  0.24264573008217577  1.0000
  F   F3        1.0  0.7573542573757024  0.24264563228456493  0.242645799096285  1.0000
  F   F4        1.0  0.2426457759612909  0.7573543268799432  0.7573542952996011  1.0000
  F   F5        1.0  0.2426456839706112  0.7573543572954765  0.24264568946221327  1.0000
  F   F6        1.0  0.7573542715268667  0.24264566725662912  0.7573543464459972  1.0000
