data_image0
_chemical_formula_structural       Bi2MoSe6
_chemical_formula_sum              "Bi2 Mo1 Se6"
_cell_length_a       6.81846017724112
_cell_length_b       6.818460176045072
_cell_length_c       6.818460257709855
_cell_angle_alpha    59.99999934362938
_cell_angle_beta     59.9999999175033
_cell_angle_gamma    59.99999999765038

_space_group_name_H-M_alt    "P 1"
_space_group_IT_number       1

loop_
  _space_group_symop_operation_xyz
  'x, y, z'

loop_
  _atom_site_type_symbol
  _atom_site_label
  _atom_site_symmetry_multiplicity
  _atom_site_fract_x
  _atom_site_fract_y
  _atom_site_fract_z
  _atom_site_occupancy
  Bi  Bi1       1.0  0.2500000554970859  0.24999993841890789  0.24999997690118506  1.0000
  Bi  Bi2       1.0  0.749999991580207  0.7499999589542555  0.7499999433771003  1.0000
  Mo  Mo1       1.0  0.9999999799862829  0.9999999838340273  7.235429551980825e-08  1.0000
  Se  Se1       1.0  0.25711672773232547  0.25711680816008814  0.7428832207495463  1.0000
  Se  Se2       1.0  0.7428832546987046  0.7428832526690178  0.2571167894515425  1.0000
  Se  Se3       1.0  0.7428831678839601  0.2571168038601504  0.25711676823709284  1.0000
  Se  Se4       1.0  0.25711681935461245  0.7428832120634767  0.7428832209479742  1.0000
  Se  Se5       1.0  0.2571167933699108  0.7428832194500267  0.25711675881314977  1.0000
  Se  Se6       1.0  0.7428831956472559  0.25711682162066857  0.7428832623738963  1.0000
