data_image0
_chemical_formula_structural       Bi2MgI6
_chemical_formula_sum              "Bi2 Mg1 I6"
_cell_length_a       7.909680401504583
_cell_length_b       7.909680419060547
_cell_length_c       7.90968043167289
_cell_angle_alpha    59.9999995297111
_cell_angle_beta     59.9999997907935
_cell_angle_gamma    59.99999953536014

_space_group_name_H-M_alt    "P 1"
_space_group_IT_number       1

loop_
  _space_group_symop_operation_xyz
  'x, y, z'

loop_
  _atom_site_type_symbol
  _atom_site_label
  _atom_site_symmetry_multiplicity
  _atom_site_fract_x
  _atom_site_fract_y
  _atom_site_fract_z
  _atom_site_occupancy
  Bi  Bi1       1.0  0.24999998139068452  0.2499999916450281  0.24999999789146748  1.0000
  Bi  Bi2       1.0  0.749999994986203  0.7500000151938113  0.7500000037660015  1.0000
  Mg  Mg1       1.0  0.9999999937177944  2.3226188885587524e-08  4.170744109840512e-09  1.0000
  I   I1        1.0  0.2568572883990019  0.25685728169340555  0.7431427238847634  1.0000
  I   I2        1.0  0.7431427116898248  0.7431427065644828  0.2568572739429381  1.0000
  I   I3        1.0  0.7431427249728434  0.2568572768474655  0.25685728069737285  1.0000
  I   I4        1.0  0.2568572966748172  0.7431427036683598  0.7431427127504905  1.0000
  I   I5        1.0  0.2568572936075207  0.7431427228500752  0.256857278470758  1.0000
  I   I6        1.0  0.7431427164346421  0.2568572793435263  0.7431427238479752  1.0000
