data_image0
_chemical_formula_structural       Bi2MoBr6
_chemical_formula_sum              "Bi2 Mo1 Br6"
_cell_length_a       7.561799473200399
_cell_length_b       7.5617994785605145
_cell_length_c       7.561799501066351
_cell_angle_alpha    59.99999964264834
_cell_angle_beta     60.00000048515471
_cell_angle_gamma    60.000000290997214

_space_group_name_H-M_alt    "P 1"
_space_group_IT_number       1

loop_
  _space_group_symop_operation_xyz
  'x, y, z'

loop_
  _atom_site_type_symbol
  _atom_site_label
  _atom_site_symmetry_multiplicity
  _atom_site_fract_x
  _atom_site_fract_y
  _atom_site_fract_z
  _atom_site_occupancy
  Bi  Bi1       1.0  0.2500000012049195  0.24999994822634386  0.250000033806281  1.0000
  Bi  Bi2       1.0  0.7500000427746224  0.7500000066437702  0.7500000087911606  1.0000
  Mo  Mo1       1.0  0.9999999866723047  5.830730558714738e-08  1.982816409398152e-08  1.0000
  Br  Br1       1.0  0.24040733414899854  0.24040737985679228  0.759592647455958  1.0000
  Br  Br2       1.0  0.7595925843212715  0.7595926171241535  0.2404073932002971  1.0000
  Br  Br3       1.0  0.7595926408389936  0.24040737695497993  0.24040732298287495  1.0000
  Br  Br4       1.0  0.24040739154102087  0.7595925989705506  0.7595925985122062  1.0000
  Br  Br5       1.0  0.2404073669605548  0.7595926356978868  0.24040735492402773  1.0000
  Br  Br6       1.0  0.7595926484211092  0.24040737747953317  0.7595926252109841  1.0000
