data_image0
_chemical_formula_structural       Bi2MnSe6
_chemical_formula_sum              "Bi2 Mn1 Se6"
_cell_length_a       6.68677731835565
_cell_length_b       6.686777423073805
_cell_length_c       6.686777271576283
_cell_angle_alpha    59.99999962051186
_cell_angle_beta     59.999999457006275
_cell_angle_gamma    59.99999863457496

_space_group_name_H-M_alt    "P 1"
_space_group_IT_number       1

loop_
  _space_group_symop_operation_xyz
  'x, y, z'

loop_
  _atom_site_type_symbol
  _atom_site_label
  _atom_site_symmetry_multiplicity
  _atom_site_fract_x
  _atom_site_fract_y
  _atom_site_fract_z
  _atom_site_occupancy
  Bi  Bi1       1.0  0.2500000692063967  0.24999990944802783  0.24999998826514486  1.0000
  Bi  Bi2       1.0  0.74999993046238  0.7500001660946019  0.7500000071286536  1.0000
  Mn  Mn1       1.0  1.4913071192655293e-08  3.296865736786707e-08  2.2419285750931953e-08  1.0000
  Se  Se1       1.0  0.24914787625440477  0.24914785703163903  0.7508521325283134  1.0000
  Se  Se2       1.0  0.7508520999210109  0.7508520921311358  0.24914784657728234  1.0000
  Se  Se3       1.0  0.7508521467651166  0.24914783171539262  0.24914790412453058  1.0000
  Se  Se4       1.0  0.2491478787734249  0.7508521247737495  0.7508520974829345  1.0000
  Se  Se5       1.0  0.2491478936132708  0.7508521645267053  0.2491478584640496  1.0000
  Se  Se6       1.0  0.7508520986962774  0.24914781394154276  0.7508521382999384  1.0000
