data_image0
_chemical_formula_structural       Bi2MnBr6
_chemical_formula_sum              "Bi2 Mn1 Br6"
_cell_length_a       7.334236664027372
_cell_length_b       7.334236691231601
_cell_length_c       7.334236589420912
_cell_angle_alpha    60.00000086862692
_cell_angle_beta     60.000001199805126
_cell_angle_gamma    60.00000107795905

_space_group_name_H-M_alt    "P 1"
_space_group_IT_number       1

loop_
  _space_group_symop_operation_xyz
  'x, y, z'

loop_
  _atom_site_type_symbol
  _atom_site_label
  _atom_site_symmetry_multiplicity
  _atom_site_fract_x
  _atom_site_fract_y
  _atom_site_fract_z
  _atom_site_occupancy
  Bi  Bi1       1.0  0.2500000372395863  0.25000007343480374  0.24999992597319626  1.0000
  Bi  Bi2       1.0  0.7500000441043984  0.7499999130426421  0.7500001221565208  1.0000
  Mn  Mn1       1.0  0.999999970913202  1.1689306366697751e-08  5.3693203648247085e-08  1.0000
  Br  Br1       1.0  0.24300557645711177  0.24300553545562212  0.7569944137367435  1.0000
  Br  Br2       1.0  0.7569943730985969  0.7569944543616249  0.24300555954343134  1.0000
  Br  Br3       1.0  0.7569944869638984  0.2430055991152339  0.24300549615978453  1.0000
  Br  Br4       1.0  0.24300553612737133  0.7569943873622115  0.7569944624745373  1.0000
  Br  Br5       1.0  0.24300553779154063  0.7569944350804632  0.2430055769061726  1.0000
  Br  Br6       1.0  0.7569944284140203  0.24300558980470321  0.7569944018748901  1.0000
