data_image0
_chemical_formula_structural       Bi2MoI6
_chemical_formula_sum              "Bi2 Mo1 I6"
_cell_length_a       7.981996484816834
_cell_length_b       7.9819963273729195
_cell_length_c       7.981996491201595
_cell_angle_alpha    59.99999929339654
_cell_angle_beta     59.99999886318968
_cell_angle_gamma    59.99999937484253

_space_group_name_H-M_alt    "P 1"
_space_group_IT_number       1

loop_
  _space_group_symop_operation_xyz
  'x, y, z'

loop_
  _atom_site_type_symbol
  _atom_site_label
  _atom_site_symmetry_multiplicity
  _atom_site_fract_x
  _atom_site_fract_y
  _atom_site_fract_z
  _atom_site_occupancy
  Bi  Bi1       1.0  0.2500000050364766  0.2500000249828113  0.24999996961037615  1.0000
  Bi  Bi2       1.0  0.7500000316818123  0.7499999644727738  0.7499999595412254  1.0000
  Mo  Mo1       1.0  3.172566130291017e-08  0.9999998787836508  1.0237503576868053e-07  1.0000
  I   I1        1.0  0.2465319287911968  0.24653192281801353  0.7534680919696869  1.0000
  I   I2        1.0  0.7534681250810479  0.7534681280129387  0.24653188436179124  1.0000
  I   I3        1.0  0.7534680742220005  0.2465319293729139  0.24653194114304597  1.0000
  I   I4        1.0  0.24653190528789254  0.753468101511044  0.7534680773318282  1.0000
  I   I5        1.0  0.24653189979458107  0.7534680872678963  0.24653194353471922  1.0000
  I   I6        1.0  0.753467996394859  0.2465319635630553  0.7534680314577217  1.0000
