data_image0
_chemical_formula_structural       Bi2MgCl6
_chemical_formula_sum              "Bi2 Mg1 Cl6"
_cell_length_a       6.84859086307307
_cell_length_b       6.848590778043324
_cell_length_c       6.848590958739089
_cell_angle_alpha    60.00000804830481
_cell_angle_beta     60.0000073725752
_cell_angle_gamma    60.000006738913584

_space_group_name_H-M_alt    "P 1"
_space_group_IT_number       1

loop_
  _space_group_symop_operation_xyz
  'x, y, z'

loop_
  _atom_site_type_symbol
  _atom_site_label
  _atom_site_symmetry_multiplicity
  _atom_site_fract_x
  _atom_site_fract_y
  _atom_site_fract_z
  _atom_site_occupancy
  Bi  Bi1       1.0  0.24999963842384337  0.2499998724654162  0.25000029966775056  1.0000
  Bi  Bi2       1.0  0.7500001090496614  0.7500000269207329  0.7499999688584578  1.0000
  Mg  Mg1       1.0  0.9999999871253311  0.9999999678103109  1.2766329055036396e-07  1.0000
  Cl  Cl1       1.0  0.24977807078311481  0.24977794417308738  0.7502220053537791  1.0000
  Cl  Cl2       1.0  0.7502220298881381  0.750222089336803  0.24977801659140572  1.0000
  Cl  Cl3       1.0  0.7502221954244198  0.24977800561522745  0.2497778801611546  1.0000
  Cl  Cl4       1.0  0.24977795942222747  0.7502219867633678  0.7502218914162017  1.0000
  Cl  Cl5       1.0  0.2497779544942559  0.7502220600556718  0.24977798481578878  1.0000
  Cl  Cl6       1.0  0.7502220638151644  0.24977804856349234  0.7502218173520574  1.0000
