data_image0
_chemical_formula_structural       Bi2MnCl6
_chemical_formula_sum              "Bi2 Mn1 Cl6"
_cell_length_a       6.9280074493563655
_cell_length_b       6.928007962440814
_cell_length_c       6.928007184021265
_cell_angle_alpha    60.00000302712995
_cell_angle_beta     59.99999850746968
_cell_angle_gamma    60.000004083144695

_space_group_name_H-M_alt    "P 1"
_space_group_IT_number       1

loop_
  _space_group_symop_operation_xyz
  'x, y, z'

loop_
  _atom_site_type_symbol
  _atom_site_label
  _atom_site_symmetry_multiplicity
  _atom_site_fract_x
  _atom_site_fract_y
  _atom_site_fract_z
  _atom_site_occupancy
  Bi  Bi1       1.0  0.25000021383150994  0.25000005243992635  0.24999971860259362  1.0000
  Bi  Bi2       1.0  0.7500002486902704  0.750000070696755  0.7499997693663091  1.0000
  Mn  Mn1       1.0  6.577299315555972e-08  1.9269202118284997e-07  2.980187795162474e-07  1.0000
  Cl  Cl1       1.0  0.2419130666017211  0.2419132274305596  0.7580870063168084  1.0000
  Cl  Cl2       1.0  0.7580865761367227  0.7580866499795893  0.24191359033023763  1.0000
  Cl  Cl3       1.0  0.7580870668740125  0.24191284539343047  0.24191318067579407  1.0000
  Cl  Cl4       1.0  0.241913250150016  0.7580866042050906  0.7580867009334895  1.0000
  Cl  Cl5       1.0  0.24191298195678107  0.7580870218308567  0.24191307370593637  1.0000
  Cl  Cl6       1.0  0.7580865349113618  0.24191333819324334  0.7580866661635216  1.0000
