data_image0
_chemical_formula_structural       Bi2MoF6
_chemical_formula_sum              "Bi2 Mo1 F6"
_cell_length_a       6.322144150154681
_cell_length_b       6.322143096409501
_cell_length_c       6.322143419903176
_cell_angle_alpha    60.00000042485091
_cell_angle_beta     60.00000204283384
_cell_angle_gamma    60.00000099153989

_space_group_name_H-M_alt    "P 1"
_space_group_IT_number       1

loop_
  _space_group_symop_operation_xyz
  'x, y, z'

loop_
  _atom_site_type_symbol
  _atom_site_label
  _atom_site_symmetry_multiplicity
  _atom_site_fract_x
  _atom_site_fract_y
  _atom_site_fract_z
  _atom_site_occupancy
  Bi  Bi1       1.0  0.2500000366297433  0.24999990873040062  0.2499996293698096  1.0000
  Bi  Bi2       1.0  0.7499999449525374  0.7499999470355165  0.7500000670247965  1.0000
  Mo  Mo1       1.0  2.7064195278785518e-08  1.7435075606936437e-08  0.9999999650964282  1.0000
  F   F1        1.0  0.23581388291963176  0.23581394259506286  0.7641862049117127  1.0000
  F   F2        1.0  0.7641860766503257  0.7641860778354684  0.2358139895838833  1.0000
  F   F3        1.0  0.7641861215960947  0.2358138877523897  0.23581398276075188  1.0000
  F   F4        1.0  0.2358139300523059  0.7641861249292203  0.7641860983916904  1.0000
  F   F5        1.0  0.23581393919154503  0.764186186185073  0.23581389759541554  1.0000
  F   F6        1.0  0.7641860729937324  0.23581388461345318  0.7641862027014885  1.0000
