data_image0
_chemical_formula_structural       Bi2MnI6
_chemical_formula_sum              "Bi2 Mn1 I6"
_cell_length_a       7.811861172499857
_cell_length_b       7.811861111998687
_cell_length_c       7.811861239572285
_cell_angle_alpha    60.00000085423464
_cell_angle_beta     59.99999982575084
_cell_angle_gamma    59.999999726146505

_space_group_name_H-M_alt    "P 1"
_space_group_IT_number       1

loop_
  _space_group_symop_operation_xyz
  'x, y, z'

loop_
  _atom_site_type_symbol
  _atom_site_label
  _atom_site_symmetry_multiplicity
  _atom_site_fract_x
  _atom_site_fract_y
  _atom_site_fract_z
  _atom_site_occupancy
  Bi  Bi1       1.0  0.25000006388136486  0.2499999649019575  0.24999995647514103  1.0000
  Bi  Bi2       1.0  0.7499999191107738  0.7500001047912948  0.7499999838561774  1.0000
  Mn  Mn1       1.0  2.2187447738411234e-08  0.9999999733473711  0.9999999407875665  1.0000
  I   I1        1.0  0.24721391909773952  0.24721387936281208  0.7527861023547416  1.0000
  I   I2        1.0  0.7527861037606011  0.7527861150759623  0.24721391327542366  1.0000
  I   I3        1.0  0.7527860755851452  0.2472138911684282  0.24721394762108528  1.0000
  I   I4        1.0  0.2472138657963015  0.7527861126771568  0.752786137326843  1.0000
  I   I5        1.0  0.2472139198349729  0.752786090784647  0.2472139075547586  1.0000
  I   I6        1.0  0.7527861173871911  0.24721387386589605  0.7527861119472963  1.0000
