data_image0
_chemical_formula_structural       Bi2MnF6
_chemical_formula_sum              "Bi2 Mn1 F6"
_cell_length_a       5.836282780746682
_cell_length_b       5.836282604213684
_cell_length_c       5.836282658396001
_cell_angle_alpha    60.00000300611097
_cell_angle_beta     60.00000164823847
_cell_angle_gamma    60.00000079697078

_space_group_name_H-M_alt    "P 1"
_space_group_IT_number       1

loop_
  _space_group_symop_operation_xyz
  'x, y, z'

loop_
  _atom_site_type_symbol
  _atom_site_label
  _atom_site_symmetry_multiplicity
  _atom_site_fract_x
  _atom_site_fract_y
  _atom_site_fract_z
  _atom_site_occupancy
  Bi  Bi1       1.0  0.24999999515298077  0.25000012906439867  0.2500000780258276  1.0000
  Bi  Bi2       1.0  0.7500003267222368  0.7500001290774679  0.7499993357939898  1.0000
  Mn  Mn1       1.0  3.5931615095215013e-08  5.246253849852e-08  0.9999999163942783  1.0000
  F   F1        1.0  0.2484600000339085  0.2484600011623536  0.7515399699956047  1.0000
  F   F2        1.0  0.7515400732962607  0.7515399757803145  0.24846014390485785  1.0000
  F   F3        1.0  0.7515399146900978  0.24845981360771666  0.24846012205044282  1.0000
  F   F4        1.0  0.24845988107604708  0.7515399513862883  0.7515401475085466  1.0000
  F   F5        1.0  0.24845976218134025  0.7515399196164065  0.24846021423705084  1.0000
  F   F6        1.0  0.7515399805221868  0.248460034242745  0.7515400491037775  1.0000
