data_image0
_chemical_formula_structural       Bi2MnS6
_chemical_formula_sum              "Bi2 Mn1 S6"
_cell_length_a       6.400554671370135
_cell_length_b       6.400554819596839
_cell_length_c       6.400555020192797
_cell_angle_alpha    59.999998286359485
_cell_angle_beta     59.99999810024732
_cell_angle_gamma    59.99999938011471

_space_group_name_H-M_alt    "P 1"
_space_group_IT_number       1

loop_
  _space_group_symop_operation_xyz
  'x, y, z'

loop_
  _atom_site_type_symbol
  _atom_site_label
  _atom_site_symmetry_multiplicity
  _atom_site_fract_x
  _atom_site_fract_y
  _atom_site_fract_z
  _atom_site_occupancy
  Bi  Bi1       1.0  0.2500000098104229  0.2500000592230551  0.25000008743289637  1.0000
  Bi  Bi2       1.0  0.74999994764814  0.7500001145237317  0.7500002472705584  1.0000
  Mn  Mn1       1.0  0.9999999949161142  0.9999999827785182  0.999999972093571  1.0000
  S   S1        1.0  0.24796730014005494  0.2479672050357632  0.7520327162468322  1.0000
  S   S2        1.0  0.7520327115342835  0.7520328060636974  0.24796712428245574  1.0000
  S   S3        1.0  0.7520327237556612  0.2479672403813064  0.24796721347166617  1.0000
  S   S4        1.0  0.24796719964778785  0.752032732448193  0.7520327950064698  1.0000
  S   S5        1.0  0.24796730825057092  0.7520326787265965  0.2479671514089177  1.0000
  S   S6        1.0  0.7520327801262299  0.24796718886051392  0.752032703776941  1.0000
