data_image0
_chemical_formula_structural       Bi2MnO6
_chemical_formula_sum              "Bi2 Mn1 O6"
_cell_length_a       5.383240152438782
_cell_length_b       5.383240307167464
_cell_length_c       5.383240286027184
_cell_angle_alpha    59.99999923909751
_cell_angle_beta     59.999999637007626
_cell_angle_gamma    60.00000012835111

_space_group_name_H-M_alt    "P 1"
_space_group_IT_number       1

loop_
  _space_group_symop_operation_xyz
  'x, y, z'

loop_
  _atom_site_type_symbol
  _atom_site_label
  _atom_site_symmetry_multiplicity
  _atom_site_fract_x
  _atom_site_fract_y
  _atom_site_fract_z
  _atom_site_occupancy
  Bi  Bi1       1.0  0.2500001248267398  0.24999998715320704  0.24999997049655306  1.0000
  Bi  Bi2       1.0  0.7500000061029277  0.7500000820403048  0.7499998106162742  1.0000
  Mn  Mn1       1.0  0.999999966806525  1.5925749661967643e-08  6.621999709924953e-08  1.0000
  O   O1        1.0  0.24235150977571207  0.24235146442819008  0.7576485277040852  1.0000
  O   O2        1.0  0.7576484673874564  0.7576485319618893  0.2423515357368776  1.0000
  O   O3        1.0  0.7576485001426462  0.2423514407230835  0.24235153033590828  1.0000
  O   O4        1.0  0.24235153320297617  0.7576484965142093  0.7576484825769384  1.0000
  O   O5        1.0  0.2423514667189234  0.7576484957841915  0.24235152541056312  1.0000
  O   O6        1.0  0.7576484259234079  0.24235147102949464  0.7576485616419043  1.0000
