data_image0
_chemical_formula_structural       Bi2NCl6
_chemical_formula_sum              "Bi2 N1 Cl6"
_cell_length_a       6.805866465329743
_cell_length_b       6.805866475741235
_cell_length_c       6.805866150517052
_cell_angle_alpha    60.00000024951615
_cell_angle_beta     59.99999724017498
_cell_angle_gamma    59.999997569044666

_space_group_name_H-M_alt    "P 1"
_space_group_IT_number       1

loop_
  _space_group_symop_operation_xyz
  'x, y, z'

loop_
  _atom_site_type_symbol
  _atom_site_label
  _atom_site_symmetry_multiplicity
  _atom_site_fract_x
  _atom_site_fract_y
  _atom_site_fract_z
  _atom_site_occupancy
  Bi  Bi1       1.0  0.25000003030168666  0.25000030500336673  0.24999957263909187  1.0000
  Bi  Bi2       1.0  0.7499991854867997  0.7500000836212996  0.7499994952229607  1.0000
  N   N1        1.0  1.6134993033219468e-07  5.038719747240848e-08  0.999999891192789  1.0000
  Cl  Cl1       1.0  0.25573466349751595  0.2557342231765224  0.7442655868638395  1.0000
  Cl  Cl2       1.0  0.7442657218601102  0.7442654816218132  0.25573473830320953  1.0000
  Cl  Cl3       1.0  0.7442656421886485  0.25573428313819174  0.25573450000628345  1.0000
  Cl  Cl4       1.0  0.25573464933998996  0.7442654486532899  0.7442659393913275  1.0000
  Cl  Cl5       1.0  0.2557345184061278  0.7442655128898931  0.2557344652921678  1.0000
  Cl  Cl6       1.0  0.7442654297806197  0.2557346076028641  0.7442658103709708  1.0000
