data_image0
_chemical_formula_structural       Bi2NiTe6
_chemical_formula_sum              "Bi2 Ni1 Te6"
_cell_length_a       7.067757297109862
_cell_length_b       7.067757527528577
_cell_length_c       7.067757533566222
_cell_angle_alpha    59.999999929332446
_cell_angle_beta     59.99999918533956
_cell_angle_gamma    60.0000005802883

_space_group_name_H-M_alt    "P 1"
_space_group_IT_number       1

loop_
  _space_group_symop_operation_xyz
  'x, y, z'

loop_
  _atom_site_type_symbol
  _atom_site_label
  _atom_site_symmetry_multiplicity
  _atom_site_fract_x
  _atom_site_fract_y
  _atom_site_fract_z
  _atom_site_occupancy
  Bi  Bi1       1.0  0.2500000666825609  0.24999993718804714  0.2500000060658776  1.0000
  Bi  Bi2       1.0  0.7499999393512948  0.7500000888220656  0.7499999589813308  1.0000
  Ni  Ni1       1.0  0.9999999908741766  0.9999999930685517  9.009143967978584e-08  1.0000
  Te  Te1       1.0  0.25430431132005665  0.25430417333922384  0.7456957477414248  1.0000
  Te  Te2       1.0  0.7456956813804291  0.745695809349338  0.2543042640266312  1.0000
  Te  Te3       1.0  0.7456957264162892  0.2543042650192431  0.2543042946794585  1.0000
  Te  Te4       1.0  0.2543042925234291  0.7456957124707329  0.7456956598773683  1.0000
  Te  Te5       1.0  0.2543042858825647  0.7456957721665615  0.2543043039917625  1.0000
  Te  Te6       1.0  0.7456957076588473  0.2543042521106892  0.7456956709978507  1.0000
