data_image0
_chemical_formula_structural       Bi2NbBr6
_chemical_formula_sum              "Bi2 Nb1 Br6"
_cell_length_a       7.855430501552902
_cell_length_b       7.855430799228127
_cell_length_c       7.855430657820511
_cell_angle_alpha    59.99999996299265
_cell_angle_beta     60.00000063236072
_cell_angle_gamma    59.99999910477108

_space_group_name_H-M_alt    "P 1"
_space_group_IT_number       1

loop_
  _space_group_symop_operation_xyz
  'x, y, z'

loop_
  _atom_site_type_symbol
  _atom_site_label
  _atom_site_symmetry_multiplicity
  _atom_site_fract_x
  _atom_site_fract_y
  _atom_site_fract_z
  _atom_site_occupancy
  Bi  Bi1       1.0  0.25000004454506686  0.24999996552894843  0.24999997597671753  1.0000
  Bi  Bi2       1.0  0.7500000353402806  0.7500000150788968  0.7499999942118662  1.0000
  Nb  Nb1       1.0  8.442600246481655e-08  0.9999999407539727  2.3054144609852908e-08  1.0000
  Br  Br1       1.0  0.23085107768924712  0.23085122506031874  0.7691488589615596  1.0000
  Br  Br2       1.0  0.7691488055197176  0.7691488428574619  0.23085120791939995  1.0000
  Br  Br3       1.0  0.7691488650329623  0.23085109219708908  0.23085117396175964  1.0000
  Br  Br4       1.0  0.23085107216381437  0.7691489195928781  0.7691487997868549  1.0000
  Br  Br5       1.0  0.2308510392901667  0.7691489619367211  0.2308511275915726  1.0000
  Br  Br6       1.0  0.769148975219819  0.2308510295848672  0.7691488380027027  1.0000
