data_image0
_chemical_formula_structural       Bi2NbO6
_chemical_formula_sum              "Bi2 Nb1 O6"
_cell_length_a       5.503263144531783
_cell_length_b       5.503263163450109
_cell_length_c       5.503263230143109
_cell_angle_alpha    60.000000997981324
_cell_angle_beta     59.99999986576836
_cell_angle_gamma    59.999998973723535

_space_group_name_H-M_alt    "P 1"
_space_group_IT_number       1

loop_
  _space_group_symop_operation_xyz
  'x, y, z'

loop_
  _atom_site_type_symbol
  _atom_site_label
  _atom_site_symmetry_multiplicity
  _atom_site_fract_x
  _atom_site_fract_y
  _atom_site_fract_z
  _atom_site_occupancy
  Bi  Bi1       1.0  0.25000009367017434  0.2500000548693568  0.24999994815847235  1.0000
  Bi  Bi2       1.0  0.7500001009244011  0.7500001824119811  0.7499999201652112  1.0000
  Nb  Nb1       1.0  3.5542303636248225e-08  6.676463376749847e-09  0.999999884401224  1.0000
  O   O1        1.0  0.25383951960804324  0.25383942573518875  0.7461604980077909  1.0000
  O   O2        1.0  0.7461604492963122  0.7461605066542334  0.2538395393004605  1.0000
  O   O3        1.0  0.7461604724221514  0.25383945131361724  0.25383954082019833  1.0000
  O   O4        1.0  0.25383938883707  0.7461605144581335  0.7461605245339373  1.0000
  O   O5        1.0  0.25383942329162373  0.746160449495875  0.25383960097462877  1.0000
  O   O6        1.0  0.746160490721096  0.2538394272563374  0.746160549745363  1.0000
