data_image0
_chemical_formula_structural       Bi2NbCl6
_chemical_formula_sum              "Bi2 Nb1 Cl6"
_cell_length_a       7.497532246034579
_cell_length_b       7.497532216801204
_cell_length_c       7.497531286058218
_cell_angle_alpha    60.00000379297177
_cell_angle_beta     60.00000230908669
_cell_angle_gamma    60.000002343166756

_space_group_name_H-M_alt    "P 1"
_space_group_IT_number       1

loop_
  _space_group_symop_operation_xyz
  'x, y, z'

loop_
  _atom_site_type_symbol
  _atom_site_label
  _atom_site_symmetry_multiplicity
  _atom_site_fract_x
  _atom_site_fract_y
  _atom_site_fract_z
  _atom_site_occupancy
  Bi  Bi1       1.0  0.25000009853922833  0.25000021189359817  0.2499994813626978  1.0000
  Bi  Bi2       1.0  0.7499998646976216  0.7499997846113615  0.7500004148538931  1.0000
  Nb  Nb1       1.0  3.3444545434047804e-09  1.3068244910798789e-08  4.24769998855072e-08  1.0000
  Cl  Cl1       1.0  0.2272358363680503  0.2272359440000889  0.7727640798194806  1.0000
  Cl  Cl2       1.0  0.7727641660094149  0.7727640459707491  0.22723598015313157  1.0000
  Cl  Cl3       1.0  0.7727641368748326  0.22723592579641783  0.2272360365885689  1.0000
  Cl  Cl4       1.0  0.22723588292420926  0.7727641736209697  0.772763969286386  1.0000
  Cl  Cl5       1.0  0.22723581706313417  0.7727640703099775  0.22723605619595477  1.0000
  Cl  Cl6       1.0  0.7727642084800592  0.22723580858078019  0.7727639623724023  1.0000
