data_image0
_chemical_formula_structural       Bi2NO6
_chemical_formula_sum              "Bi2 N1 O6"
_cell_length_a       5.151415345114494
_cell_length_b       5.1514156434978124
_cell_length_c       5.151415486121192
_cell_angle_alpha    60.000001471810705
_cell_angle_beta     60.00000200182873
_cell_angle_gamma    60.00000010153435

_space_group_name_H-M_alt    "P 1"
_space_group_IT_number       1

loop_
  _space_group_symop_operation_xyz
  'x, y, z'

loop_
  _atom_site_type_symbol
  _atom_site_label
  _atom_site_symmetry_multiplicity
  _atom_site_fract_x
  _atom_site_fract_y
  _atom_site_fract_z
  _atom_site_occupancy
  Bi  Bi1       1.0  0.24999999851907398  0.24999992751400316  0.25000002334158905  1.0000
  Bi  Bi2       1.0  0.7499999570627802  0.7499999988937655  0.7500000102143204  1.0000
  N   N1        1.0  1.2255979697346369e-08  9.248443263035824e-07  0.9999978697706434  1.0000
  O   O1        1.0  0.23180604460956444  0.23180601436220039  0.7681938704015272  1.0000
  O   O2        1.0  0.768193295762451  0.7681934175272843  0.2318065957219447  1.0000
  O   O3        1.0  0.7681932890297838  0.23180677212465028  0.23180659058701394  1.0000
  O   O4        1.0  0.23180595130827417  0.7681941837370877  0.7681938332861524  1.0000
  O   O5        1.0  0.23180705966914425  0.7681930575166775  0.23180688654435846  1.0000
  O   O6        1.0  0.7681943713740832  0.23180570392006064  0.768194300144662  1.0000
