data_image0
_chemical_formula_structural       Bi2NiS6
_chemical_formula_sum              "Bi2 Ni1 S6"
_cell_length_a       6.2584063638136085
_cell_length_b       6.258406490573086
_cell_length_c       6.258406520859836
_cell_angle_alpha    59.99999587402393
_cell_angle_beta     59.99999682360805
_cell_angle_gamma    59.99999612423708

_space_group_name_H-M_alt    "P 1"
_space_group_IT_number       1

loop_
  _space_group_symop_operation_xyz
  'x, y, z'

loop_
  _atom_site_type_symbol
  _atom_site_label
  _atom_site_symmetry_multiplicity
  _atom_site_fract_x
  _atom_site_fract_y
  _atom_site_fract_z
  _atom_site_occupancy
  Bi  Bi1       1.0  0.2500000718329739  0.2500001953367882  0.24999980648479916  1.0000
  Bi  Bi2       1.0  0.7499998753341464  0.7499998795479066  0.7500003022844761  1.0000
  Ni  Ni1       1.0  0.999999943456101  0.9999999980430413  3.084828074932632e-08  1.0000
  S   S1        1.0  0.2516795679064752  0.25167938958264524  0.7483205378731549  1.0000
  S   S2        1.0  0.7483204748318214  0.7483205757123097  0.25167943889238226  1.0000
  S   S3        1.0  0.7483205013198616  0.2516795968712686  0.2516794964989124  1.0000
  S   S4        1.0  0.251679542815793  0.7483203919072043  0.7483204182928105  1.0000
  S   S5        1.0  0.2516796530785716  0.7483204450573597  0.25167941055506454  1.0000
  S   S6        1.0  0.7483203812914868  0.2516795398071936  0.748320525457074  1.0000
