data_image0
_chemical_formula_structural       Bi2NbF6
_chemical_formula_sum              "Bi2 Nb1 F6"
_cell_length_a       6.3384365784513514
_cell_length_b       6.338436088943443
_cell_length_c       6.3384366041155165
_cell_angle_alpha    59.999997162512884
_cell_angle_beta     59.999998165925554
_cell_angle_gamma    60.00000067640927

_space_group_name_H-M_alt    "P 1"
_space_group_IT_number       1

loop_
  _space_group_symop_operation_xyz
  'x, y, z'

loop_
  _atom_site_type_symbol
  _atom_site_label
  _atom_site_symmetry_multiplicity
  _atom_site_fract_x
  _atom_site_fract_y
  _atom_site_fract_z
  _atom_site_occupancy
  Bi  Bi1       1.0  0.24999999024831998  0.2499999228219257  0.25000009644314436  1.0000
  Bi  Bi2       1.0  0.7499998551669065  0.7499996834467304  0.7500001939961473  1.0000
  Nb  Nb1       1.0  0.9999999418873049  5.4103023385114345e-08  0.9999999530968772  1.0000
  F   F1        1.0  0.2276714461710901  0.22767127113331156  0.7723286816920224  1.0000
  F   F2        1.0  0.772328565511945  0.7723287872820694  0.22767136895774862  1.0000
  F   F3        1.0  0.772328739118233  0.22767139496304228  0.2276712474413246  1.0000
  F   F4        1.0  0.2276714383244991  0.7723286963006112  0.7723286360643871  1.0000
  F   F5        1.0  0.2276713455032136  0.7723287458913485  0.2276712830585366  1.0000
  F   F6        1.0  0.7723287168002395  0.22767142845909003  0.7723285849199013  1.0000
