data_image0
_chemical_formula_structural       Bi2NiI6
_chemical_formula_sum              "Bi2 Ni1 I6"
_cell_length_a       7.6366495491526125
_cell_length_b       7.636649495395534
_cell_length_c       7.636649421277699
_cell_angle_alpha    59.999999210394954
_cell_angle_beta     60.000000849113505
_cell_angle_gamma    60.00000049704496

_space_group_name_H-M_alt    "P 1"
_space_group_IT_number       1

loop_
  _space_group_symop_operation_xyz
  'x, y, z'

loop_
  _atom_site_type_symbol
  _atom_site_label
  _atom_site_symmetry_multiplicity
  _atom_site_fract_x
  _atom_site_fract_y
  _atom_site_fract_z
  _atom_site_occupancy
  Bi  Bi1       1.0  0.25000006074851855  0.24999999419251975  0.2500000010230269  1.0000
  Bi  Bi2       1.0  0.7499999316721855  0.7500000130492362  0.750000028004064  1.0000
  Ni  Ni1       1.0  1.8144614548780203e-08  2.85972768782346e-16  0.9999999830708438  1.0000
  I   I1        1.0  0.2479511297373447  0.24795110053279124  0.7520488988832263  1.0000
  I   I2        1.0  0.7520488668841016  0.7520488714259689  0.24795114830394122  1.0000
  I   I3        1.0  0.752048843776842  0.2479511217707646  0.24795111486387522  1.0000
  I   I4        1.0  0.24795115229427625  0.7520488790559019  0.7520488657855109  1.0000
  I   I5        1.0  0.24795115658654487  0.7520488843613994  0.2479510560940844  1.0000
  I   I6        1.0  0.7520488421417907  0.24795113571053784  0.7520489018187841  1.0000
