data_image0
_chemical_formula_structural       Bi2NbI6
_chemical_formula_sum              "Bi2 Nb1 I6"
_cell_length_a       8.183701228972314
_cell_length_b       8.183701242624911
_cell_length_c       8.183701245279915
_cell_angle_alpha    60.00000026733679
_cell_angle_beta     60.00000081234609
_cell_angle_gamma    60.00000039055674

_space_group_name_H-M_alt    "P 1"
_space_group_IT_number       1

loop_
  _space_group_symop_operation_xyz
  'x, y, z'

loop_
  _atom_site_type_symbol
  _atom_site_label
  _atom_site_symmetry_multiplicity
  _atom_site_fract_x
  _atom_site_fract_y
  _atom_site_fract_z
  _atom_site_occupancy
  Bi  Bi1       1.0  0.2500000230265972  0.24999998592379796  0.24999999616501908  1.0000
  Bi  Bi2       1.0  0.7500000071386621  0.7499999996752406  0.7500000229525181  1.0000
  Nb  Nb1       1.0  1.6205454846345485e-08  0.9999999640824171  0.9999999536467785  1.0000
  I   I1        1.0  0.2412761167897125  0.24127613471236084  0.7587238561612399  1.0000
  I   I2        1.0  0.7587238794827544  0.7587239017699202  0.24127608725431762  1.0000
  I   I3        1.0  0.7587238551935145  0.24127612034061302  0.24127614066706868  1.0000
  I   I4        1.0  0.2412760590002652  0.7587239041691403  0.7587239353099651  1.0000
  I   I5        1.0  0.24127612652310085  0.7587238952758938  0.24127608830480773  1.0000
  I   I6        1.0  0.7587239139322551  0.24127609331627659  0.7587239241711153  1.0000
