data_image0
_chemical_formula_structural       Bi2NbTe6
_chemical_formula_sum              "Bi2 Nb1 Te6"
_cell_length_a       7.337411189196057
_cell_length_b       7.337411121348581
_cell_length_c       7.337411203446628
_cell_angle_alpha    59.99999951892269
_cell_angle_beta     60.00000023861242
_cell_angle_gamma    60.00000116893961

_space_group_name_H-M_alt    "P 1"
_space_group_IT_number       1

loop_
  _space_group_symop_operation_xyz
  'x, y, z'

loop_
  _atom_site_type_symbol
  _atom_site_label
  _atom_site_symmetry_multiplicity
  _atom_site_fract_x
  _atom_site_fract_y
  _atom_site_fract_z
  _atom_site_occupancy
  Bi  Bi1       1.0  0.24999999649122193  0.25000007962454396  0.24999993344939245  1.0000
  Bi  Bi2       1.0  0.750000128967283  0.749999938421508  0.74999999122059  1.0000
  Nb  Nb1       1.0  0.9999999713703385  4.339863992757185e-08  0.9999999953412677  1.0000
  Te  Te1       1.0  0.26329957889058825  0.2632996103732352  0.7367003998287208  1.0000
  Te  Te2       1.0  0.736700374397338  0.7367003859734936  0.2632995945186421  1.0000
  Te  Te3       1.0  0.7367003716909086  0.2632996358050541  0.2632996349749561  1.0000
  Te  Te4       1.0  0.26329960959120313  0.7367002954437145  0.7367004079076214  1.0000
  Te  Te5       1.0  0.2632995791213704  0.7367003683555827  0.26329968258426767  1.0000
  Te  Te6       1.0  0.7367003869308337  0.26329964635210945  0.7367003616186426  1.0000
