data_image0
_chemical_formula_structural       Bi2NbS6
_chemical_formula_sum              "Bi2 Nb1 S6"
_cell_length_a       6.4891965452919695
_cell_length_b       6.48919636018332
_cell_length_c       6.4891965349959575
_cell_angle_alpha    59.999998186481186
_cell_angle_beta     59.999998973166186
_cell_angle_gamma    59.99999830110881

_space_group_name_H-M_alt    "P 1"
_space_group_IT_number       1

loop_
  _space_group_symop_operation_xyz
  'x, y, z'

loop_
  _atom_site_type_symbol
  _atom_site_label
  _atom_site_symmetry_multiplicity
  _atom_site_fract_x
  _atom_site_fract_y
  _atom_site_fract_z
  _atom_site_occupancy
  Bi  Bi1       1.0  0.25000010206365897  0.24999981156361842  0.2500001569076989  1.0000
  Bi  Bi2       1.0  0.7499999992174767  0.7500002915522547  0.7499995839930804  1.0000
  Nb  Nb1       1.0  0.9999999534821624  7.549439621029507e-08  0.9999999716425151  1.0000
  S   S1        1.0  0.26007818272192335  0.2600780780841299  0.7399218818439105  1.0000
  S   S2        1.0  0.739921761054358  0.7399219797351039  0.2600782763672972  1.0000
  S   S3        1.0  0.7399218820339137  0.2600779844348353  0.26007820779124546  1.0000
  S   S4        1.0  0.2600781755019628  0.7399219242829669  0.7399218448090541  1.0000
  S   S5        1.0  0.26007801365949473  0.7399218008902407  0.26007818038407005  1.0000
  S   S6        1.0  0.7399219287723086  0.26007804743204516  0.7399219060302267  1.0000
