data_image0
_chemical_formula_structural       Bi2NbSe6
_chemical_formula_sum              "Bi2 Nb1 Se6"
_cell_length_a       6.800355275202985
_cell_length_b       6.800355044150095
_cell_length_c       6.80035505525153
_cell_angle_alpha    60.00000034648457
_cell_angle_beta     60.000000548901205
_cell_angle_gamma    59.99999927398095

_space_group_name_H-M_alt    "P 1"
_space_group_IT_number       1

loop_
  _space_group_symop_operation_xyz
  'x, y, z'

loop_
  _atom_site_type_symbol
  _atom_site_label
  _atom_site_symmetry_multiplicity
  _atom_site_fract_x
  _atom_site_fract_y
  _atom_site_fract_z
  _atom_site_occupancy
  Bi  Bi1       1.0  0.24999994590738026  0.25000000077696094  0.24999997972283913  1.0000
  Bi  Bi2       1.0  0.7499998771174586  0.7500001031869618  0.7500002307886369  1.0000
  Nb  Nb1       1.0  0.9999999976839928  3.241802496466798e-08  3.200535774889835e-08  1.0000
  Se  Se1       1.0  0.2600492932119916  0.2600491755918415  0.7399507645889265  1.0000
  Se  Se2       1.0  0.7399507881179337  0.7399507392669341  0.26004910104466156  1.0000
  Se  Se3       1.0  0.7399507851612789  0.26004924193642126  0.26004922704878214  1.0000
  Se  Se4       1.0  0.26004924258595347  0.7399507521664156  0.7399507478065731  1.0000
  Se  Se5       1.0  0.26004929528578397  0.7399507544458034  0.26004918084075906  1.0000
  Se  Se6       1.0  0.7399507796287985  0.2600492000350027  0.7399507358330123  1.0000
