data_image0
_chemical_formula_structural       Bi2NiO6
_chemical_formula_sum              "Bi2 Ni1 O6"
_cell_length_a       5.293231983775899
_cell_length_b       5.293232105468204
_cell_length_c       5.2932321048840585
_cell_angle_alpha    59.99999814176918
_cell_angle_beta     59.999998474012074
_cell_angle_gamma    59.99999761708478

_space_group_name_H-M_alt    "P 1"
_space_group_IT_number       1

loop_
  _space_group_symop_operation_xyz
  'x, y, z'

loop_
  _atom_site_type_symbol
  _atom_site_label
  _atom_site_symmetry_multiplicity
  _atom_site_fract_x
  _atom_site_fract_y
  _atom_site_fract_z
  _atom_site_occupancy
  Bi  Bi1       1.0  0.24999991609240307  0.24999993898667147  0.2500000651389451  1.0000
  Bi  Bi2       1.0  0.7499999433915934  0.7500001478325561  0.7500002044688715  1.0000
  Ni  Ni1       1.0  0.9999999774782903  1.1337590825249813e-07  5.581431395594303e-09  1.0000
  O   O1        1.0  0.24004054090105545  0.24004052285140529  0.7599595002122368  1.0000
  O   O2        1.0  0.7599594661325587  0.759959376550507  0.24004045682936898  1.0000
  O   O3        1.0  0.759959598002021  0.24004056454787748  0.24004039515239584  1.0000
  O   O4        1.0  0.2400403868614593  0.7599595060747959  0.7599594628042305  1.0000
  O   O5        1.0  0.24004054235615313  0.75995952942029  0.24004042302095627  1.0000
  O   O6        1.0  0.7599596089415779  0.2400403167643561  0.759959511167683  1.0000
