data_image0
_chemical_formula_structural       Bi2NF6
_chemical_formula_sum              "Bi2 N1 F6"
_cell_length_a       5.177252674094291
_cell_length_b       5.177252747217518
_cell_length_c       5.177252726828274
_cell_angle_alpha    59.999999363699985
_cell_angle_beta     59.99999957844209
_cell_angle_gamma    60.00000021305498

_space_group_name_H-M_alt    "P 1"
_space_group_IT_number       1

loop_
  _space_group_symop_operation_xyz
  'x, y, z'

loop_
  _atom_site_type_symbol
  _atom_site_label
  _atom_site_symmetry_multiplicity
  _atom_site_fract_x
  _atom_site_fract_y
  _atom_site_fract_z
  _atom_site_occupancy
  Bi  Bi1       1.0  0.25000017118384266  0.24999983174880394  0.2500000001290584  1.0000
  Bi  Bi2       1.0  0.7499999523342318  0.7499998808436046  0.75000033350107  1.0000
  N   N1        1.0  1.0388139508676932e-06  2.223689515277369e-07  0.9999979941617942  1.0000
  F   F1        1.0  0.2508175097597487  0.25081760115615437  0.7491824107052462  1.0000
  F   F2        1.0  0.7491817297845011  0.7491818393891516  0.2508181088355011  1.0000
  F   F3        1.0  0.7491815972370637  0.25081845221458254  0.2508182750750371  1.0000
  F   F4        1.0  0.2508174981193336  0.7491825851289231  0.7491824800606437  1.0000
  F   F5        1.0  0.25081822700306666  0.7491818985373314  0.25081808959767155  1.0000
  F   F6        1.0  0.7491822651078  0.25081770523623587  0.7491823362710105  1.0000
