data_image0
_chemical_formula_structural       Bi2NiSe6
_chemical_formula_sum              "Bi2 Ni1 Se6"
_cell_length_a       6.583942969121811
_cell_length_b       6.583943345617596
_cell_length_c       6.583943135670532
_cell_angle_alpha    59.99999963920338
_cell_angle_beta     59.99999904937964
_cell_angle_gamma    59.99999907065412

_space_group_name_H-M_alt    "P 1"
_space_group_IT_number       1

loop_
  _space_group_symop_operation_xyz
  'x, y, z'

loop_
  _atom_site_type_symbol
  _atom_site_label
  _atom_site_symmetry_multiplicity
  _atom_site_fract_x
  _atom_site_fract_y
  _atom_site_fract_z
  _atom_site_occupancy
  Bi  Bi1       1.0  0.25000006309288353  0.2499998528616167  0.25000007895182486  1.0000
  Bi  Bi2       1.0  0.7499998563972998  0.7500002152353157  0.7499998592946856  1.0000
  Ni  Ni1       1.0  1.4668824530329198e-08  0.9999999665164065  4.585970452092788e-08  1.0000
  Se  Se1       1.0  0.2542185961244289  0.25421851908876386  0.7457814568198055  1.0000
  Se  Se2       1.0  0.7457814578258044  0.745781487621577  0.2542186013311814  1.0000
  Se  Se3       1.0  0.7457814443111326  0.25421846042041496  0.2542186056539028  1.0000
  Se  Se4       1.0  0.25421856921326497  0.7457815202471335  0.7457814113079126  1.0000
  Se  Se5       1.0  0.2542185125671823  0.7457814814192995  0.2542185440394714  1.0000
  Se  Se6       1.0  0.745781488680523  0.2542184992482504  0.7457814015995099  1.0000
