data_image0
_chemical_formula_structural       Bi2NiBr6
_chemical_formula_sum              "Bi2 Ni1 Br6"
_cell_length_a       7.17512988241571
_cell_length_b       7.17512987519728
_cell_length_c       7.1751298748429395
_cell_angle_alpha    59.999999905929954
_cell_angle_beta     59.99999969801568
_cell_angle_gamma    60.00000031294516

_space_group_name_H-M_alt    "P 1"
_space_group_IT_number       1

loop_
  _space_group_symop_operation_xyz
  'x, y, z'

loop_
  _atom_site_type_symbol
  _atom_site_label
  _atom_site_symmetry_multiplicity
  _atom_site_fract_x
  _atom_site_fract_y
  _atom_site_fract_z
  _atom_site_occupancy
  Bi  Bi1       1.0  0.24999999499329667  0.2500000091769932  0.25000000581909815  1.0000
  Bi  Bi2       1.0  0.7499999915314984  0.749999993392368  0.7500000145263602  1.0000
  Ni  Ni1       1.0  7.103836235738466e-09  0.9999999931722776  0.999999997074537  1.0000
  Br  Br1       1.0  0.24171698907114406  0.24171698855243332  0.7582829999670633  1.0000
  Br  Br2       1.0  0.7582830071095085  0.7582830140169278  0.24171698488900037  1.0000
  Br  Br3       1.0  0.7582829991861072  0.24171700465947482  0.24171699522205833  1.0000
  Br  Br4       1.0  0.2417169895978463  0.7582830200999839  0.7582830003554449  1.0000
  Br  Br5       1.0  0.24171700417748318  0.7582829961057742  0.2417169937637189  1.0000
  Br  Br6       1.0  0.7582830166309183  0.24171698085962814  0.7582830069111828  1.0000
