data_image0
_chemical_formula_structural       Bi2OsS6
_chemical_formula_sum              "Bi2 Os1 S6"
_cell_length_a       6.333623780593825
_cell_length_b       6.333623957391378
_cell_length_c       6.333623897198058
_cell_angle_alpha    60.000001289365045
_cell_angle_beta     60.000001243588464
_cell_angle_gamma    60.00000239551455

_space_group_name_H-M_alt    "P 1"
_space_group_IT_number       1

loop_
  _space_group_symop_operation_xyz
  'x, y, z'

loop_
  _atom_site_type_symbol
  _atom_site_label
  _atom_site_symmetry_multiplicity
  _atom_site_fract_x
  _atom_site_fract_y
  _atom_site_fract_z
  _atom_site_occupancy
  Bi  Bi1       1.0  0.24999989516628576  0.25000012629935914  0.24999988273061077  1.0000
  Bi  Bi2       1.0  0.7499998800303256  0.7499998335893455  0.7499999641003317  1.0000
  Os  Os1       1.0  4.3644472425841243e-08  5.8011567816524885e-09  0.9999998505460664  1.0000
  S   S1        1.0  0.26217957920013407  0.26217956812416204  0.7378205144843688  1.0000
  S   S2        1.0  0.7378204151572563  0.7378204671795848  0.2621796003027737  1.0000
  S   S3        1.0  0.737820556835402  0.2621795633253165  0.2621795618891396  1.0000
  S   S4        1.0  0.2621796928167934  0.7378203733587688  0.7378205235055569  1.0000
  S   S5        1.0  0.262179520147737  0.7378204217080927  0.26217962894035896  1.0000
  S   S6        1.0  0.7378204143592374  0.26217962906540465  0.737820498563866  1.0000
