data_image0
_chemical_formula_structural       Bi2PbBr6
_chemical_formula_sum              "Bi2 Pb1 Br6"
_cell_length_a       7.582058139608085
_cell_length_b       7.582058192607673
_cell_length_c       7.582058069000446
_cell_angle_alpha    59.999999917305715
_cell_angle_beta     60.000000760975475
_cell_angle_gamma    60.0000005275261

_space_group_name_H-M_alt    "P 1"
_space_group_IT_number       1

loop_
  _space_group_symop_operation_xyz
  'x, y, z'

loop_
  _atom_site_type_symbol
  _atom_site_label
  _atom_site_symmetry_multiplicity
  _atom_site_fract_x
  _atom_site_fract_y
  _atom_site_fract_z
  _atom_site_occupancy
  Bi  Bi1       1.0  0.2500000171110246  0.25000000332958555  0.24999999809906606  1.0000
  Bi  Bi2       1.0  0.7499999722168232  0.7500000326032339  0.749999982980991  1.0000
  Pb  Pb1       1.0  9.475455729662548e-09  3.553703489544753e-08  5.794684452506772e-08  1.0000
  Br  Br1       1.0  0.2628695502352456  0.2628694892820749  0.7371304787184104  1.0000
  Br  Br2       1.0  0.7371304492622794  0.7371304658847546  0.26286956403786566  1.0000
  Br  Br3       1.0  0.7371304985003346  0.2628694866536144  0.26286951424078964  1.0000
  Br  Br4       1.0  0.2628695761754473  0.7371304394374594  0.7371304474324994  1.0000
  Br  Br5       1.0  0.26286947897160096  0.7371305098212302  0.26286947955278894  1.0000
  Br  Br6       1.0  0.7371304511305734  0.2628695438801074  0.7371304655430116  1.0000
