data_image0
_chemical_formula_structural       Bi2PtBr6
_chemical_formula_sum              "Bi2 Pt1 Br6"
_cell_length_a       7.370861576397311
_cell_length_b       7.370861672881213
_cell_length_c       7.370861669878052
_cell_angle_alpha    59.99999952099898
_cell_angle_beta     60.000000020237536
_cell_angle_gamma    59.999998311413734

_space_group_name_H-M_alt    "P 1"
_space_group_IT_number       1

loop_
  _space_group_symop_operation_xyz
  'x, y, z'

loop_
  _atom_site_type_symbol
  _atom_site_label
  _atom_site_symmetry_multiplicity
  _atom_site_fract_x
  _atom_site_fract_y
  _atom_site_fract_z
  _atom_site_occupancy
  Bi  Bi1       1.0  0.2499999496479646  0.25000004259838876  0.2500000234575645  1.0000
  Bi  Bi2       1.0  0.7500000323146602  0.7499999865588741  0.7499999828274769  1.0000
  Pt  Pt1       1.0  3.5461046553087015e-08  2.990886007011083e-08  3.786310787007309e-08  1.0000
  Br  Br1       1.0  0.2393723357784513  0.23937238725694357  0.7606276601105898  1.0000
  Br  Br2       1.0  0.7606276379250704  0.7606275820825968  0.23937239784987957  1.0000
  Br  Br3       1.0  0.7606276894043892  0.23937231780373278  0.23937231080769458  1.0000
  Br  Br4       1.0  0.23937233794278773  0.7606276315965664  0.7606276394021048  1.0000
  Br  Br5       1.0  0.23937230384896807  0.7606276752513577  0.2393723171190226  1.0000
  Br  Br6       1.0  0.7606276740628288  0.23937234725949194  0.7606276321067391  1.0000
