data_image0
_chemical_formula_structural       Bi2PF6
_chemical_formula_sum              "Bi2 P1 F6"
_cell_length_a       6.985473835088283
_cell_length_b       6.985511677116678
_cell_length_c       6.985482960595676
_cell_angle_alpha    60.00001310500541
_cell_angle_beta     59.99982408723751
_cell_angle_gamma    59.99995813049324

_space_group_name_H-M_alt    "P 1"
_space_group_IT_number       1

loop_
  _space_group_symop_operation_xyz
  'x, y, z'

loop_
  _atom_site_type_symbol
  _atom_site_label
  _atom_site_symmetry_multiplicity
  _atom_site_fract_x
  _atom_site_fract_y
  _atom_site_fract_z
  _atom_site_occupancy
  Bi  Bi1       1.0  0.250016526643854  0.24999086767213552  0.24999599455251564  1.0000
  Bi  Bi2       1.0  0.7499987174976243  0.7500133594439262  0.7499848568529458  1.0000
  P   P1        1.0  0.9999981254979378  0.9999994792820482  2.4044007983630446e-06  1.0000
  F   F1        1.0  0.16538650478502284  0.16538233713678757  0.8346155544038545  1.0000
  F   F2        1.0  0.8346102814106532  0.8346154397359344  0.1653896200208635  1.0000
  F   F3        1.0  0.8346100642744645  0.1653833343832955  0.16539038792751926  1.0000
  F   F4        1.0  0.16538500655179503  0.8346155172419213  0.8346150982171404  1.0000
  F   F5        1.0  0.1653837647664585  0.8346153565025755  0.1653885139267031  1.0000
  F   F6        1.0  0.8346111523012398  0.16538421921962587  0.834617727777986  1.0000
