data_image0
_chemical_formula_structural       Bi2PtF6
_chemical_formula_sum              "Bi2 Pt1 F6"
_cell_length_a       5.598175442230219
_cell_length_b       5.598175624653482
_cell_length_c       5.598175259165781
_cell_angle_alpha    60.000001157850484
_cell_angle_beta     60.000000185612386
_cell_angle_gamma    60.00000214720255

_space_group_name_H-M_alt    "P 1"
_space_group_IT_number       1

loop_
  _space_group_symop_operation_xyz
  'x, y, z'

loop_
  _atom_site_type_symbol
  _atom_site_label
  _atom_site_symmetry_multiplicity
  _atom_site_fract_x
  _atom_site_fract_y
  _atom_site_fract_z
  _atom_site_occupancy
  Bi  Bi1       1.0  0.24999997488340459  0.2500001174340571  0.2500001093102268  1.0000
  Bi  Bi2       1.0  0.7500004483423369  0.7499996784729878  0.7500007674036661  1.0000
  Pt  Pt1       1.0  0.9999998920528659  1.4439196889833472e-07  0.9999997763535027  1.0000
  F   F1        1.0  0.2714410307437019  0.27144127745090924  0.7285588028597212  1.0000
  F   F2        1.0  0.7285588410035  0.7285587744237197  0.27144100335554466  1.0000
  F   F3        1.0  0.7285587858460937  0.2714413260136274  0.2714409638563675  1.0000
  F   F4        1.0  0.2714410087076915  0.7285587718039004  0.7285587793871182  1.0000
  F   F5        1.0  0.27144123672006426  0.728558725129043  0.271441076008725  1.0000
  F   F6        1.0  0.7285588041241391  0.2714411845413766  0.7285587042560703  1.0000
