data_image0
_chemical_formula_structural       Bi2PbF6
_chemical_formula_sum              "Bi2 Pb1 F6"
_cell_length_a       6.196315887726312
_cell_length_b       6.196315507503168
_cell_length_c       6.196315227370911
_cell_angle_alpha    60.00000152359978
_cell_angle_beta     59.99999737776239
_cell_angle_gamma    60.00000037734334

_space_group_name_H-M_alt    "P 1"
_space_group_IT_number       1

loop_
  _space_group_symop_operation_xyz
  'x, y, z'

loop_
  _atom_site_type_symbol
  _atom_site_label
  _atom_site_symmetry_multiplicity
  _atom_site_fract_x
  _atom_site_fract_y
  _atom_site_fract_z
  _atom_site_occupancy
  Bi  Bi1       1.0  0.2499999525383218  0.2500000488006059  0.2500000081538679  1.0000
  Bi  Bi2       1.0  0.7499999896865959  0.7499998005021506  0.750000184633074  1.0000
  Pb  Pb1       1.0  1.0974473427319633e-08  0.9999999782577362  5.057204111480782e-08  1.0000
  F   F1        1.0  0.25436423873904684  0.2543641897937939  0.7456357421166931  1.0000
  F   F2        1.0  0.7456358147096142  0.7456359184395678  0.25436400091964023  1.0000
  F   F3        1.0  0.7456357844281408  0.2543643520332836  0.25436413600307756  1.0000
  F   F4        1.0  0.25436421695477857  0.7456357502703724  0.7456357925756322  1.0000
  F   F5        1.0  0.25436428247520887  0.7456355667400378  0.25436423477299  1.0000
  F   F6        1.0  0.7456357930936199  0.25436439127404276  0.745635740154586  1.0000
