data_image0
_chemical_formula_structural       Bi2PBr6
_chemical_formula_sum              "Bi2 P1 Br6"
_cell_length_a       7.513808952988865
_cell_length_b       7.513809046245264
_cell_length_c       7.513808948646423
_cell_angle_alpha    60.00000032753825
_cell_angle_beta     60.00000033382015
_cell_angle_gamma    60.0000000268555

_space_group_name_H-M_alt    "P 1"
_space_group_IT_number       1

loop_
  _space_group_symop_operation_xyz
  'x, y, z'

loop_
  _atom_site_type_symbol
  _atom_site_label
  _atom_site_symmetry_multiplicity
  _atom_site_fract_x
  _atom_site_fract_y
  _atom_site_fract_z
  _atom_site_occupancy
  Bi  Bi1       1.0  0.24999994669408213  0.25000004266644577  0.25000002644009817  1.0000
  Bi  Bi2       1.0  0.7499999846347062  0.7499999617401522  0.7500000702104138  1.0000
  P   P1        1.0  1.5258497334416776e-08  3.259983998260201e-08  0.999999997364958  1.0000
  Br  Br1       1.0  0.2509366280849199  0.25093660229494225  0.7490633827315574  1.0000
  Br  Br2       1.0  0.7490633799279758  0.7490633564718793  0.2509365985805703  1.0000
  Br  Br3       1.0  0.7490633864994365  0.25093663486283996  0.2509366128734355  1.0000
  Br  Br4       1.0  0.2509366346918548  0.7490633581338138  0.7490633620360565  1.0000
  Br  Br5       1.0  0.25093663778292413  0.7490633625629532  0.25093661382708576  1.0000
  Br  Br6       1.0  0.7490633866523569  0.25093664836361257  0.7490633345248598  1.0000
