data_image0
_chemical_formula_structural       Bi2PbS6
_chemical_formula_sum              "Bi2 Pb1 S6"
_cell_length_a       6.5635603865568815
_cell_length_b       6.563560214592351
_cell_length_c       6.56356059953217
_cell_angle_alpha    60.00000003648073
_cell_angle_beta     60.00000046499891
_cell_angle_gamma    59.999999975988004

_space_group_name_H-M_alt    "P 1"
_space_group_IT_number       1

loop_
  _space_group_symop_operation_xyz
  'x, y, z'

loop_
  _atom_site_type_symbol
  _atom_site_label
  _atom_site_symmetry_multiplicity
  _atom_site_fract_x
  _atom_site_fract_y
  _atom_site_fract_z
  _atom_site_occupancy
  Bi  Bi1       1.0  0.24999993470819215  0.25000044480676087  0.24999995099273054  1.0000
  Bi  Bi2       1.0  0.7500001648800128  0.7500002521539374  0.749999645444526  1.0000
  Pb  Pb1       1.0  3.2520404955952906e-08  0.9999999552165647  0.9999999619481793  1.0000
  S   S1        1.0  0.27436449014986775  0.2743645971711804  0.7256355261650601  1.0000
  S   S2        1.0  0.7256355205457975  0.7256353795226139  0.27436466682088145  1.0000
  S   S3        1.0  0.7256353730680659  0.2743644849387417  0.2743645542978119  1.0000
  S   S4        1.0  0.2743644799193862  0.7256353051574048  0.7256356264898969  1.0000
  S   S5        1.0  0.27436442132810773  0.7256352435559539  0.2743646691127384  1.0000
  S   S6        1.0  0.7256355881481656  0.2743643356848528  0.7256354017375322  1.0000
