data_image0
_chemical_formula_structural       Bi2PtSe6
_chemical_formula_sum              "Bi2 Pt1 Se6"
_cell_length_a       6.724319388615804
_cell_length_b       6.724319678643078
_cell_length_c       6.724319467690267
_cell_angle_alpha    60.00000105436395
_cell_angle_beta     59.99999962100333
_cell_angle_gamma    60.00000011233136

_space_group_name_H-M_alt    "P 1"
_space_group_IT_number       1

loop_
  _space_group_symop_operation_xyz
  'x, y, z'

loop_
  _atom_site_type_symbol
  _atom_site_label
  _atom_site_symmetry_multiplicity
  _atom_site_fract_x
  _atom_site_fract_y
  _atom_site_fract_z
  _atom_site_occupancy
  Bi  Bi1       1.0  0.24999997945499824  0.25000003974835555  0.24999998987675986  1.0000
  Bi  Bi2       1.0  0.7499999387816573  0.7500000973886726  0.7500000948598744  1.0000
  Pt  Pt1       1.0  0.9999999992024183  0.9999999817863381  6.531343111852141e-09  1.0000
  Se  Se1       1.0  0.2580515825464597  0.2580514636659517  0.7419484772891641  1.0000
  Se  Se2       1.0  0.7419484542663974  0.7419485186549483  0.25805145603354873  1.0000
  Se  Se3       1.0  0.7419485058833973  0.2580514668938954  0.2580515108799326  1.0000
  Se  Se4       1.0  0.2580515539822275  0.7419484771783141  0.7419484954748726  1.0000
  Se  Se5       1.0  0.2580515213130207  0.7419485080687743  0.2580514751661033  1.0000
  Se  Se6       1.0  0.7419484633945674  0.2580514451102671  0.7419484958058948  1.0000
