data_image0
_chemical_formula_structural       Bi2PdS6
_chemical_formula_sum              "Bi2 Pd1 S6"
_cell_length_a       6.351406539065308
_cell_length_b       6.351406933459606
_cell_length_c       6.35140762576447
_cell_angle_alpha    59.99999498637381
_cell_angle_beta     59.9999959365614
_cell_angle_gamma    59.99999582393662

_space_group_name_H-M_alt    "P 1"
_space_group_IT_number       1

loop_
  _space_group_symop_operation_xyz
  'x, y, z'

loop_
  _atom_site_type_symbol
  _atom_site_label
  _atom_site_symmetry_multiplicity
  _atom_site_fract_x
  _atom_site_fract_y
  _atom_site_fract_z
  _atom_site_occupancy
  Bi  Bi1       1.0  0.24999992815748728  0.24999980309407305  0.2500001531699065  1.0000
  Bi  Bi2       1.0  0.7500000415192258  0.7500000398379343  0.7499997197110988  1.0000
  Pd  Pd1       1.0  1.29278061792042e-08  2.12113537323805e-08  0.999999995526053  1.0000
  S   S1        1.0  0.26304254580778286  0.26304265356143386  0.7369573982079518  1.0000
  S   S2        1.0  0.736957438261755  0.7369574516200362  0.2630427110719913  1.0000
  S   S3        1.0  0.7369574574490703  0.26304250137438606  0.2630426096097099  1.0000
  S   S4        1.0  0.2630425935975767  0.7369573646972729  0.7369574723758897  1.0000
  S   S5        1.0  0.2630424509216109  0.7369574426107  0.2630426236228022  1.0000
  S   S6        1.0  0.736957524331887  0.26304274355958085  0.7369573094443366  1.0000
