data_image0
_chemical_formula_structural       Bi2PdF6
_chemical_formula_sum              "Bi2 Pd1 F6"
_cell_length_a       5.528801583481592
_cell_length_b       5.528801477911505
_cell_length_c       5.528801580492161
_cell_angle_alpha    59.99999785468762
_cell_angle_beta     59.99999798188655
_cell_angle_gamma    59.99999898400717

_space_group_name_H-M_alt    "P 1"
_space_group_IT_number       1

loop_
  _space_group_symop_operation_xyz
  'x, y, z'

loop_
  _atom_site_type_symbol
  _atom_site_label
  _atom_site_symmetry_multiplicity
  _atom_site_fract_x
  _atom_site_fract_y
  _atom_site_fract_z
  _atom_site_occupancy
  Bi  Bi1       1.0  0.25000009462755546  0.24999987941692364  0.2500000405582995  1.0000
  Bi  Bi2       1.0  0.750000103991205  0.749999908506224  0.7500004328088185  1.0000
  Pd  Pd1       1.0  0.9999999048764473  5.981063263259907e-08  9.362229061804901e-08  1.0000
  F   F1        1.0  0.2674930708403229  0.26749312285332655  0.7325068397820489  1.0000
  F   F2        1.0  0.7325069097868984  0.7325069619077886  0.2674928489732382  1.0000
  F   F3        1.0  0.7325068211658099  0.26749321080069427  0.2674930417416345  1.0000
  F   F4        1.0  0.267493079254343  0.7325068451627069  0.7325067630121931  1.0000
  F   F5        1.0  0.26749323642411565  0.7325068784564324  0.26749305812741797  1.0000
  F   F6        1.0  0.7325067792663705  0.2674931199115428  0.7325068588683534  1.0000
