data_image0
_chemical_formula_structural       Bi2PS6
_chemical_formula_sum              "Bi2 P1 S6"
_cell_length_a       6.384481361061168
_cell_length_b       6.384481244211576
_cell_length_c       6.384481382882591
_cell_angle_alpha    59.999999164988736
_cell_angle_beta     60.0000000783558
_cell_angle_gamma    59.999999760381165

_space_group_name_H-M_alt    "P 1"
_space_group_IT_number       1

loop_
  _space_group_symop_operation_xyz
  'x, y, z'

loop_
  _atom_site_type_symbol
  _atom_site_label
  _atom_site_symmetry_multiplicity
  _atom_site_fract_x
  _atom_site_fract_y
  _atom_site_fract_z
  _atom_site_occupancy
  Bi  Bi1       1.0  0.24999992896066156  0.24999981929450624  0.250000175909715  1.0000
  Bi  Bi2       1.0  0.7499998474118883  0.7500002041082191  0.7499998800093649  1.0000
  P   P1        1.0  4.5854565122261754e-08  0.9999999980816848  0.9999999498385123  1.0000
  S   S1        1.0  0.24243438024258318  0.24243420089267867  0.7575657232147832  1.0000
  S   S2        1.0  0.7575657172592803  0.7575657381041696  0.2424343224171363  1.0000
  S   S3        1.0  0.7575656837915142  0.2424342559440028  0.2424343300179783  1.0000
  S   S4        1.0  0.24243432523282746  0.7575658019884014  0.7575656392993043  1.0000
  S   S5        1.0  0.24243428945263978  0.7575657435736629  0.24243427747485957  1.0000
  S   S6        1.0  0.7575657704697115  0.24243423762612468  0.7575656953619393  1.0000
