data_image0
_chemical_formula_structural       Bi2PtO6
_chemical_formula_sum              "Bi2 Pt1 O6"
_cell_length_a       5.422923858528085
_cell_length_b       5.422924008906819
_cell_length_c       5.422923901929782
_cell_angle_alpha    59.9999978256618
_cell_angle_beta     59.999997830638236
_cell_angle_gamma    59.999998834867846

_space_group_name_H-M_alt    "P 1"
_space_group_IT_number       1

loop_
  _space_group_symop_operation_xyz
  'x, y, z'

loop_
  _atom_site_type_symbol
  _atom_site_label
  _atom_site_symmetry_multiplicity
  _atom_site_fract_x
  _atom_site_fract_y
  _atom_site_fract_z
  _atom_site_occupancy
  Bi  Bi1       1.0  0.24999993627383071  0.2500000329665044  0.2500000615830243  1.0000
  Bi  Bi2       1.0  0.7500000136656435  0.7500000017858031  0.7499998671884676  1.0000
  Pt  Pt1       1.0  0.9999999764485892  6.775374653728579e-09  4.71125151879376e-08  1.0000
  O   O1        1.0  0.2575404987399472  0.2575405324838038  0.7424594748230415  1.0000
  O   O2        1.0  0.7424595387811158  0.7424594503239548  0.2575405449273264  1.0000
  O   O3        1.0  0.742459473822686  0.2575405398049041  0.25754058318882617  1.0000
  O   O4        1.0  0.2575405882609337  0.7424594204182695  0.7424594208203666  1.0000
  O   O5        1.0  0.25754053491964596  0.7424594550527676  0.25754058241633443  1.0000
  O   O6        1.0  0.7424594356891231  0.25754057518262075  0.7424594231040579  1.0000
