data_image0
_chemical_formula_structural       Bi2PdI6
_chemical_formula_sum              "Bi2 Pd1 I6"
_cell_length_a       7.738537131420638
_cell_length_b       7.738537220385439
_cell_length_c       7.738537305625153
_cell_angle_alpha    60.000000444250766
_cell_angle_beta     60.000000061557124
_cell_angle_gamma    60.00000014097055

_space_group_name_H-M_alt    "P 1"
_space_group_IT_number       1

loop_
  _space_group_symop_operation_xyz
  'x, y, z'

loop_
  _atom_site_type_symbol
  _atom_site_label
  _atom_site_symmetry_multiplicity
  _atom_site_fract_x
  _atom_site_fract_y
  _atom_site_fract_z
  _atom_site_occupancy
  Bi  Bi1       1.0  0.24999997594888634  0.2500000063962513  0.25000003348300814  1.0000
  Bi  Bi2       1.0  0.7499999798001289  0.7500000334326643  0.7499999575104559  1.0000
  Pd  Pd1       1.0  0.9999999907161461  0.9999999651815508  1.1379975597621009e-07  1.0000
  I   I1        1.0  0.24937016236454787  0.24937017851868842  0.7506298215369751  1.0000
  I   I2        1.0  0.7506298749403197  0.750629835987718  0.24937016460002753  1.0000
  I   I3        1.0  0.7506298807472095  0.24937009783464478  0.24937013947628636  1.0000
  I   I4        1.0  0.24937018197068056  0.7506298359562639  0.7506298264993003  1.0000
  I   I5        1.0  0.2493700951644505  0.7506298692895486  0.24937012587355697  1.0000
  I   I6        1.0  0.7506298604940509  0.2493701752873372  0.7506298188552277  1.0000
