data_image0
_chemical_formula_structural       Bi2PdO6
_chemical_formula_sum              "Bi2 Pd1 O6"
_cell_length_a       5.396556621236414
_cell_length_b       5.396556537621411
_cell_length_c       5.396556562534885
_cell_angle_alpha    59.9999999658616
_cell_angle_beta     60.00000021638585
_cell_angle_gamma    60.000001229029806

_space_group_name_H-M_alt    "P 1"
_space_group_IT_number       1

loop_
  _space_group_symop_operation_xyz
  'x, y, z'

loop_
  _atom_site_type_symbol
  _atom_site_label
  _atom_site_symmetry_multiplicity
  _atom_site_fract_x
  _atom_site_fract_y
  _atom_site_fract_z
  _atom_site_occupancy
  Bi  Bi1       1.0  0.25000017299150973  0.2500001880922066  0.24999977285046218  1.0000
  Bi  Bi2       1.0  0.7499999463477631  0.7499998108048489  0.7500001224311994  1.0000
  Pd  Pd1       1.0  2.334390354762535e-08  0.9999998978728039  5.0509847101318516e-08  1.0000
  O   O1        1.0  0.2559184329206999  0.2559185645736048  0.7440815155592996  1.0000
  O   O2        1.0  0.7440815432738097  0.7440814978692596  0.2559184843780114  1.0000
  O   O3        1.0  0.7440813601008808  0.2559186130785281  0.255918555097635  1.0000
  O   O4        1.0  0.25591863513586616  0.7440813858185253  0.7440814448550609  1.0000
  O   O5        1.0  0.2559185758474478  0.7440814053231728  0.25591853909745355  1.0000
  O   O6        1.0  0.7440813230805878  0.25591863215526456  0.7440815045431742  1.0000
