data_image0
_chemical_formula_structural       Bi2PtI6
_chemical_formula_sum              "Bi2 Pt1 I6"
_cell_length_a       7.762474564526213
_cell_length_b       7.76247462070599
_cell_length_c       7.762474502411782
_cell_angle_alpha    60.000000553356614
_cell_angle_beta     60.0000002926009
_cell_angle_gamma    59.99999997974896

_space_group_name_H-M_alt    "P 1"
_space_group_IT_number       1

loop_
  _space_group_symop_operation_xyz
  'x, y, z'

loop_
  _atom_site_type_symbol
  _atom_site_label
  _atom_site_symmetry_multiplicity
  _atom_site_fract_x
  _atom_site_fract_y
  _atom_site_fract_z
  _atom_site_occupancy
  Bi  Bi1       1.0  0.2500000140339813  0.25000002338843413  0.24999997483795655  1.0000
  Bi  Bi2       1.0  0.7499999995356027  0.749999988120934  0.7500000048547104  1.0000
  Pt  Pt1       1.0  0.9999999691973132  3.155552819323923e-09  4.474154296386333e-08  1.0000
  I   I1        1.0  0.24661286279042804  0.2466128755148036  0.7533871255274738  1.0000
  I   I2        1.0  0.7533871528828577  0.7533871296834593  0.2466128652866377  1.0000
  I   I3        1.0  0.7533871566737552  0.24661286799303794  0.24661281971454302  1.0000
  I   I4        1.0  0.24661287581366304  0.7533871135385801  0.7533871500490938  1.0000
  I   I5        1.0  0.2466128513308517  0.7533871196201939  0.2466128530954152  1.0000
  I   I6        1.0  0.7533871267181984  0.24661288242251658  0.7533871555320926  1.0000
