data_image0
_chemical_formula_structural       Bi2PbO6
_chemical_formula_sum              "Bi2 Pb1 O6"
_cell_length_a       5.645495224786279
_cell_length_b       5.645495262393622
_cell_length_c       5.645495300560879
_cell_angle_alpha    59.99999978066064
_cell_angle_beta     60.000000107267304
_cell_angle_gamma    60.00000034415489

_space_group_name_H-M_alt    "P 1"
_space_group_IT_number       1

loop_
  _space_group_symop_operation_xyz
  'x, y, z'

loop_
  _atom_site_type_symbol
  _atom_site_label
  _atom_site_symmetry_multiplicity
  _atom_site_fract_x
  _atom_site_fract_y
  _atom_site_fract_z
  _atom_site_occupancy
  Bi  Bi1       1.0  0.250000001296495  0.2499998623205879  0.2500000497069008  1.0000
  Bi  Bi2       1.0  0.7499999663640565  0.7499999817961515  0.7500000236059358  1.0000
  Pb  Pb1       1.0  0.9999999835344281  0.9999999696281238  8.541505582769449e-08  1.0000
  O   O1        1.0  0.256462337268964  0.25646227412416334  0.74353770059487  1.0000
  O   O2        1.0  0.7435376626385156  0.7435377739180291  0.25646233434134585  1.0000
  O   O3        1.0  0.7435376977355687  0.2564623610257273  0.2564622985768316  1.0000
  O   O4        1.0  0.25646239218853273  0.7435376501363306  0.7435376247676002  1.0000
  O   O5        1.0  0.2564623489261596  0.7435377227180598  0.2564622883506246  1.0000
  O   O6        1.0  0.7435376050938663  0.25646240776208196  0.7435375830617943  1.0000
