data_image0
_chemical_formula_structural       Bi2RhO6
_chemical_formula_sum              "Bi2 Rh1 O6"
_cell_length_a       5.422093478824827
_cell_length_b       5.422093550004731
_cell_length_c       5.422093461094177
_cell_angle_alpha    59.9999995205606
_cell_angle_beta     60.0000005078197
_cell_angle_gamma    59.99999905141166

_space_group_name_H-M_alt    "P 1"
_space_group_IT_number       1

loop_
  _space_group_symop_operation_xyz
  'x, y, z'

loop_
  _atom_site_type_symbol
  _atom_site_label
  _atom_site_symmetry_multiplicity
  _atom_site_fract_x
  _atom_site_fract_y
  _atom_site_fract_z
  _atom_site_occupancy
  Bi  Bi1       1.0  0.24999988693403305  0.24999996526098442  0.25000011873362027  1.0000
  Bi  Bi2       1.0  0.750000172686294  0.7499998551244668  0.7500002146476195  1.0000
  Rh  Rh1       1.0  0.999999976164452  5.8728914777835783e-08  0.9999999917748466  1.0000
  O   O1        1.0  0.2529095541587611  0.2529096646851396  0.747090398408474  1.0000
  O   O2        1.0  0.7470904257796539  0.747090388357172  0.2529094508936432  1.0000
  O   O3        1.0  0.7470904921987813  0.2529096487060669  0.2529094636485624  1.0000
  O   O4        1.0  0.252909442995423  0.7470904427359203  0.7470903777599852  1.0000
  O   O5        1.0  0.252909595860856  0.7470903678899554  0.2529095948684826  1.0000
  O   O6        1.0  0.7470905022623578  0.2529095925413732  0.7470903135746652  1.0000
