data_image0
_chemical_formula_structural       Bi2RuI6
_chemical_formula_sum              "Bi2 Ru1 I6"
_cell_length_a       7.742613890560365
_cell_length_b       7.742613901368572
_cell_length_c       7.742613864264024
_cell_angle_alpha    60.00000002619358
_cell_angle_beta     59.999998975226674
_cell_angle_gamma    60.00000046989483

_space_group_name_H-M_alt    "P 1"
_space_group_IT_number       1

loop_
  _space_group_symop_operation_xyz
  'x, y, z'

loop_
  _atom_site_type_symbol
  _atom_site_label
  _atom_site_symmetry_multiplicity
  _atom_site_fract_x
  _atom_site_fract_y
  _atom_site_fract_z
  _atom_site_occupancy
  Bi  Bi1       1.0  0.25000002317545555  0.2499999966461828  0.249999991290005  1.0000
  Bi  Bi2       1.0  0.749999990484418  0.749999989938548  0.7500000056416694  1.0000
  Ru  Ru1       1.0  3.173979498997922e-08  3.005464690071059e-08  0.9999999962254021  1.0000
  I   I1        1.0  0.24622310691259736  0.24622310492522828  0.7537769027921069  1.0000
  I   I2        1.0  0.7537768614043312  0.7537768610957964  0.24622314129998177  1.0000
  I   I3        1.0  0.7537769000472178  0.24622310611183093  0.2462231173327234  1.0000
  I   I4        1.0  0.24622313054486342  0.7537768788910763  0.7537768615913308  1.0000
  I   I5        1.0  0.24622311753659992  0.7537768727261113  0.24622314592529806  1.0000
  I   I6        1.0  0.7537768385470286  0.24622316131332417  0.7537768366938445  1.0000
