data_image0
_chemical_formula_structural       Bi2ReO6
_chemical_formula_sum              "Bi2 Re1 O6"
_cell_length_a       5.5022523197905215
_cell_length_b       5.502252217475698
_cell_length_c       5.502252553258654
_cell_angle_alpha    59.9999992574353
_cell_angle_beta     59.99999857922672
_cell_angle_gamma    59.99999894266445

_space_group_name_H-M_alt    "P 1"
_space_group_IT_number       1

loop_
  _space_group_symop_operation_xyz
  'x, y, z'

loop_
  _atom_site_type_symbol
  _atom_site_label
  _atom_site_symmetry_multiplicity
  _atom_site_fract_x
  _atom_site_fract_y
  _atom_site_fract_z
  _atom_site_occupancy
  Bi  Bi1       1.0  0.2500000106752603  0.24999996900490407  0.250000004064088  1.0000
  Bi  Bi2       1.0  0.7500001311034806  0.7499999938247084  0.7499997938452309  1.0000
  Re  Re1       1.0  4.171732035127286e-08  1.3355384937989902e-08  1.9717021889221174e-08  1.0000
  O   O1        1.0  0.24379598098674143  0.24379598624801901  0.7562039635869832  1.0000
  O   O2        1.0  0.7562039489791814  0.7562041524274897  0.24379601769260886  1.0000
  O   O3        1.0  0.756203929462118  0.24379599060540388  0.24379612035052242  1.0000
  O   O4        1.0  0.24379599459366855  0.756203907673188  0.7562040422405931  1.0000
  O   O5        1.0  0.24379597285043572  0.756203891323364  0.24379614421863993  1.0000
  O   O6        1.0  0.7562039995566804  0.24379607595804625  0.7562039251640901  1.0000
