data_image0
_chemical_formula_structural       Bi2RuSe6
_chemical_formula_sum              "Bi2 Ru1 Se6"
_cell_length_a       6.70748253339394
_cell_length_b       6.707482489116756
_cell_length_c       6.707482296884337
_cell_angle_alpha    60.000001338648005
_cell_angle_beta     60.000001247649536
_cell_angle_gamma    60.000001414657525

_space_group_name_H-M_alt    "P 1"
_space_group_IT_number       1

loop_
  _space_group_symop_operation_xyz
  'x, y, z'

loop_
  _atom_site_type_symbol
  _atom_site_label
  _atom_site_symmetry_multiplicity
  _atom_site_fract_x
  _atom_site_fract_y
  _atom_site_fract_z
  _atom_site_occupancy
  Bi  Bi1       1.0  0.24999991225254792  0.24999991431418164  0.25000006696816257  1.0000
  Bi  Bi2       1.0  0.7500000541719243  0.7500000095295252  0.7499999536300294  1.0000
  Ru  Ru1       1.0  2.9561052319830806e-08  1.4607505698774468e-08  0.9999999421347843  1.0000
  Se  Se1       1.0  0.2568102220517258  0.25681018387668353  0.743189823760904  1.0000
  Se  Se2       1.0  0.7431897812703118  0.7431898513492542  0.2568101793505401  1.0000
  Se  Se3       1.0  0.7431898221061998  0.25681016452827227  0.2568102394139783  1.0000
  Se  Se4       1.0  0.2568101700185942  0.743189795834199  0.7431898067278205  1.0000
  Se  Se5       1.0  0.25681015731604984  0.7431898120892196  0.2568102357478897  1.0000
  Se  Se6       1.0  0.7431898558129184  0.2568102505257911  0.7431897442929355  1.0000
