data_image0
_chemical_formula_structural       Bi2RuBr6
_chemical_formula_sum              "Bi2 Ru1 Br6"
_cell_length_a       7.377229365522635
_cell_length_b       7.377229282729008
_cell_length_c       7.377229461028309
_cell_angle_alpha    59.99999943283322
_cell_angle_beta     60.00000011837429
_cell_angle_gamma    60.0000004751919

_space_group_name_H-M_alt    "P 1"
_space_group_IT_number       1

loop_
  _space_group_symop_operation_xyz
  'x, y, z'

loop_
  _atom_site_type_symbol
  _atom_site_label
  _atom_site_symmetry_multiplicity
  _atom_site_fract_x
  _atom_site_fract_y
  _atom_site_fract_z
  _atom_site_occupancy
  Bi  Bi1       1.0  0.25000004454754254  0.24999989918402285  0.25000005800223535  1.0000
  Bi  Bi2       1.0  0.7500000160717479  0.7500000080037057  0.7499999203257255  1.0000
  Ru  Ru1       1.0  0.9999999975965479  1.6601691886186608e-08  0.9999999983229698  1.0000
  Br  Br1       1.0  0.23942112955444508  0.23942125478853724  0.7605788118096285  1.0000
  Br  Br2       1.0  0.7605788467462204  0.760578778572049  0.2394212025231578  1.0000
  Br  Br3       1.0  0.7605787850714496  0.2394212302203514  0.23942120123709762  1.0000
  Br  Br4       1.0  0.23942120974333597  0.7605787898588814  0.7605787996351259  1.0000
  Br  Br5       1.0  0.23942117052915707  0.7605787580195329  0.23942124743733886  1.0000
  Br  Br6       1.0  0.7605788012657341  0.2394212653800382  0.7605787605736178  1.0000
