data_image0
_chemical_formula_structural       Bi2RhI6
_chemical_formula_sum              "Bi2 Rh1 I6"
_cell_length_a       7.741546430196737
_cell_length_b       7.74154634748132
_cell_length_c       7.741546490270959
_cell_angle_alpha    59.99999983077198
_cell_angle_beta     59.99999928852414
_cell_angle_gamma    60.00000074486248

_space_group_name_H-M_alt    "P 1"
_space_group_IT_number       1

loop_
  _space_group_symop_operation_xyz
  'x, y, z'

loop_
  _atom_site_type_symbol
  _atom_site_label
  _atom_site_symmetry_multiplicity
  _atom_site_fract_x
  _atom_site_fract_y
  _atom_site_fract_z
  _atom_site_occupancy
  Bi  Bi1       1.0  0.24999995126369676  0.25000004863733843  0.2499999748170232  1.0000
  Bi  Bi2       1.0  0.7500000260473415  0.749999951320896  0.7500000376652963  1.0000
  Rh  Rh1       1.0  0.9999999877960596  1.4238374539130373e-08  0.9999999873571989  1.0000
  I   I1        1.0  0.24495126979593718  0.24495131566395803  0.7550487162515082  1.0000
  I   I2        1.0  0.7550487312146781  0.7550486668918188  0.2449512917905198  1.0000
  I   I3        1.0  0.755048689644373  0.24495132361906277  0.24495130813162175  1.0000
  I   I4        1.0  0.2449513325040384  0.7550486715930472  0.7550486726794889  1.0000
  I   I5        1.0  0.24495134800668994  0.7550486634207011  0.24495133704549035  1.0000
  I   I6        1.0  0.7550486624651278  0.2449513444477422  0.7550486781525033  1.0000
