data_image0
_chemical_formula_structural       Bi2ReSe6
_chemical_formula_sum              "Bi2 Re1 Se6"
_cell_length_a       6.782709287846091
_cell_length_b       6.782709512696042
_cell_length_c       6.7827095552832715
_cell_angle_alpha    59.999999998473264
_cell_angle_beta     59.99999895679568
_cell_angle_gamma    60.000000516843436

_space_group_name_H-M_alt    "P 1"
_space_group_IT_number       1

loop_
  _space_group_symop_operation_xyz
  'x, y, z'

loop_
  _atom_site_type_symbol
  _atom_site_label
  _atom_site_symmetry_multiplicity
  _atom_site_fract_x
  _atom_site_fract_y
  _atom_site_fract_z
  _atom_site_occupancy
  Bi  Bi1       1.0  0.250000079924741  0.2499999613709164  0.24999995699334604  1.0000
  Bi  Bi2       1.0  0.7499999306540163  0.7500000249563145  0.7500000583219519  1.0000
  Re  Re1       1.0  0.9999999947039262  0.9999999801374458  0.9999999801438989  1.0000
  Se  Se1       1.0  0.25519375998821436  0.25519370577797773  0.74480626134183  1.0000
  Se  Se2       1.0  0.7448062402550492  0.744806316662988  0.2551936924312249  1.0000
  Se  Se3       1.0  0.7448062400383612  0.2551937459671001  0.25519375234581637  1.0000
  Se  Se4       1.0  0.2551937337746499  0.7448062638340585  0.7448062814100875  1.0000
  Se  Se5       1.0  0.2551937883880306  0.7448062595614201  0.25519373296526116  1.0000
  Se  Se6       1.0  0.7448062343997409  0.2551937412113047  0.744806277868805  1.0000
