data_image0
_chemical_formula_structural       Bi2ReTe6
_chemical_formula_sum              "Bi2 Re1 Te6"
_cell_length_a       7.24677330603001
_cell_length_b       7.2467733663180365
_cell_length_c       7.246773357585973
_cell_angle_alpha    59.99999741691062
_cell_angle_beta     59.99999913475489
_cell_angle_gamma    60.00000020116326

_space_group_name_H-M_alt    "P 1"
_space_group_IT_number       1

loop_
  _space_group_symop_operation_xyz
  'x, y, z'

loop_
  _atom_site_type_symbol
  _atom_site_label
  _atom_site_symmetry_multiplicity
  _atom_site_fract_x
  _atom_site_fract_y
  _atom_site_fract_z
  _atom_site_occupancy
  Bi  Bi1       1.0  0.25000015375335205  0.24999996060665802  0.24999997547857988  1.0000
  Bi  Bi2       1.0  0.7499999881776882  0.7500000964570107  0.7500000597981767  1.0000
  Re  Re1       1.0  0.999999968502049  8.450275990758597e-09  4.1882176189787705e-08  1.0000
  Te  Te1       1.0  0.2582600542804262  0.2582599174202288  0.7417400136535708  1.0000
  Te  Te2       1.0  0.7417399761458104  0.7417400821815566  0.25825993361597027  1.0000
  Te  Te3       1.0  0.7417398737098486  0.2582600843553294  0.2582600432101975  1.0000
  Te  Te4       1.0  0.25826002728098296  0.7417399067961784  0.7417399122855083  1.0000
  Te  Te5       1.0  0.25826005866271023  0.7417399031208004  0.2582601044448016  1.0000
  Te  Te6       1.0  0.7417398966169457  0.2582600542295966  0.7417399125631209  1.0000
