data_image0
_chemical_formula_structural       Bi2RuCl6
_chemical_formula_sum              "Bi2 Ru1 Cl6"
_cell_length_a       7.107305951899696
_cell_length_b       7.107306860657927
_cell_length_c       7.107307018258245
_cell_angle_alpha    59.999995575143174
_cell_angle_beta     59.99999383451328
_cell_angle_gamma    59.999998521859766

_space_group_name_H-M_alt    "P 1"
_space_group_IT_number       1

loop_
  _space_group_symop_operation_xyz
  'x, y, z'

loop_
  _atom_site_type_symbol
  _atom_site_label
  _atom_site_symmetry_multiplicity
  _atom_site_fract_x
  _atom_site_fract_y
  _atom_site_fract_z
  _atom_site_occupancy
  Bi  Bi1       1.0  0.24999985434493552  0.25000036504342266  0.2499999051014785  1.0000
  Bi  Bi2       1.0  0.7500002213437773  0.7499997148315212  0.7500002338836559  1.0000
  Ru  Ru1       1.0  0.9999999613543691  0.9999998966068353  9.493844651660906e-08  1.0000
  Cl  Cl1       1.0  0.2353703923925917  0.23537036712346548  0.764629490779952  1.0000
  Cl  Cl2       1.0  0.7646296818516511  0.7646297317069114  0.2353701188587099  1.0000
  Cl  Cl3       1.0  0.7646295848318844  0.23537041278798557  0.23537044607528512  1.0000
  Cl  Cl4       1.0  0.23537037660934013  0.7646294103272733  0.7646297461551924  1.0000
  Cl  Cl5       1.0  0.2353703255154313  0.764629573097263  0.23537043637797564  1.0000
  Cl  Cl6       1.0  0.7646295964859587  0.23537052917954326  0.764629513582405  1.0000
