data_image0
_chemical_formula_structural       Bi2RhS6
_chemical_formula_sum              "Bi2 Rh1 S6"
_cell_length_a       6.381570048837899
_cell_length_b       6.38156926211847
_cell_length_c       6.381570354320364
_cell_angle_alpha    59.999998516899254
_cell_angle_beta     60.00000218632729
_cell_angle_gamma    59.99999563798044

_space_group_name_H-M_alt    "P 1"
_space_group_IT_number       1

loop_
  _space_group_symop_operation_xyz
  'x, y, z'

loop_
  _atom_site_type_symbol
  _atom_site_label
  _atom_site_symmetry_multiplicity
  _atom_site_fract_x
  _atom_site_fract_y
  _atom_site_fract_z
  _atom_site_occupancy
  Bi  Bi1       1.0  0.24999990531530764  0.24999984681625786  0.25000028669571955  1.0000
  Bi  Bi2       1.0  0.7499998470555562  0.750000129640339  0.749999967152359  1.0000
  Rh  Rh1       1.0  1.0746819120434384e-08  5.757571122088718e-09  0.9999999572735322  1.0000
  S   S1        1.0  0.25793673954245655  0.25793684386494425  0.7420631525978321  1.0000
  S   S2        1.0  0.7420632705890667  0.7420631844097948  0.25793680542973685  1.0000
  S   S3        1.0  0.7420633279235577  0.2579367656731511  0.2579367600290201  1.0000
  S   S4        1.0  0.25793671103025334  0.7420633009854046  0.742063187900685  1.0000
  S   S5        1.0  0.2579368859648414  0.742063263838593  0.25793662372991333  1.0000
  S   S6        1.0  0.7420632862126456  0.25793667999174424  0.7420632500535165  1.0000
