data_image0
_chemical_formula_structural       Bi2RhBr6
_chemical_formula_sum              "Bi2 Rh1 Br6"
_cell_length_a       7.329150556472104
_cell_length_b       7.3291506829267075
_cell_length_c       7.3291505617352035
_cell_angle_alpha    60.000000350040786
_cell_angle_beta     59.999999863138704
_cell_angle_gamma    60.0000001066445

_space_group_name_H-M_alt    "P 1"
_space_group_IT_number       1

loop_
  _space_group_symop_operation_xyz
  'x, y, z'

loop_
  _atom_site_type_symbol
  _atom_site_label
  _atom_site_symmetry_multiplicity
  _atom_site_fract_x
  _atom_site_fract_y
  _atom_site_fract_z
  _atom_site_occupancy
  Bi  Bi1       1.0  0.24999999662618722  0.24999995371284642  0.250000029583951  1.0000
  Bi  Bi2       1.0  0.7499999615005273  0.7500000549814696  0.7499999760022837  1.0000
  Rh  Rh1       1.0  7.162086457197095e-09  0.9999999548813868  6.809718885506799e-08  1.0000
  Br  Br1       1.0  0.23993649225308408  0.23993643670922443  0.7600635265333722  1.0000
  Br  Br2       1.0  0.7600635293710888  0.7600635469191951  0.23993648712537358  1.0000
  Br  Br3       1.0  0.7600635369238417  0.23993647366177565  0.2399364603235829  1.0000
  Br  Br4       1.0  0.23993649330954464  0.7600635266772413  0.7600635161157946  1.0000
  Br  Br5       1.0  0.2399364401810381  0.7600635744058887  0.23993642115415384  1.0000
  Br  Br6       1.0  0.7600635471154359  0.239936474393861  0.7600635115908756  1.0000
