data_image0
_chemical_formula_structural       Bi2RhF6
_chemical_formula_sum              "Bi2 Rh1 F6"
_cell_length_a       5.567755351218044
_cell_length_b       5.567755420001669
_cell_length_c       5.567755307793699
_cell_angle_alpha    59.99999836334197
_cell_angle_beta     59.999999057499814
_cell_angle_gamma    59.99999776049169

_space_group_name_H-M_alt    "P 1"
_space_group_IT_number       1

loop_
  _space_group_symop_operation_xyz
  'x, y, z'

loop_
  _atom_site_type_symbol
  _atom_site_label
  _atom_site_symmetry_multiplicity
  _atom_site_fract_x
  _atom_site_fract_y
  _atom_site_fract_z
  _atom_site_occupancy
  Bi  Bi1       1.0  0.2500002180787534  0.24999979550645246  0.25000012059167726  1.0000
  Bi  Bi2       1.0  0.7499999224055334  0.7500002070113099  0.7500004808855019  1.0000
  Rh  Rh1       1.0  0.9999999726618012  1.9797394056703312e-08  0.9999999642571715  1.0000
  F   F1        1.0  0.25954784267108527  0.2595477635230944  0.7404522065908304  1.0000
  F   F2        1.0  0.740452132486512  0.7404522807891866  0.2595475262954575  1.0000
  F   F3        1.0  0.7404520438158677  0.2595479168848405  0.25954774465852914  1.0000
  F   F4        1.0  0.25954774575759704  0.7404521802204898  0.7404521085049793  1.0000
  F   F5        1.0  0.25954788780164967  0.7404521883961069  0.25954774037566025  1.0000
  F   F6        1.0  0.7404522039800631  0.2595476491434026  0.7404520770981888  1.0000
