data_image0
_chemical_formula_structural       Bi2RuO6
_chemical_formula_sum              "Bi2 Ru1 O6"
_cell_length_a       5.480527855499006
_cell_length_b       5.480528041525091
_cell_length_c       5.480528058999574
_cell_angle_alpha    59.99999975645429
_cell_angle_beta     59.999998494195374
_cell_angle_gamma    60.00000109753596

_space_group_name_H-M_alt    "P 1"
_space_group_IT_number       1

loop_
  _space_group_symop_operation_xyz
  'x, y, z'

loop_
  _atom_site_type_symbol
  _atom_site_label
  _atom_site_symmetry_multiplicity
  _atom_site_fract_x
  _atom_site_fract_y
  _atom_site_fract_z
  _atom_site_occupancy
  Bi  Bi1       1.0  0.24999997816126343  0.24999998454747305  0.2500000106531608  1.0000
  Bi  Bi2       1.0  0.7500000056515267  0.7499999044785676  0.7500000227821815  1.0000
  Ru  Ru1       1.0  0.9999999831666082  0.9999999620097505  2.376253734844907e-08  1.0000
  O   O1        1.0  0.24455374414355266  0.2445537557234363  0.7554462330592021  1.0000
  O   O2        1.0  0.7554462872956642  0.7554462874983228  0.2445537323086181  1.0000
  O   O3        1.0  0.7554461852740008  0.24455385050798778  0.244553754298488  1.0000
  O   O4        1.0  0.2445538171577038  0.7554462038873737  0.755446243706629  1.0000
  O   O5        1.0  0.24455380870866925  0.7554462019165826  0.24455378566162136  1.0000
  O   O6        1.0  0.7554462094719572  0.24455383683573514  0.7554462396601818  1.0000
