data_image0
_chemical_formula_structural       Bi2SnF6
_chemical_formula_sum              "Bi2 Sn1 F6"
_cell_length_a       6.638430778872602
_cell_length_b       6.638429874832345
_cell_length_c       6.638431003562514
_cell_angle_alpha    60.00000386195625
_cell_angle_beta     60.00000439998465
_cell_angle_gamma    59.99999782587651

_space_group_name_H-M_alt    "P 1"
_space_group_IT_number       1

loop_
  _space_group_symop_operation_xyz
  'x, y, z'

loop_
  _atom_site_type_symbol
  _atom_site_label
  _atom_site_symmetry_multiplicity
  _atom_site_fract_x
  _atom_site_fract_y
  _atom_site_fract_z
  _atom_site_occupancy
  Bi  Bi1       1.0  0.24999996118859327  0.24999945312753788  0.25000019438982723  1.0000
  Bi  Bi2       1.0  0.7500001928337664  0.7500012669946362  0.7499983194543783  1.0000
  Sn  Sn1       1.0  4.67713608184866e-08  0.9999999797057543  1.53826638094656e-08  1.0000
  F   F1        1.0  0.21433293663418143  0.21433278492553512  0.785667223245911  1.0000
  F   F2        1.0  0.7856672252387024  0.7856670975978737  0.21433342425198804  1.0000
  F   F3        1.0  0.7856670914429293  0.21433226004186798  0.21433343806569813  1.0000
  F   F4        1.0  0.2143329315811921  0.7856672719445148  0.78566699467915  1.0000
  F   F5        1.0  0.21433246889617594  0.7856671818305592  0.21433326038171074  1.0000
  F   F6        1.0  0.7856671323927888  0.2143326656391211  0.7856671546892097  1.0000
