data_image0
_chemical_formula_structural       Bi2SbTe6
_chemical_formula_sum              "Bi2 Sb1 Te6"
_cell_length_a       7.484414383254489
_cell_length_b       7.484414373016259
_cell_length_c       7.484414617797272
_cell_angle_alpha    59.99999935861014
_cell_angle_beta     59.99999895248632
_cell_angle_gamma    60.0000012322762

_space_group_name_H-M_alt    "P 1"
_space_group_IT_number       1

loop_
  _space_group_symop_operation_xyz
  'x, y, z'

loop_
  _atom_site_type_symbol
  _atom_site_label
  _atom_site_symmetry_multiplicity
  _atom_site_fract_x
  _atom_site_fract_y
  _atom_site_fract_z
  _atom_site_occupancy
  Bi  Bi1       1.0  0.25000007880581393  0.2500000373901518  0.2499998760553928  1.0000
  Bi  Bi2       1.0  0.7500000388152224  0.7500000107140422  0.7500000823285373  1.0000
  Sb  Sb1       1.0  0.999999976234903  0.9999999787268812  2.5191327552775897e-08  1.0000
  Te  Te1       1.0  0.27325411850901665  0.2732540722940999  0.7267458964271972  1.0000
  Te  Te2       1.0  0.7267459104554502  0.7267459594461543  0.27325401292263984  1.0000
  Te  Te3       1.0  0.7267458488071081  0.2732541799700256  0.27325406651168915  1.0000
  Te  Te4       1.0  0.2732540599895452  0.7267458697705577  0.7267459553829426  1.0000
  Te  Te5       1.0  0.2732541345128083  0.7267458314867095  0.2732541194891259  1.0000
  Te  Te6       1.0  0.7267458322742039  0.27325406279647113  0.7267459618279062  1.0000
