data_image0
_chemical_formula_structural       Bi2SnCl6
_chemical_formula_sum              "Bi2 Sn1 Cl6"
_cell_length_a       7.3414626377474725
_cell_length_b       7.341462874147462
_cell_length_c       7.3414627658108005
_cell_angle_alpha    59.999999961088875
_cell_angle_beta     59.99999703191261
_cell_angle_gamma    60.00000127487369

_space_group_name_H-M_alt    "P 1"
_space_group_IT_number       1

loop_
  _space_group_symop_operation_xyz
  'x, y, z'

loop_
  _atom_site_type_symbol
  _atom_site_label
  _atom_site_symmetry_multiplicity
  _atom_site_fract_x
  _atom_site_fract_y
  _atom_site_fract_z
  _atom_site_occupancy
  Bi  Bi1       1.0  0.24999994584713  0.25000005480072346  0.2499999651622612  1.0000
  Bi  Bi2       1.0  0.7499999411342164  0.7499997356600624  0.7500000989252152  1.0000
  Sn  Sn1       1.0  4.0561517317105105e-08  0.9999999349379688  1.402901349196064e-07  1.0000
  Cl  Cl1       1.0  0.2388445152024539  0.23884456016528605  0.7611554930346494  1.0000
  Cl  Cl2       1.0  0.7611554948861783  0.7611554555102289  0.2388445685197387  1.0000
  Cl  Cl3       1.0  0.7611554511891614  0.2388446685690688  0.23884452805490383  1.0000
  Cl  Cl4       1.0  0.23884469710292025  0.7611553854763645  0.7611553689337213  1.0000
  Cl  Cl5       1.0  0.23884453048475024  0.7611554889781611  0.2388445242647108  1.0000
  Cl  Cl6       1.0  0.7611553816074553  0.23884471687867687  0.761155323655687  1.0000
