data_image0
_chemical_formula_structural       Bi2SBr6
_chemical_formula_sum              "Bi2 S1 Br6"
_cell_length_a       7.491279377011291
_cell_length_b       7.49127940539012
_cell_length_c       7.491279426119627
_cell_angle_alpha    60.00000061601839
_cell_angle_beta     60.0000000226678
_cell_angle_gamma    60.000001006879565

_space_group_name_H-M_alt    "P 1"
_space_group_IT_number       1

loop_
  _space_group_symop_operation_xyz
  'x, y, z'

loop_
  _atom_site_type_symbol
  _atom_site_label
  _atom_site_symmetry_multiplicity
  _atom_site_fract_x
  _atom_site_fract_y
  _atom_site_fract_z
  _atom_site_occupancy
  Bi  Bi1       1.0  0.24999998588346573  0.25000002164495505  0.24999999895160124  1.0000
  Bi  Bi2       1.0  0.7500000178609747  0.7499998981756658  0.7500000167569775  1.0000
  S   S1        1.0  0.9999999732513548  1.6348940535396684e-09  3.124527198022421e-08  1.0000
  Br  Br1       1.0  0.25146660395493886  0.2514666772773496  0.7485333603668294  1.0000
  Br  Br2       1.0  0.7485333567372909  0.7485333716999059  0.25146663765236166  1.0000
  Br  Br3       1.0  0.7485333486584894  0.2514666823422803  0.25146661790215075  1.0000
  Br  Br4       1.0  0.2514666792326071  0.7485333453813521  0.7485333277769385  1.0000
  Br  Br5       1.0  0.2514666606217275  0.7485333467489376  0.25146666351266905  1.0000
  Br  Br6       1.0  0.7485333765337687  0.25146665318149525  0.7485333434913528  1.0000
