data_image0
_chemical_formula_structural       Bi2SnSe6
_chemical_formula_sum              "Bi2 Sn1 Se6"
_cell_length_a       6.902155165854
_cell_length_b       6.902155131855271
_cell_length_c       6.90215504349968
_cell_angle_alpha    59.99999976176475
_cell_angle_beta     60.000000179666436
_cell_angle_gamma    59.999999770358976

_space_group_name_H-M_alt    "P 1"
_space_group_IT_number       1

loop_
  _space_group_symop_operation_xyz
  'x, y, z'

loop_
  _atom_site_type_symbol
  _atom_site_label
  _atom_site_symmetry_multiplicity
  _atom_site_fract_x
  _atom_site_fract_y
  _atom_site_fract_z
  _atom_site_occupancy
  Bi  Bi1       1.0  0.24999996204340708  0.2500000143745868  0.24999996315648354  1.0000
  Bi  Bi2       1.0  0.7500000615876896  0.7500000537703887  0.7500000876307962  1.0000
  Sn  Sn1       1.0  2.6703634415227827e-09  0.9999999769323017  0.9999999696316275  1.0000
  Se  Se1       1.0  0.267737215227812  0.267737201302386  0.7322628093494901  1.0000
  Se  Se2       1.0  0.7322627902211388  0.7322628260305083  0.2677371289502635  1.0000
  Se  Se3       1.0  0.7322628140849142  0.2677372006025342  0.26773720108267396  1.0000
  Se  Se4       1.0  0.2677371602041658  0.7322627646250174  0.7322628447002468  1.0000
  Se  Se5       1.0  0.26773720702991927  0.7322627904632264  0.2677371928477091  1.0000
  Se  Se6       1.0  0.7322627874361205  0.2677371694410105  0.7322628020437033  1.0000
