data_image0
_chemical_formula_structural       Bi2SbSe6
_chemical_formula_sum              "Bi2 Sb1 Se6"
_cell_length_a       6.890087875534022
_cell_length_b       6.89008771664125
_cell_length_c       6.890087986986993
_cell_angle_alpha    59.99999926630408
_cell_angle_beta     59.999999583690325
_cell_angle_gamma    60.00000036851883

_space_group_name_H-M_alt    "P 1"
_space_group_IT_number       1

loop_
  _space_group_symop_operation_xyz
  'x, y, z'

loop_
  _atom_site_type_symbol
  _atom_site_label
  _atom_site_symmetry_multiplicity
  _atom_site_fract_x
  _atom_site_fract_y
  _atom_site_fract_z
  _atom_site_occupancy
  Bi  Bi1       1.0  0.25000020709322923  0.2499997331227889  0.25000001325914006  1.0000
  Bi  Bi2       1.0  0.7499998977900499  0.7500000525905012  0.7499998878295583  1.0000
  Sb  Sb1       1.0  0.9999999748791442  0.9999999697817155  4.943997417225686e-08  1.0000
  Se  Se1       1.0  0.26813718107140083  0.26813714696601504  0.7318628407054385  1.0000
  Se  Se2       1.0  0.7318627639199422  0.731862967593309  0.26813717474257  1.0000
  Se  Se3       1.0  0.7318628181069844  0.26813713937978906  0.2681372268192717  1.0000
  Se  Se4       1.0  0.2681372512747072  0.7318628383084842  0.7318627832582052  1.0000
  Se  Se5       1.0  0.26813712975527054  0.7318628995420733  0.26813719828061616  1.0000
  Se  Se6       1.0  0.7318627720347771  0.2681372541232654  0.7318628250204737  1.0000
