data_image0
_chemical_formula_structural       Bi2SiS6
_chemical_formula_sum              "Bi2 Si1 S6"
_cell_length_a       6.363819084341955
_cell_length_b       6.3638187302402995
_cell_length_c       6.363818877270075
_cell_angle_alpha    60.000000746380685
_cell_angle_beta     60.000000679216875
_cell_angle_gamma    59.999999689073725

_space_group_name_H-M_alt    "P 1"
_space_group_IT_number       1

loop_
  _space_group_symop_operation_xyz
  'x, y, z'

loop_
  _atom_site_type_symbol
  _atom_site_label
  _atom_site_symmetry_multiplicity
  _atom_site_fract_x
  _atom_site_fract_y
  _atom_site_fract_z
  _atom_site_occupancy
  Bi  Bi1       1.0  0.24999969892934285  0.24999987298629744  0.25000029807241403  1.0000
  Bi  Bi2       1.0  0.7500001033006426  0.7500001539820986  0.7499997384603767  1.0000
  Si  Si1       1.0  8.339690466963446e-09  0.9999999749809286  0.9999999941972386  1.0000
  S   S1        1.0  0.24895514618883183  0.24895497811537168  0.7510449717995543  1.0000
  S   S2        1.0  0.7510449415021919  0.7510449545503755  0.24895513729207464  1.0000
  S   S3        1.0  0.7510449727769606  0.24895505304585847  0.2489550572533587  1.0000
  S   S4        1.0  0.24895502807381373  0.7510449931679775  0.7510448876315359  1.0000
  S   S5        1.0  0.2489549960493189  0.7510449972878879  0.24895510587759537  1.0000
  S   S6        1.0  0.7510451028021148  0.24895501620870142  0.7510448063655921  1.0000
