data_image0
_chemical_formula_structural       Bi2ScBr6
_chemical_formula_sum              "Bi2 Sc1 Br6"
_cell_length_a       7.527497173814693
_cell_length_b       7.527497162038687
_cell_length_c       7.527497108691923
_cell_angle_alpha    59.9999993451344
_cell_angle_beta     60.00000054830264
_cell_angle_gamma    59.99999967485165

_space_group_name_H-M_alt    "P 1"
_space_group_IT_number       1

loop_
  _space_group_symop_operation_xyz
  'x, y, z'

loop_
  _atom_site_type_symbol
  _atom_site_label
  _atom_site_symmetry_multiplicity
  _atom_site_fract_x
  _atom_site_fract_y
  _atom_site_fract_z
  _atom_site_occupancy
  Bi  Bi1       1.0  0.24999995093880698  0.2500000071707723  0.25000002848212644  1.0000
  Bi  Bi2       1.0  0.7500000093910615  0.7499999889717565  0.7500000181154884  1.0000
  Sc  Sc1       1.0  0.9999999965890318  1.252811574657594e-07  0.9999999603203096  1.0000
  Br  Br1       1.0  0.24711937815508075  0.24711941685906214  0.7528805988384512  1.0000
  Br  Br2       1.0  0.7528805325451903  0.752880580910495  0.24711945581889438  1.0000
  Br  Br3       1.0  0.752880636673056  0.24711939000990615  0.24711934087663182  1.0000
  Br  Br4       1.0  0.2471194631104848  0.7528805329163635  0.7528804972451855  1.0000
  Br  Br5       1.0  0.24711940736468532  0.752880585699855  0.24711946354720038  1.0000
  Br  Br6       1.0  0.7528806183998046  0.24711938441022457  0.7528806337578579  1.0000
