data_image0
_chemical_formula_structural       Bi2SbBr6
_chemical_formula_sum              "Bi2 Sb1 Br6"
_cell_length_a       7.655157333466029
_cell_length_b       7.655157547019059
_cell_length_c       7.655157449290082
_cell_angle_alpha    59.99999941646952
_cell_angle_beta     59.99999964263873
_cell_angle_gamma    59.999999705586724

_space_group_name_H-M_alt    "P 1"
_space_group_IT_number       1

loop_
  _space_group_symop_operation_xyz
  'x, y, z'

loop_
  _atom_site_type_symbol
  _atom_site_label
  _atom_site_symmetry_multiplicity
  _atom_site_fract_x
  _atom_site_fract_y
  _atom_site_fract_z
  _atom_site_occupancy
  Bi  Bi1       1.0  0.2500000063641091  0.24999994579253718  0.2499999746578118  1.0000
  Bi  Bi2       1.0  0.7499999998751959  0.7500000805616587  0.7500000170804666  1.0000
  Sb  Sb1       1.0  1.7630243755692743e-08  0.9999998928070298  1.2185358679950308e-07  1.0000
  Br  Br1       1.0  0.25163856708549814  0.25163855073690655  0.7483614460724354  1.0000
  Br  Br2       1.0  0.7483614599053467  0.7483614948160302  0.25163850348345174  1.0000
  Br  Br3       1.0  0.7483614630967006  0.25163850502852203  0.2516385589287841  1.0000
  Br  Br4       1.0  0.25163853909061384  0.7483614701290322  0.7483614421454867  1.0000
  Br  Br5       1.0  0.2516385054810272  0.7483615416572655  0.2516384942080484  1.0000
  Br  Br6       1.0  0.7483614382735623  0.2516385182947279  0.7483614322888482  1.0000
