data_image0
_chemical_formula_structural       Bi2SeF6
_chemical_formula_sum              "Bi2 Se1 F6"
_cell_length_a       5.490941321465795
_cell_length_b       5.49094094814724
_cell_length_c       5.490942283732152
_cell_angle_alpha    60.00000046440059
_cell_angle_beta     60.0000054325403
_cell_angle_gamma    59.99999834152165

_space_group_name_H-M_alt    "P 1"
_space_group_IT_number       1

loop_
  _space_group_symop_operation_xyz
  'x, y, z'

loop_
  _atom_site_type_symbol
  _atom_site_label
  _atom_site_symmetry_multiplicity
  _atom_site_fract_x
  _atom_site_fract_y
  _atom_site_fract_z
  _atom_site_occupancy
  Bi  Bi1       1.0  0.2500006296240912  0.24999742172311942  0.25000071078811714  1.0000
  Bi  Bi2       1.0  0.7500003067207484  0.7500017179549803  0.74999476594269  1.0000
  Se  Se1       1.0  0.9999999146733158  0.9999999531598917  5.687293541231316e-07  1.0000
  F   F1        1.0  0.2827271544662318  0.28272679769039305  0.7172732256849  1.0000
  F   F2        1.0  0.7172724446552323  0.7172736535119104  0.28272851236762536  1.0000
  F   F3        1.0  0.7172730484947027  0.28272584760250846  0.2827283993803884  1.0000
  F   F4        1.0  0.28272733247927934  0.717273854157547  0.717272608564051  1.0000
  F   F5        1.0  0.28272606424447994  0.7172736566956003  0.2827280800153427  1.0000
  F   F6        1.0  0.7172731376328199  0.2827270777779856  0.7172731413515793  1.0000
