data_image0
_chemical_formula_structural       Bi2SbCl6
_chemical_formula_sum              "Bi2 Sb1 Cl6"
_cell_length_a       7.3713064532617905
_cell_length_b       7.3713070244994485
_cell_length_c       7.371306885345709
_cell_angle_alpha    59.99999850845441
_cell_angle_beta     59.99999777463448
_cell_angle_gamma    59.99999924001731

_space_group_name_H-M_alt    "P 1"
_space_group_IT_number       1

loop_
  _space_group_symop_operation_xyz
  'x, y, z'

loop_
  _atom_site_type_symbol
  _atom_site_label
  _atom_site_symmetry_multiplicity
  _atom_site_fract_x
  _atom_site_fract_y
  _atom_site_fract_z
  _atom_site_occupancy
  Bi  Bi1       1.0  0.24999982471707702  0.2500000235236253  0.25000010625001295  1.0000
  Bi  Bi2       1.0  0.7500001054455498  0.7499999060820695  0.7500001626741418  1.0000
  Sb  Sb1       1.0  2.1445034877334898e-07  0.9999999534779127  0.999999947237935  1.0000
  Cl  Cl1       1.0  0.24587416037101295  0.24587415122389503  0.7541258702153809  1.0000
  Cl  Cl2       1.0  0.7541256847889846  0.7541258548109442  0.24587417779799928  1.0000
  Cl  Cl3       1.0  0.7541257868598524  0.24587425306657723  0.2458741573712517  1.0000
  Cl  Cl4       1.0  0.24587422431444161  0.7541258094593636  0.7541257386910819  1.0000
  Cl  Cl5       1.0  0.24587422042879734  0.7541258161167215  0.24587412625806218  1.0000
  Cl  Cl6       1.0  0.7541257814416381  0.24587424142471181  0.7541257159009351  1.0000
