data_image0
_chemical_formula_structural       Bi2SiTe6
_chemical_formula_sum              "Bi2 Si1 Te6"
_cell_length_a       7.2485408698841765
_cell_length_b       7.248540818944245
_cell_length_c       7.248540741671447
_cell_angle_alpha    59.99999970710405
_cell_angle_beta     60.00000011361815
_cell_angle_gamma    59.99999885839395

_space_group_name_H-M_alt    "P 1"
_space_group_IT_number       1

loop_
  _space_group_symop_operation_xyz
  'x, y, z'

loop_
  _atom_site_type_symbol
  _atom_site_label
  _atom_site_symmetry_multiplicity
  _atom_site_fract_x
  _atom_site_fract_y
  _atom_site_fract_z
  _atom_site_occupancy
  Bi  Bi1       1.0  0.25000000323165067  0.2500000272295176  0.25000000047825993  1.0000
  Bi  Bi2       1.0  0.7500000791967565  0.7499998062766866  0.7499999333208965  1.0000
  Si  Si1       1.0  1.67832217914299e-08  0.9999999831035664  0.9999999848811376  1.0000
  Te  Te1       1.0  0.2565159537458443  0.2565161255349744  0.7434839538247223  1.0000
  Te  Te2       1.0  0.743483912993695  0.7434839918313142  0.25651612247609246  1.0000
  Te  Te3       1.0  0.743483990333781  0.25651605940965055  0.2565159977533821  1.0000
  Te  Te4       1.0  0.25651605706211655  0.7434839126473082  0.7434840015516335  1.0000
  Te  Te5       1.0  0.2565160032683428  0.7434839423776244  0.2565160891696466  1.0000
  Te  Te6       1.0  0.743483984459981  0.25651615133365613  0.7434839163908714  1.0000
