data_image0
_chemical_formula_structural       Bi2SrI6
_chemical_formula_sum              "Bi2 Sr1 I6"
_cell_length_a       8.298875855021794
_cell_length_b       8.29887578371283
_cell_length_c       8.298875976679883
_cell_angle_alpha    59.999998920436866
_cell_angle_beta     59.99999993767902
_cell_angle_gamma    60.00000077531853

_space_group_name_H-M_alt    "P 1"
_space_group_IT_number       1

loop_
  _space_group_symop_operation_xyz
  'x, y, z'

loop_
  _atom_site_type_symbol
  _atom_site_label
  _atom_site_symmetry_multiplicity
  _atom_site_fract_x
  _atom_site_fract_y
  _atom_site_fract_z
  _atom_site_occupancy
  Bi  Bi1       1.0  0.2500000209000775  0.24999999529796607  0.24999998267319237  1.0000
  Bi  Bi2       1.0  0.749999990755279  0.7499999888454892  0.7499999921561178  1.0000
  Sr  Sr1       1.0  1.5782784491829423e-08  2.3612738129835917e-08  3.814139682425465e-08  1.0000
  I   I1        1.0  0.2712991038282572  0.271298997262261  0.7287009452649843  1.0000
  I   I2        1.0  0.7287008619255813  0.7287009617926593  0.27129908433907185  1.0000
  I   I3        1.0  0.7287010174377805  0.27129905769492985  0.27129906510974416  1.0000
  I   I4        1.0  0.27129902721798105  0.7287008984083994  0.7287009277241286  1.0000
  I   I5        1.0  0.27129899147527387  0.728700953876932  0.27129911541632273  1.0000
  I   I6        1.0  0.7287009720841087  0.27129912029008685  0.7287008517039995  1.0000
