data_image0
_chemical_formula_structural       Bi2SO6
_chemical_formula_sum              "Bi2 S1 O6"
_cell_length_a       5.298643811775584
_cell_length_b       5.298643409297564
_cell_length_c       5.298643942608036
_cell_angle_alpha    60.00000350858158
_cell_angle_beta     60.00000128731761
_cell_angle_gamma    60.00000240396408

_space_group_name_H-M_alt    "P 1"
_space_group_IT_number       1

loop_
  _space_group_symop_operation_xyz
  'x, y, z'

loop_
  _atom_site_type_symbol
  _atom_site_label
  _atom_site_symmetry_multiplicity
  _atom_site_fract_x
  _atom_site_fract_y
  _atom_site_fract_z
  _atom_site_occupancy
  Bi  Bi1       1.0  0.2499999976479419  0.2500000546661929  0.25000001313926334  1.0000
  Bi  Bi2       1.0  0.7499999899299604  0.7500000553613215  0.7500000480614623  1.0000
  S   S1        1.0  0.9999999878272428  0.9999999907542756  5.047414127557622e-09  1.0000
  O   O1        1.0  0.2261943829269207  0.22619436594053902  0.7738056139385396  1.0000
  O   O2        1.0  0.7738056301220823  0.773805589221092  0.22619434965389118  1.0000
  O   O3        1.0  0.7738056082648842  0.22619440131023993  0.22619438359090568  1.0000
  O   O4        1.0  0.22619441169573018  0.7738055723428404  0.7738055918345751  1.0000
  O   O5        1.0  0.22619435814780187  0.7738055804757185  0.22619439336390995  1.0000
  O   O6        1.0  0.7738056414518757  0.22619435619446807  0.7738056333807879  1.0000
