data_image0
_chemical_formula_structural       Bi2ScI6
_chemical_formula_sum              "Bi2 Sc1 I6"
_cell_length_a       8.130403926565513
_cell_length_b       8.130403930682208
_cell_length_c       8.130404031250816
_cell_angle_alpha    59.99999959398228
_cell_angle_beta     59.9999998025033
_cell_angle_gamma    60.000000700278434

_space_group_name_H-M_alt    "P 1"
_space_group_IT_number       1

loop_
  _space_group_symop_operation_xyz
  'x, y, z'

loop_
  _atom_site_type_symbol
  _atom_site_label
  _atom_site_symmetry_multiplicity
  _atom_site_fract_x
  _atom_site_fract_y
  _atom_site_fract_z
  _atom_site_occupancy
  Bi  Bi1       1.0  0.2500000044852826  0.24999996584609646  0.2500000035104137  1.0000
  Bi  Bi2       1.0  0.7499999953349887  0.7500000285930373  0.7500000020323926  1.0000
  Sc  Sc1       1.0  0.9999999701604877  2.5608398763259305e-08  0.9999999701368262  1.0000
  I   I1        1.0  0.24864454013304982  0.2486445158691632  0.7513554722802384  1.0000
  I   I2        1.0  0.7513555052771715  0.7513555207485105  0.24864449675802994  1.0000
  I   I3        1.0  0.7513554389743685  0.248644521364686  0.24864454686733026  1.0000
  I   I4        1.0  0.24864454381798015  0.7513554474660483  0.7513554676941253  1.0000
  I   I5        1.0  0.2486445456063118  0.7513554599329806  0.24864454309057527  1.0000
  I   I6        1.0  0.7513554550606893  0.24864451492325967  0.7513554988792386  1.0000
