data_image0
_chemical_formula_structural       Bi2SeO6
_chemical_formula_sum              "Bi2 Se1 O6"
_cell_length_a       5.380783698638083
_cell_length_b       5.380783426768046
_cell_length_c       5.380783622290083
_cell_angle_alpha    60.00000090746437
_cell_angle_beta     60.000001111343735
_cell_angle_gamma    60.00000042066125

_space_group_name_H-M_alt    "P 1"
_space_group_IT_number       1

loop_
  _space_group_symop_operation_xyz
  'x, y, z'

loop_
  _atom_site_type_symbol
  _atom_site_label
  _atom_site_symmetry_multiplicity
  _atom_site_fract_x
  _atom_site_fract_y
  _atom_site_fract_z
  _atom_site_occupancy
  Bi  Bi1       1.0  0.249999981658202  0.25000005276909465  0.24999996732897167  1.0000
  Bi  Bi2       1.0  0.7500000011195395  0.7499999898724817  0.7500000176027386  1.0000
  Se  Se1       1.0  0.9999999874068597  0.9999999476486406  0.9999999711428919  1.0000
  O   O1        1.0  0.23747402437924495  0.23747394491238463  0.7625260049989303  1.0000
  O   O2        1.0  0.7625260585004132  0.7625261000053386  0.2374739268852835  1.0000
  O   O3        1.0  0.762526015782704  0.23747395660299572  0.23747397649158078  1.0000
  O   O4        1.0  0.23747394835450938  0.7625260132019099  0.7625261080742233  1.0000
  O   O5        1.0  0.23747400906623728  0.7625259882628259  0.23747393824918647  1.0000
  O   O6        1.0  0.7625259971015037  0.23747399064666339  0.762526089155151  1.0000
