data_image0
_chemical_formula_structural       Bi2SrF6
_chemical_formula_sum              "Bi2 Sr1 F6"
_cell_length_a       6.0366971521137405
_cell_length_b       6.036697176492614
_cell_length_c       6.036697815601166
_cell_angle_alpha    60.000003617183346
_cell_angle_beta     60.00000324473821
_cell_angle_gamma    60.00000128126659

_space_group_name_H-M_alt    "P 1"
_space_group_IT_number       1

loop_
  _space_group_symop_operation_xyz
  'x, y, z'

loop_
  _atom_site_type_symbol
  _atom_site_label
  _atom_site_symmetry_multiplicity
  _atom_site_fract_x
  _atom_site_fract_y
  _atom_site_fract_z
  _atom_site_occupancy
  Bi  Bi1       1.0  0.24999951915402194  0.250000046047498  0.2500004065549305  1.0000
  Bi  Bi2       1.0  0.7500001304778441  0.7500003024778621  0.7499993255942686  1.0000
  Sr  Sr1       1.0  0.9999999366454818  1.2172999321599447e-08  7.363026594026995e-08  1.0000
  F   F1        1.0  0.2640931885441849  0.2640930974785048  0.7359067995195994  1.0000
  F   F2        1.0  0.7359069658057478  0.7359067296368816  0.2640933650484599  1.0000
  F   F3        1.0  0.7359069755232885  0.2640928938787887  0.26409326122827115  1.0000
  F   F4        1.0  0.26409317215998757  0.7359069819285777  0.7359068144092018  1.0000
  F   F5        1.0  0.2640929392481571  0.7359069053962227  0.2640933109025751  1.0000
  F   F6        1.0  0.7359071362889839  0.26409300895895854  0.7359066639200857  1.0000
