data_image0
_chemical_formula_structural       Bi2SnTe6
_chemical_formula_sum              "Bi2 Sn1 Te6"
_cell_length_a       7.459324573789471
_cell_length_b       7.459324338131317
_cell_length_c       7.45932440049433
_cell_angle_alpha    60.00000004720828
_cell_angle_beta     60.00000096248781
_cell_angle_gamma    60.00000193753251

_space_group_name_H-M_alt    "P 1"
_space_group_IT_number       1

loop_
  _space_group_symop_operation_xyz
  'x, y, z'

loop_
  _atom_site_type_symbol
  _atom_site_label
  _atom_site_symmetry_multiplicity
  _atom_site_fract_x
  _atom_site_fract_y
  _atom_site_fract_z
  _atom_site_occupancy
  Bi  Bi1       1.0  0.250000166011539  0.24999990930996857  0.24999990697896265  1.0000
  Bi  Bi2       1.0  0.7499999527588669  0.7500000727284428  0.750000023606696  1.0000
  Sn  Sn1       1.0  4.193536520594382e-08  7.388540449865162e-08  0.9999998509285446  1.0000
  Te  Te1       1.0  0.2720780630539199  0.2720780636289249  0.7279219671502026  1.0000
  Te  Te2       1.0  0.7279218869849137  0.7279219184094824  0.27207813225929506  1.0000
  Te  Te3       1.0  0.7279219396666415  0.27207796307200083  0.27207813153915167  1.0000
  Te  Te4       1.0  0.2720780972961078  0.7279219253782304  0.7279218894256331  1.0000
  Te  Te5       1.0  0.27207805283409503  0.7279219864313892  0.2720780771289013  1.0000
  Te  Te6       1.0  0.7279217989914528  0.2720780859113978  0.7279220181914257  1.0000
