data_image0
_chemical_formula_structural       Bi2SiSe6
_chemical_formula_sum              "Bi2 Si1 Se6"
_cell_length_a       6.622970508188109
_cell_length_b       6.622970656492692
_cell_length_c       6.622970574734221
_cell_angle_alpha    60.000000856570466
_cell_angle_beta     59.99999974021414
_cell_angle_gamma    60.000000667630076

_space_group_name_H-M_alt    "P 1"
_space_group_IT_number       1

loop_
  _space_group_symop_operation_xyz
  'x, y, z'

loop_
  _atom_site_type_symbol
  _atom_site_label
  _atom_site_symmetry_multiplicity
  _atom_site_fract_x
  _atom_site_fract_y
  _atom_site_fract_z
  _atom_site_occupancy
  Bi  Bi1       1.0  0.2500000941872432  0.25000005373767253  0.2499998020976664  1.0000
  Bi  Bi2       1.0  0.7500000480776361  0.7499998708826644  0.7500000869415483  1.0000
  Si  Si1       1.0  7.801845148173807e-09  0.9999999870553344  0.9999999904922383  1.0000
  Se  Se1       1.0  0.2535469173676793  0.253547072018  0.7464530161595719  1.0000
  Se  Se2       1.0  0.7464530158005965  0.7464529986921341  0.2535469481700442  1.0000
  Se  Se3       1.0  0.7464530287950164  0.25354697788128644  0.2535470088499019  1.0000
  Se  Se4       1.0  0.2535469932574738  0.7464529726283824  0.7464530572019391  1.0000
  Se  Se5       1.0  0.25354696357007095  0.7464530867611071  0.25354698389201136  1.0000
  Se  Se6       1.0  0.7464529365778765  0.2535469784013137  0.7464531008846901  1.0000
