data_image0
_chemical_formula_structural       Bi2SF6
_chemical_formula_sum              "Bi2 S1 F6"
_cell_length_a       5.340970340172293
_cell_length_b       5.3409703564623205
_cell_length_c       5.340970309860305
_cell_angle_alpha    60.00000061244594
_cell_angle_beta     60.00000000205906
_cell_angle_gamma    60.00000150468773

_space_group_name_H-M_alt    "P 1"
_space_group_IT_number       1

loop_
  _space_group_symop_operation_xyz
  'x, y, z'

loop_
  _atom_site_type_symbol
  _atom_site_label
  _atom_site_symmetry_multiplicity
  _atom_site_fract_x
  _atom_site_fract_y
  _atom_site_fract_z
  _atom_site_occupancy
  Bi  Bi1       1.0  0.2499999504758062  0.25000006243824946  0.24999978318114913  1.0000
  Bi  Bi2       1.0  0.7499998489022275  0.7499997149334723  0.75000016554324  1.0000
  S   S1        1.0  5.5206998923966414e-08  0.9999999770688708  4.457573623019136e-09  1.0000
  F   F1        1.0  0.27491358133588495  0.2749136163900669  0.7250864651090149  1.0000
  F   F2        1.0  0.725086407766867  0.7250864155172019  0.2749135835241037  1.0000
  F   F3        1.0  0.7250864012090474  0.27491372674597775  0.2749135206417337  1.0000
  F   F4        1.0  0.27491368415558937  0.7250863212130837  0.7250864999193308  1.0000
  F   F5        1.0  0.2749136698195014  0.7250864316072579  0.27491354874548707  1.0000
  F   F6        1.0  0.7250864083585055  0.2749137287143405  0.7250864173553051  1.0000
