data_image0
_chemical_formula_structural       Bi2SeI6
_chemical_formula_sum              "Bi2 Se1 I6"
_cell_length_a       7.954740020230018
_cell_length_b       7.954740106281765
_cell_length_c       7.9547400831068265
_cell_angle_alpha    59.99999990644931
_cell_angle_beta     59.99999999179158
_cell_angle_gamma    59.999999896884404

_space_group_name_H-M_alt    "P 1"
_space_group_IT_number       1

loop_
  _space_group_symop_operation_xyz
  'x, y, z'

loop_
  _atom_site_type_symbol
  _atom_site_label
  _atom_site_symmetry_multiplicity
  _atom_site_fract_x
  _atom_site_fract_y
  _atom_site_fract_z
  _atom_site_occupancy
  Bi  Bi1       1.0  0.25000001237398156  0.2500000233721448  0.24999998330844173  1.0000
  Bi  Bi2       1.0  0.7500000066839186  0.7499999915947134  0.749999996862526  1.0000
  Se  Se1       1.0  0.9999999824928899  4.618924935747439e-09  0.9999999699878417  1.0000
  I   I1        1.0  0.2591789365340493  0.2591789369438222  0.7408210680230181  1.0000
  I   I2        1.0  0.7408210756181253  0.7408210595473368  0.2591789348955591  1.0000
  I   I3        1.0  0.740821078193903  0.2591789240985827  0.2591789230206475  1.0000
  I   I4        1.0  0.25917892004365867  0.7408210662340099  0.7408210874202951  1.0000
  I   I5        1.0  0.2591789172887418  0.7408210708112202  0.25917894233193445  1.0000
  I   I6        1.0  0.7408210721512382  0.2591789241402971  0.7408210928263543  1.0000
