data_image0
_chemical_formula_structural       Bi2SnBr6
_chemical_formula_sum              "Bi2 Sn1 Br6"
_cell_length_a       7.566233297037977
_cell_length_b       7.566233337104332
_cell_length_c       7.566233204817837
_cell_angle_alpha    60.00000043644931
_cell_angle_beta     60.00000088663649
_cell_angle_gamma    60.00000020679968

_space_group_name_H-M_alt    "P 1"
_space_group_IT_number       1

loop_
  _space_group_symop_operation_xyz
  'x, y, z'

loop_
  _atom_site_type_symbol
  _atom_site_label
  _atom_site_symmetry_multiplicity
  _atom_site_fract_x
  _atom_site_fract_y
  _atom_site_fract_z
  _atom_site_occupancy
  Bi  Bi1       1.0  0.2500000604828657  0.2499999865658841  0.24999995433429445  1.0000
  Bi  Bi2       1.0  0.7499999884005729  0.7500000260642808  0.749999996391646  1.0000
  Sn  Sn1       1.0  0.9999999850772995  3.561136150728564e-08  6.837270420823761e-09  1.0000
  Br  Br1       1.0  0.2479490443666996  0.24794904722742833  0.7520509568495045  1.0000
  Br  Br2       1.0  0.7520509365817878  0.7520509265539789  0.2479490737015226  1.0000
  Br  Br3       1.0  0.7520509612519591  0.24794902564001337  0.24794905009849608  1.0000
  Br  Br4       1.0  0.2479490512981273  0.752050944903997  0.7520509543754754  1.0000
  Br  Br5       1.0  0.2479490321865592  0.7520509628228514  0.2479490542306127  1.0000
  Br  Br6       1.0  0.7520509440750999  0.2479490433325206  0.7520509532252148  1.0000
