data_image0
_chemical_formula_structural       Bi2ScCl6
_chemical_formula_sum              "Bi2 Sc1 Cl6"
_cell_length_a       7.116706956804341
_cell_length_b       7.116706863455119
_cell_length_c       7.116707308425043
_cell_angle_alpha    59.99999620822891
_cell_angle_beta     59.99999246721161
_cell_angle_gamma    59.999992035262316

_space_group_name_H-M_alt    "P 1"
_space_group_IT_number       1

loop_
  _space_group_symop_operation_xyz
  'x, y, z'

loop_
  _atom_site_type_symbol
  _atom_site_label
  _atom_site_symmetry_multiplicity
  _atom_site_fract_x
  _atom_site_fract_y
  _atom_site_fract_z
  _atom_site_occupancy
  Bi  Bi1       1.0  0.24999993115849292  0.24999985254991172  0.24999996809549957  1.0000
  Bi  Bi2       1.0  0.7500001444909281  0.7499999259315956  0.7500001544704064  1.0000
  Sc  Sc1       1.0  0.9999999505678578  1.5316396091401525e-07  0.9999999874781285  1.0000
  Cl  Cl1       1.0  0.24597238857846432  0.24597233557391618  0.7540276310022863  1.0000
  Cl  Cl2       1.0  0.7540275581830495  0.7540276786768366  0.24597239737377122  1.0000
  Cl  Cl3       1.0  0.7540276858785111  0.24597235486770103  0.24597234267535584  1.0000
  Cl  Cl4       1.0  0.24597244839250162  0.7540275544054975  0.7540275615312146  1.0000
  Cl  Cl5       1.0  0.24597232622605805  0.7540275977524489  0.2459724761054087  1.0000
  Cl  Cl6       1.0  0.7540275628107557  0.24597255073188842  0.7540274845081794  1.0000
