data_image0
_chemical_formula_structural       Bi2SCl6
_chemical_formula_sum              "Bi2 S1 Cl6"
_cell_length_a       7.263062139903328
_cell_length_b       7.263062638323437
_cell_length_c       7.263061745488306
_cell_angle_alpha    60.00000145129614
_cell_angle_beta     59.999998996157515
_cell_angle_gamma    60.00000432042222

_space_group_name_H-M_alt    "P 1"
_space_group_IT_number       1

loop_
  _space_group_symop_operation_xyz
  'x, y, z'

loop_
  _atom_site_type_symbol
  _atom_site_label
  _atom_site_symmetry_multiplicity
  _atom_site_fract_x
  _atom_site_fract_y
  _atom_site_fract_z
  _atom_site_occupancy
  Bi  Bi1       1.0  0.249999873276972  0.2499998332466974  0.2500001319982391  1.0000
  Bi  Bi2       1.0  0.749999753739845  0.7499998420518776  0.7500007898492381  1.0000
  S   S1        1.0  3.626014178978148e-08  4.3842893973679176e-08  0.9999997988593915  1.0000
  Cl  Cl1       1.0  0.243799240326444  0.24379927707226104  0.7562007388281353  1.0000
  Cl  Cl2       1.0  0.7562007993644346  0.7562007675183745  0.24379902789571456  1.0000
  Cl  Cl3       1.0  0.7562007691141888  0.24379947090167  0.24379911756942685  1.0000
  Cl  Cl4       1.0  0.24379928968486192  0.7562006832961894  0.756200650884554  1.0000
  Cl  Cl5       1.0  0.2437993708695649  0.7562008026721052  0.2437990950732035  1.0000
  Cl  Cl6       1.0  0.7562008819378963  0.2437992655262447  0.7562006565507294  1.0000
