data_image0
_chemical_formula_structural       Bi2SiO6
_chemical_formula_sum              "Bi2 Si1 O6"
_cell_length_a       5.301608664773929
_cell_length_b       5.301608677376405
_cell_length_c       5.301608748111277
_cell_angle_alpha    59.99999916436767
_cell_angle_beta     59.99999827375873
_cell_angle_gamma    59.999998353536576

_space_group_name_H-M_alt    "P 1"
_space_group_IT_number       1

loop_
  _space_group_symop_operation_xyz
  'x, y, z'

loop_
  _atom_site_type_symbol
  _atom_site_label
  _atom_site_symmetry_multiplicity
  _atom_site_fract_x
  _atom_site_fract_y
  _atom_site_fract_z
  _atom_site_occupancy
  Bi  Bi1       1.0  0.2500000759968897  0.2500000023396165  0.24999995515654386  1.0000
  Bi  Bi2       1.0  0.7499999838562811  0.7499999030626324  0.7500001017601938  1.0000
  Si  Si1       1.0  1.7816619345030721e-09  2.079124398114055e-08  0.9999999962584266  1.0000
  O   O1        1.0  0.2365797493505079  0.23657987133772654  0.7634202060126678  1.0000
  O   O2        1.0  0.7634201819315241  0.7634201518815731  0.23657980912561705  1.0000
  O   O3        1.0  0.7634202063091294  0.2365798770106237  0.23657973344275235  1.0000
  O   O4        1.0  0.23657983950575706  0.7634201554492275  0.7634201896293097  1.0000
  O   O5        1.0  0.23657980914028473  0.7634201808141258  0.23657980599301986  1.0000
  O   O6        1.0  0.7634201451977931  0.23657985164572654  0.7634202175178241  1.0000
