data_image0
_chemical_formula_structural       Bi2TaCl6
_chemical_formula_sum              "Bi2 Ta1 Cl6"
_cell_length_a       7.618073246251702
_cell_length_b       7.618073320824249
_cell_length_c       7.618072990590826
_cell_angle_alpha    59.99999108538489
_cell_angle_beta     59.999993993405475
_cell_angle_gamma    59.99999051606517

_space_group_name_H-M_alt    "P 1"
_space_group_IT_number       1

loop_
  _space_group_symop_operation_xyz
  'x, y, z'

loop_
  _atom_site_type_symbol
  _atom_site_label
  _atom_site_symmetry_multiplicity
  _atom_site_fract_x
  _atom_site_fract_y
  _atom_site_fract_z
  _atom_site_occupancy
  Bi  Bi1       1.0  0.2499999843798037  0.24999947720147678  0.25000010031096714  1.0000
  Bi  Bi2       1.0  0.7499998368100498  0.7500002402481971  0.7500001924949325  1.0000
  Ta  Ta1       1.0  9.273587943888476e-08  0.999999985530846  0.9999999490526221  1.0000
  Cl  Cl1       1.0  0.2204422764464179  0.22044236535104342  0.779557656489967  1.0000
  Cl  Cl2       1.0  0.7795576348994221  0.779557790996204  0.22044227071368402  1.0000
  Cl  Cl3       1.0  0.7795576813288657  0.2204423544419269  0.22044212358859155  1.0000
  Cl  Cl4       1.0  0.22044233031848876  0.7795576556061372  0.7795577071611194  1.0000
  Cl  Cl5       1.0  0.22044242112690451  0.779557739923611  0.22044234526818077  1.0000
  Cl  Cl6       1.0  0.7795577161558972  0.2204424116005598  0.7795576472760166  1.0000
