data_image0
_chemical_formula_structural       Bi2TlF6
_chemical_formula_sum              "Bi2 Tl1 F6"
_cell_length_a       6.1264291651597285
_cell_length_b       6.126428808573025
_cell_length_c       6.126428551137425
_cell_angle_alpha    60.000006226071086
_cell_angle_beta     60.00000893849291
_cell_angle_gamma    60.00000810598138

_space_group_name_H-M_alt    "P 1"
_space_group_IT_number       1

loop_
  _space_group_symop_operation_xyz
  'x, y, z'

loop_
  _atom_site_type_symbol
  _atom_site_label
  _atom_site_symmetry_multiplicity
  _atom_site_fract_x
  _atom_site_fract_y
  _atom_site_fract_z
  _atom_site_occupancy
  Bi  Bi1       1.0  0.2500000807166918  0.2500000614169302  0.2500011736219602  1.0000
  Bi  Bi2       1.0  0.7499985327117445  0.7499998843830125  0.7500002244811785  1.0000
  Tl  Tl1       1.0  0.9999999040653751  5.597526926714895e-08  0.9999999791728668  1.0000
  F   F1        1.0  0.25770733450308897  0.2577067845110399  0.7422924301891518  1.0000
  F   F2        1.0  0.7422931647626516  0.7422928754152409  0.2577073044601561  1.0000
  F   F3        1.0  0.7422927184506062  0.25770711477041863  0.2577068798064987  1.0000
  F   F4        1.0  0.25770775554175857  0.7422931129050894  0.7422927549935009  1.0000
  F   F5        1.0  0.25770740239611084  0.7422929986786337  0.25770642977013036  1.0000
  F   F6        1.0  0.7422931386123208  0.25770714103571674  0.7422928074343238  1.0000
