data_image0
_chemical_formula_structural       Bi2TiBr6
_chemical_formula_sum              "Bi2 Ti1 Br6"
_cell_length_a       7.609194853810906
_cell_length_b       7.60919506514192
_cell_length_c       7.609194539788614
_cell_angle_alpha    60.000001901312636
_cell_angle_beta     60.00000302129896
_cell_angle_gamma    60.00000023803909

_space_group_name_H-M_alt    "P 1"
_space_group_IT_number       1

loop_
  _space_group_symop_operation_xyz
  'x, y, z'

loop_
  _atom_site_type_symbol
  _atom_site_label
  _atom_site_symmetry_multiplicity
  _atom_site_fract_x
  _atom_site_fract_y
  _atom_site_fract_z
  _atom_site_occupancy
  Bi  Bi1       1.0  0.24999997209287436  0.2500000025567289  0.2500000676633064  1.0000
  Bi  Bi2       1.0  0.7500000096592124  0.7499999915745967  0.7499999803594847  1.0000
  Ti  Ti1       1.0  3.191231287764098e-08  7.725883255891412e-08  0.9999999138736384  1.0000
  Br  Br1       1.0  0.23607986336113465  0.2360798245454795  0.7639201504615322  1.0000
  Br  Br2       1.0  0.7639200282926529  0.763920066574071  0.23607996783230428  1.0000
  Br  Br3       1.0  0.7639201893145702  0.2360798318018479  0.2360798278889807  1.0000
  Br  Br4       1.0  0.23607984159471795  0.7639202106162475  0.7639201254148408  1.0000
  Br  Br5       1.0  0.2360798009556292  0.7639201695315528  0.2360798306146639  1.0000
  Br  Br6       1.0  0.763920264611747  0.23607983264756655  0.7639201281080014  1.0000
