data_image0
_chemical_formula_structural       Bi2TaS6
_chemical_formula_sum              "Bi2 Ta1 S6"
_cell_length_a       6.4463551214106305
_cell_length_b       6.44635501577795
_cell_length_c       6.446354907725667
_cell_angle_alpha    60.00000007473462
_cell_angle_beta     60.00000111326552
_cell_angle_gamma    59.999999810464764

_space_group_name_H-M_alt    "P 1"
_space_group_IT_number       1

loop_
  _space_group_symop_operation_xyz
  'x, y, z'

loop_
  _atom_site_type_symbol
  _atom_site_label
  _atom_site_symmetry_multiplicity
  _atom_site_fract_x
  _atom_site_fract_y
  _atom_site_fract_z
  _atom_site_occupancy
  Bi  Bi1       1.0  0.249999944432033  0.25000023940357774  0.24999994538977602  1.0000
  Bi  Bi2       1.0  0.7500000807399535  0.7499997340610179  0.7500001098951421  1.0000
  Ta  Ta1       1.0  3.5281625509067285e-08  2.8498543465292843e-08  3.326301449273127e-08  1.0000
  S   S1        1.0  0.26200753524468695  0.2620077010177465  0.7379923735484571  1.0000
  S   S2        1.0  0.737992413428382  0.7379922762466559  0.2620075846772897  1.0000
  S   S3        1.0  0.7379923688488  0.26200765596636055  0.2620075957355702  1.0000
  S   S4        1.0  0.26200769900575166  0.7379923022990121  0.7379923744495207  1.0000
  S   S5        1.0  0.26200758129565477  0.7379923220168516  0.2620076748673947  1.0000
  S   S6        1.0  0.7379923443612643  0.26200773504347363  0.7379922984038647  1.0000
