data_image0
_chemical_formula_structural       Bi2TiSe6
_chemical_formula_sum              "Bi2 Ti1 Se6"
_cell_length_a       6.707985615624484
_cell_length_b       6.7079856643132105
_cell_length_c       6.707985655903928
_cell_angle_alpha    59.99999990317713
_cell_angle_beta     60.00000004554873
_cell_angle_gamma    59.99999978423086

_space_group_name_H-M_alt    "P 1"
_space_group_IT_number       1

loop_
  _space_group_symop_operation_xyz
  'x, y, z'

loop_
  _atom_site_type_symbol
  _atom_site_label
  _atom_site_symmetry_multiplicity
  _atom_site_fract_x
  _atom_site_fract_y
  _atom_site_fract_z
  _atom_site_occupancy
  Bi  Bi1       1.0  0.2500001086695097  0.2500001808475073  0.24999986916371547  1.0000
  Bi  Bi2       1.0  0.750000221049283  0.7499999382023028  0.7499998980381785  1.0000
  Ti  Ti1       1.0  0.9999999743016056  0.9999999634839747  4.75055752519305e-08  1.0000
  Se  Se1       1.0  0.2591142571794938  0.2591143932691821  0.7408856532322409  1.0000
  Se  Se2       1.0  0.7408856310332379  0.7408855888455343  0.25911441064403196  1.0000
  Se  Se3       1.0  0.7408855819146141  0.2591143502645139  0.2591143326825362  1.0000
  Se  Se4       1.0  0.2591143000211904  0.7408856300244013  0.7408857039391306  1.0000
  Se  Se5       1.0  0.25911433592439126  0.7408855910565847  0.25911436966727575  1.0000
  Se  Se6       1.0  0.7408855809611489  0.25911436184531145  0.7408857198219315  1.0000
