data_image0
_chemical_formula_structural       Bi2TlI6
_chemical_formula_sum              "Bi2 Tl1 I6"
_cell_length_a       7.950227462073368
_cell_length_b       7.950227459309357
_cell_length_c       7.9502275069442465
_cell_angle_alpha    60.000000193190694
_cell_angle_beta     60.000000405952356
_cell_angle_gamma    60.00000022269157

_space_group_name_H-M_alt    "P 1"
_space_group_IT_number       1

loop_
  _space_group_symop_operation_xyz
  'x, y, z'

loop_
  _atom_site_type_symbol
  _atom_site_label
  _atom_site_symmetry_multiplicity
  _atom_site_fract_x
  _atom_site_fract_y
  _atom_site_fract_z
  _atom_site_occupancy
  Bi  Bi1       1.0  0.2500000034851307  0.25000001551832934  0.2500000372024918  1.0000
  Bi  Bi2       1.0  0.7500000016679322  0.7500000249877705  0.7499999481735731  1.0000
  Tl  Tl1       1.0  3.755627102136613e-09  6.162062030823627e-09  0.9999999937833298  1.0000
  I   I1        1.0  0.26354971331126203  0.2635497193679935  0.7364502721686504  1.0000
  I   I2        1.0  0.736450259405465  0.7364502703010947  0.263549734718878  1.0000
  I   I3        1.0  0.7364502314835606  0.2635497484623108  0.26354978607053303  1.0000
  I   I4        1.0  0.2635497525881515  0.7364502550714169  0.7364502283323932  1.0000
  I   I5        1.0  0.26354975217953  0.7364502216814243  0.26354976952631154  1.0000
  I   I6        1.0  0.7364502825806255  0.2635497387178693  0.7364502285213539  1.0000
