data_image0
_chemical_formula_structural       Bi2TlBr6
_chemical_formula_sum              "Bi2 Tl1 Br6"
_cell_length_a       7.4988839637227604
_cell_length_b       7.498884056285635
_cell_length_c       7.498883989712302
_cell_angle_alpha    59.999999893074964
_cell_angle_beta     60.00000027731443
_cell_angle_gamma    60.0000003665324

_space_group_name_H-M_alt    "P 1"
_space_group_IT_number       1

loop_
  _space_group_symop_operation_xyz
  'x, y, z'

loop_
  _atom_site_type_symbol
  _atom_site_label
  _atom_site_symmetry_multiplicity
  _atom_site_fract_x
  _atom_site_fract_y
  _atom_site_fract_z
  _atom_site_occupancy
  Bi  Bi1       1.0  0.2499999107206029  0.2500001348025319  0.24999995390448945  1.0000
  Bi  Bi2       1.0  0.7499999919022167  0.7499999993650244  0.7500000597165378  1.0000
  Tl  Tl1       1.0  0.9999999806040041  2.1232070651973588e-08  0.999999928404779  1.0000
  Br  Br1       1.0  0.2590433586948023  0.2590433703042582  0.740956627520735  1.0000
  Br  Br2       1.0  0.740956687321754  0.7409565923735005  0.2590433228034814  1.0000
  Br  Br3       1.0  0.7409566070115179  0.25904340534674397  0.2590433832621535  1.0000
  Br  Br4       1.0  0.2590433673322091  0.7409566014283907  0.740956672863481  1.0000
  Br  Br5       1.0  0.25904341330096003  0.7409565732991854  0.25904339992231823  1.0000
  Br  Br6       1.0  0.7409566825826415  0.2590433044502919  0.7409566519450179  1.0000
