data_image0
_chemical_formula_structural       Bi2TeSe6
_chemical_formula_sum              "Bi2 Te1 Se6"
_cell_length_a       6.91648999764482
_cell_length_b       6.916490049253383
_cell_length_c       6.916489806327207
_cell_angle_alpha    60.00000008077924
_cell_angle_beta     60.00000093568145
_cell_angle_gamma    60.00000265214148

_space_group_name_H-M_alt    "P 1"
_space_group_IT_number       1

loop_
  _space_group_symop_operation_xyz
  'x, y, z'

loop_
  _atom_site_type_symbol
  _atom_site_label
  _atom_site_symmetry_multiplicity
  _atom_site_fract_x
  _atom_site_fract_y
  _atom_site_fract_z
  _atom_site_occupancy
  Bi  Bi1       1.0  0.25000008736917073  0.25000011152364787  0.24999990098431563  1.0000
  Bi  Bi2       1.0  0.749999845855156  0.7499999255252179  0.7499999927072823  1.0000
  Te  Te1       1.0  3.929231959892625e-09  0.9999999982292391  2.205388610235688e-08  1.0000
  Se  Se1       1.0  0.27221889390212706  0.2722188105277872  0.7277811793883481  1.0000
  Se  Se2       1.0  0.7277811566262778  0.7277811450660876  0.2722189306015636  1.0000
  Se  Se3       1.0  0.7277810925901418  0.2722189032958828  0.2722188276406137  1.0000
  Se  Se4       1.0  0.2722188983747819  0.7277811408360255  0.7277811579796933  1.0000
  Se  Se5       1.0  0.27221888575073117  0.7277810632288947  0.27221881693842764  1.0000
  Se  Se6       1.0  0.727781134912036  0.2722189118433485  0.727781163783849  1.0000
