data_image0
_chemical_formula_structural       Bi2TiO6
_chemical_formula_sum              "Bi2 Ti1 O6"
_cell_length_a       5.384848802502414
_cell_length_b       5.384848738975687
_cell_length_c       5.38484863116211
_cell_angle_alpha    59.99999687508113
_cell_angle_beta     59.999997493601015
_cell_angle_gamma    59.999998864630136

_space_group_name_H-M_alt    "P 1"
_space_group_IT_number       1

loop_
  _space_group_symop_operation_xyz
  'x, y, z'

loop_
  _atom_site_type_symbol
  _atom_site_label
  _atom_site_symmetry_multiplicity
  _atom_site_fract_x
  _atom_site_fract_y
  _atom_site_fract_z
  _atom_site_occupancy
  Bi  Bi1       1.0  0.24999977208755292  0.24999988283597602  0.25000010376729165  1.0000
  Bi  Bi2       1.0  0.749999899603896  0.7500001693518686  0.7500000061985568  1.0000
  Ti  Ti1       1.0  0.9999999761966191  0.999999936316022  1.235973657331043e-07  1.0000
  O   O1        1.0  0.2533987971010836  0.2533985931940989  0.7466013871354457  1.0000
  O   O2        1.0  0.7466013310138367  0.7466013634677853  0.2533986408059457  1.0000
  O   O3        1.0  0.7466015279862911  0.2533985949073152  0.2533986597972946  1.0000
  O   O4        1.0  0.2533986721929773  0.7466012935217391  0.7466013643712753  1.0000
  O   O5        1.0  0.25339873779451183  0.7466014649991108  0.2533985409998236  1.0000
  O   O6        1.0  0.7466013069470516  0.2533987031845528  0.7466012445893607  1.0000
