data_image0
_chemical_formula_structural       Bi2TaSe6
_chemical_formula_sum              "Bi2 Ta1 Se6"
_cell_length_a       6.745527533854562
_cell_length_b       6.745527475746631
_cell_length_c       6.74552766037666
_cell_angle_alpha    60.00000043133412
_cell_angle_beta     59.99999868618592
_cell_angle_gamma    60.00000277911523

_space_group_name_H-M_alt    "P 1"
_space_group_IT_number       1

loop_
  _space_group_symop_operation_xyz
  'x, y, z'

loop_
  _atom_site_type_symbol
  _atom_site_label
  _atom_site_symmetry_multiplicity
  _atom_site_fract_x
  _atom_site_fract_y
  _atom_site_fract_z
  _atom_site_occupancy
  Bi  Bi1       1.0  0.2500001134373708  0.2500001473807597  0.24999980555022533  1.0000
  Bi  Bi2       1.0  0.7500000635463898  0.7499998447967645  0.7500002006027995  1.0000
  Ta  Ta1       1.0  0.999999908532878  0.9999998892459688  2.6566404834035195e-07  1.0000
  Se  Se1       1.0  0.26224945365708857  0.2622495670282765  0.7377505071837558  1.0000
  Se  Se2       1.0  0.7377505521612707  0.7377505740317066  0.26224930701321375  1.0000
  Se  Se3       1.0  0.7377504611939325  0.2622495585968669  0.26224947015597744  1.0000
  Se  Se4       1.0  0.2622495862477217  0.7377503446142971  0.7377504480836066  1.0000
  Se  Se5       1.0  0.26224953612004037  0.7377504741514871  0.2622495252024445  1.0000
  Se  Se6       1.0  0.7377503225190019  0.26224960517673757  0.7377504690557126  1.0000
