data_image0
_chemical_formula_structural       Bi2TaTe6
_chemical_formula_sum              "Bi2 Ta1 Te6"
_cell_length_a       7.334497719766527
_cell_length_b       7.334497726989452
_cell_length_c       7.334497775075281
_cell_angle_alpha    60.00000069712856
_cell_angle_beta     60.00000042451541
_cell_angle_gamma    59.99999857792869

_space_group_name_H-M_alt    "P 1"
_space_group_IT_number       1

loop_
  _space_group_symop_operation_xyz
  'x, y, z'

loop_
  _atom_site_type_symbol
  _atom_site_label
  _atom_site_symmetry_multiplicity
  _atom_site_fract_x
  _atom_site_fract_y
  _atom_site_fract_z
  _atom_site_occupancy
  Bi  Bi1       1.0  0.24999991530680551  0.2499998650663745  0.25000007633706495  1.0000
  Bi  Bi2       1.0  0.7500000235691074  0.7500000610848975  0.7499999172344414  1.0000
  Ta  Ta1       1.0  0.9999999710261218  0.9999999782920611  2.9431167846221544e-08  1.0000
  Te  Te1       1.0  0.2632196239134641  0.26321959476332235  0.7367803944919722  1.0000
  Te  Te2       1.0  0.7367804122359761  0.7367804315784381  0.2632195698819408  1.0000
  Te  Te3       1.0  0.736780431384268  0.26321960297831665  0.2632196091008975  1.0000
  Te  Te4       1.0  0.263219588274142  0.7367804350523351  0.7367804026669407  1.0000
  Te  Te5       1.0  0.2632195724090245  0.7367804163230656  0.2632196259581189  1.0000
  Te  Te6       1.0  0.7367804658713715  0.26321960834885355  0.7367803777244128  1.0000
