data_image0
_chemical_formula_structural       Bi2VSe6
_chemical_formula_sum              "Bi2 V1 Se6"
_cell_length_a       6.701454623442858
_cell_length_b       6.701454581831543
_cell_length_c       6.701454630073255
_cell_angle_alpha    59.9999999367314
_cell_angle_beta     60.00000047332625
_cell_angle_gamma    60.000000021763995

_space_group_name_H-M_alt    "P 1"
_space_group_IT_number       1

loop_
  _space_group_symop_operation_xyz
  'x, y, z'

loop_
  _atom_site_type_symbol
  _atom_site_label
  _atom_site_symmetry_multiplicity
  _atom_site_fract_x
  _atom_site_fract_y
  _atom_site_fract_z
  _atom_site_occupancy
  Bi  Bi1       1.0  0.2500000224240303  0.2500001143190519  0.24999986053715278  1.0000
  Bi  Bi2       1.0  0.7500000223203775  0.7500000797855416  0.749999786408375  1.0000
  V   V1        1.0  0.9999999601785212  0.9999999798966128  0.9999999926570993  1.0000
  Se  Se1       1.0  0.2540729551238104  0.2540729052549637  0.7459271113969077  1.0000
  Se  Se2       1.0  0.7459270597404043  0.7459270786778547  0.2540730151980191  1.0000
  Se  Se3       1.0  0.7459270722224206  0.2540728618063188  0.25407295898748716  1.0000
  Se  Se4       1.0  0.25407294391398016  0.7459270252647251  0.7459271795891134  1.0000
  Se  Se5       1.0  0.2540728970179278  0.7459270343681832  0.25407296206212077  1.0000
  Se  Se6       1.0  0.7459270741785375  0.25407292032334494  0.7459271263766586  1.0000
