data_image0
_chemical_formula_structural       Bi2VF6
_chemical_formula_sum              "Bi2 V1 F6"
_cell_length_a       6.053424247262186
_cell_length_b       6.053423901827905
_cell_length_c       6.053424743210792
_cell_angle_alpha    59.99999971130379
_cell_angle_beta     60.00000012837
_cell_angle_gamma    59.99999860564963

_space_group_name_H-M_alt    "P 1"
_space_group_IT_number       1

loop_
  _space_group_symop_operation_xyz
  'x, y, z'

loop_
  _atom_site_type_symbol
  _atom_site_label
  _atom_site_symmetry_multiplicity
  _atom_site_fract_x
  _atom_site_fract_y
  _atom_site_fract_z
  _atom_site_occupancy
  Bi  Bi1       1.0  0.24999978363699646  0.24999998472991808  0.25000021991366933  1.0000
  Bi  Bi2       1.0  0.7500003173836289  0.7500000877226934  0.7499996025873119  1.0000
  V   V1        1.0  4.37968715920313e-08  0.999999937279972  6.157662213531858e-09  1.0000
  F   F1        1.0  0.23877311972141468  0.2387732099258149  0.7612268045933022  1.0000
  F   F2        1.0  0.7612268535353282  0.7612267937370931  0.23877321695387052  1.0000
  F   F3        1.0  0.7612268597921373  0.23877311305138862  0.23877321480451247  1.0000
  F   F4        1.0  0.2387730868949419  0.7612268501469863  0.7612268584312886  1.0000
  F   F5        1.0  0.23877303055536675  0.7612268484382944  0.23877328570757572  1.0000
  F   F6        1.0  0.7612268974995375  0.2387731248762142  0.7612267934382031  1.0000
