data_image0
_chemical_formula_structural       Bi2VI6
_chemical_formula_sum              "Bi2 V1 I6"
_cell_length_a       7.939950264735423
_cell_length_b       7.939950336160083
_cell_length_c       7.939950101924219
_cell_angle_alpha    60.000000421772995
_cell_angle_beta     60.000000558037655
_cell_angle_gamma    60.00000041279304

_space_group_name_H-M_alt    "P 1"
_space_group_IT_number       1

loop_
  _space_group_symop_operation_xyz
  'x, y, z'

loop_
  _atom_site_type_symbol
  _atom_site_label
  _atom_site_symmetry_multiplicity
  _atom_site_fract_x
  _atom_site_fract_y
  _atom_site_fract_z
  _atom_site_occupancy
  Bi  Bi1       1.0  0.24999996932325677  0.25000002261906695  0.2500000076713188  1.0000
  Bi  Bi2       1.0  0.7499999723114841  0.7500000493470871  0.7499999963197951  1.0000
  V   V1        1.0  0.9999999772909066  0.9999999197895066  1.3458374180463656e-07  1.0000
  I   I1        1.0  0.2405860537138723  0.24058603191742914  0.7594139544563676  1.0000
  I   I2        1.0  0.7594140345699685  0.759414001485988  0.24058597408085092  1.0000
  I   I3        1.0  0.7594139930200831  0.2405859946317195  0.24058601503260413  1.0000
  I   I4        1.0  0.24058604816943674  0.7594139662737523  0.7594139455927652  1.0000
  I   I5        1.0  0.24058598309590046  0.7594140063172131  0.24058599355905066  1.0000
  I   I6        1.0  0.7594139732002482  0.24058600857609036  0.7594139762218195  1.0000
