data_image0
_chemical_formula_structural       Bi2VBr6
_chemical_formula_sum              "Bi2 V1 Br6"
_cell_length_a       7.420497466546369
_cell_length_b       7.42049756444135
_cell_length_c       7.420497343647103
_cell_angle_alpha    60.000000373114936
_cell_angle_beta     60.00000062615633
_cell_angle_gamma    59.99999923362999

_space_group_name_H-M_alt    "P 1"
_space_group_IT_number       1

loop_
  _space_group_symop_operation_xyz
  'x, y, z'

loop_
  _atom_site_type_symbol
  _atom_site_label
  _atom_site_symmetry_multiplicity
  _atom_site_fract_x
  _atom_site_fract_y
  _atom_site_fract_z
  _atom_site_occupancy
  Bi  Bi1       1.0  0.2499999970729912  0.2499999823838577  0.24999993759524491  1.0000
  Bi  Bi2       1.0  0.7500000605825362  0.7499999818118368  0.7500000141261122  1.0000
  V   V1        1.0  3.31175867876324e-08  3.135928941970541e-08  0.9999998033520966  1.0000
  Br  Br1       1.0  0.24071710113845504  0.24071710789313774  0.759282915585193  1.0000
  Br  Br2       1.0  0.759282859472771  0.7592828860113576  0.2407171102324714  1.0000
  Br  Br3       1.0  0.7592828802586176  0.24071715178281008  0.2407170546199458  1.0000
  Br  Br4       1.0  0.24071695878556526  0.7592830154230187  0.7592830437067277  1.0000
  Br  Br5       1.0  0.24071709332803454  0.7592828673242068  0.24071711591254993  1.0000
  Br  Br6       1.0  0.7592830110751514  0.2407169846382423  0.7592830087039322  1.0000
