data_image0
_chemical_formula_structural       Bi2VO6
_chemical_formula_sum              "Bi2 V1 O6"
_cell_length_a       5.417681464342105
_cell_length_b       5.417681499668096
_cell_length_c       5.4176820124915235
_cell_angle_alpha    59.99999699304436
_cell_angle_beta     59.999996364712224
_cell_angle_gamma    59.999998792329365

_space_group_name_H-M_alt    "P 1"
_space_group_IT_number       1

loop_
  _space_group_symop_operation_xyz
  'x, y, z'

loop_
  _atom_site_type_symbol
  _atom_site_label
  _atom_site_symmetry_multiplicity
  _atom_site_fract_x
  _atom_site_fract_y
  _atom_site_fract_z
  _atom_site_occupancy
  Bi  Bi1       1.0  0.250000256337087  0.2500002054097667  0.2499996310739627  1.0000
  Bi  Bi2       1.0  0.7500000962234799  0.7500000194192864  0.7499999710146709  1.0000
  V   V1        1.0  2.9366189263786998e-08  0.9999999502658327  0.9999999400432905  1.0000
  O   O1        1.0  0.2446193337083183  0.24461929296991888  0.755380713584802  1.0000
  O   O2        1.0  0.7553805938334485  0.7553807170979533  0.2446193449836039  1.0000
  O   O3        1.0  0.7553805893281029  0.2446193873540294  0.24461934572563537  1.0000
  O   O4        1.0  0.24461919532791326  0.7553805526338786  0.7553808746998636  1.0000
  O   O5        1.0  0.24461932860569482  0.7553805920493194  0.24461928673322164  1.0000
  O   O6        1.0  0.7553805812204063  0.2446192665554067  0.7553809302569042  1.0000
