data_image0
_chemical_formula_structural       Bi2VTe6
_chemical_formula_sum              "Bi2 V1 Te6"
_cell_length_a       7.172081487245558
_cell_length_b       7.172081303849844
_cell_length_c       7.172081356967473
_cell_angle_alpha    59.99999940631261
_cell_angle_beta     59.99999894186126
_cell_angle_gamma    60.0000013759889

_space_group_name_H-M_alt    "P 1"
_space_group_IT_number       1

loop_
  _space_group_symop_operation_xyz
  'x, y, z'

loop_
  _atom_site_type_symbol
  _atom_site_label
  _atom_site_symmetry_multiplicity
  _atom_site_fract_x
  _atom_site_fract_y
  _atom_site_fract_z
  _atom_site_occupancy
  Bi  Bi1       1.0  0.25000014852721536  0.24999990075438283  0.24999987696520376  1.0000
  Bi  Bi2       1.0  0.7499998365909032  0.7500000899010789  0.7500001417348021  1.0000
  V   V1        1.0  0.9999999715084276  0.999999974385157  0.9999999880129371  1.0000
  Te  Te1       1.0  0.25985491026290924  0.25985479431981884  0.7401451386114266  1.0000
  Te  Te2       1.0  0.7401450877993115  0.7401452492729833  0.2598547049297274  1.0000
  Te  Te3       1.0  0.7401450449781088  0.25985487785618305  0.25985496455044044  1.0000
  Te  Te4       1.0  0.2598549076974161  0.7401450410777198  0.7401451717635257  1.0000
  Te  Te5       1.0  0.25985504331755055  0.7401451509629535  0.25985480848622666  1.0000
  Te  Te6       1.0  0.7401450535067399  0.25985491995235  0.7401451964941989  1.0000
