data_image0
_chemical_formula_structural       Bi2WTe6
_chemical_formula_sum              "Bi2 W1 Te6"
_cell_length_a       7.269033395602054
_cell_length_b       7.269033405208473
_cell_length_c       7.269033672869635
_cell_angle_alpha    59.999999612851504
_cell_angle_beta     59.999998751327624
_cell_angle_gamma    60.0000025407546

_space_group_name_H-M_alt    "P 1"
_space_group_IT_number       1

loop_
  _space_group_symop_operation_xyz
  'x, y, z'

loop_
  _atom_site_type_symbol
  _atom_site_label
  _atom_site_symmetry_multiplicity
  _atom_site_fract_x
  _atom_site_fract_y
  _atom_site_fract_z
  _atom_site_occupancy
  Bi  Bi1       1.0  0.2500000969310631  0.25000000909653186  0.24999989266770334  1.0000
  Bi  Bi2       1.0  0.750000015277297  0.7499997863517562  0.7500001700987492  1.0000
  W   W1        1.0  0.9999997988828749  5.0546391089611305e-08  7.876132184806308e-09  1.0000
  Te  Te1       1.0  0.2597653829515153  0.2597654097838181  0.7402346227786166  1.0000
  Te  Te2       1.0  0.7402346289018725  0.7402347057916564  0.25976529983636004  1.0000
  Te  Te3       1.0  0.7402346067065882  0.2597654891507364  0.2597652676460025  1.0000
  Te  Te4       1.0  0.25976542379336864  0.740234537126101  0.7402346242614711  1.0000
  Te  Te5       1.0  0.25976551446022456  0.7402345461031776  0.25976546710336723  1.0000
  Te  Te6       1.0  0.7402345458527058  0.259765471749263  0.7402346369730036  1.0000
