data_image0
_chemical_formula_structural       Bi2WSe6
_chemical_formula_sum              "Bi2 W1 Se6"
_cell_length_a       6.826451173994675
_cell_length_b       6.826451175014865
_cell_length_c       6.826451237149431
_cell_angle_alpha    60.00000095880189
_cell_angle_beta     60.00000026218654
_cell_angle_gamma    60.000002729602926

_space_group_name_H-M_alt    "P 1"
_space_group_IT_number       1

loop_
  _space_group_symop_operation_xyz
  'x, y, z'

loop_
  _atom_site_type_symbol
  _atom_site_label
  _atom_site_symmetry_multiplicity
  _atom_site_fract_x
  _atom_site_fract_y
  _atom_site_fract_z
  _atom_site_occupancy
  Bi  Bi1       1.0  0.2500000552936447  0.24999996254806484  0.25000003575884977  1.0000
  Bi  Bi2       1.0  0.7499999613431146  0.7499999988794097  0.7500000880078027  1.0000
  W   W1        1.0  0.9999999035019855  0.9999997972648373  2.2139619510714652e-07  1.0000
  Se  Se1       1.0  0.2544044550971152  0.2544045479823607  0.7455955229011484  1.0000
  Se  Se2       1.0  0.7455955705746098  0.7455956197685071  0.25440440675781806  1.0000
  Se  Se3       1.0  0.7455955177028324  0.25440453215698117  0.2544044158969128  1.0000
  Se  Se4       1.0  0.25440456063151223  0.7455954167116766  0.7455954401286192  1.0000
  Se  Se5       1.0  0.2544045162693517  0.7455955058390946  0.2544044631028911  1.0000
  Se  Se6       1.0  0.7455954595805597  0.2544046134706259  0.7455954116803667  1.0000
