data_image0
_chemical_formula_structural       Bi2WO6
_chemical_formula_sum              "Bi2 W1 O6"
_cell_length_a       5.5044617966869955
_cell_length_b       5.5044617256752115
_cell_length_c       5.50446175253801
_cell_angle_alpha    60.00000054354474
_cell_angle_beta     60.000000333363396
_cell_angle_gamma    60.000000545929105

_space_group_name_H-M_alt    "P 1"
_space_group_IT_number       1

loop_
  _space_group_symop_operation_xyz
  'x, y, z'

loop_
  _atom_site_type_symbol
  _atom_site_label
  _atom_site_symmetry_multiplicity
  _atom_site_fract_x
  _atom_site_fract_y
  _atom_site_fract_z
  _atom_site_occupancy
  Bi  Bi1       1.0  0.2499999373301872  0.25000006935214697  0.2499999951637625  1.0000
  Bi  Bi2       1.0  0.7499998599881431  0.7500000011310811  0.7500000813055478  1.0000
  W   W1        1.0  0.9999999969060781  1.5575027062650382e-08  0.9999999919427395  1.0000
  O   O1        1.0  0.24900855893725088  0.24900854473993841  0.7509914618720198  1.0000
  O   O2        1.0  0.750991535353273  0.7509913900180551  0.24900854305735093  1.0000
  O   O3        1.0  0.7509914572217591  0.24900852745674854  0.2490085056355952  1.0000
  O   O4        1.0  0.24900860767838  0.7509914451263103  0.750991449658734  1.0000
  O   O5        1.0  0.24900860587258095  0.7509915124437442  0.249008437599634  1.0000
  O   O6        1.0  0.7509914536867998  0.2490085202144189  0.7509914776105662  1.0000
