data_image0
_chemical_formula_structural       Bi2WS6
_chemical_formula_sum              "Bi2 W1 S6"
_cell_length_a       6.563841320202066
_cell_length_b       6.5638417991884195
_cell_length_c       6.563841411033979
_cell_angle_alpha    60.00000043005525
_cell_angle_beta     59.99999937881648
_cell_angle_gamma    60.00000217536324

_space_group_name_H-M_alt    "P 1"
_space_group_IT_number       1

loop_
  _space_group_symop_operation_xyz
  'x, y, z'

loop_
  _atom_site_type_symbol
  _atom_site_label
  _atom_site_symmetry_multiplicity
  _atom_site_fract_x
  _atom_site_fract_y
  _atom_site_fract_z
  _atom_site_occupancy
  Bi  Bi1       1.0  0.25000007007124875  0.25000004990766783  0.24999989636689976  1.0000
  Bi  Bi2       1.0  0.7500001006139039  0.7499999929877076  0.7499998771142026  1.0000
  W   W1        1.0  3.801889114229986e-09  4.664741048270476e-08  0.9999998818419648  1.0000
  S   S1        1.0  0.25217050836717325  0.2521704223739996  0.7478295266815013  1.0000
  S   S2        1.0  0.7478293967026189  0.7478294040773938  0.2521706173266145  1.0000
  S   S3        1.0  0.7478294116361142  0.2521705843268508  0.2521705719149181  1.0000
  S   S4        1.0  0.2521704958969651  0.7478296358286718  0.7478294867483453  1.0000
  S   S5        1.0  0.25217044944678557  0.7478294873624501  0.25217055220572726  1.0000
  S   S6        1.0  0.7478295533903327  0.25217037827276595  0.7478296177836964  1.0000
