data_image0
_chemical_formula_structural       Bi2YTe6
_chemical_formula_sum              "Bi2 Y1 Te6"
_cell_length_a       7.5975519691582925
_cell_length_b       7.597552380009392
_cell_length_c       7.5975523107614436
_cell_angle_alpha    59.99999936080639
_cell_angle_beta     59.9999998979921
_cell_angle_gamma    60.000002959637484

_space_group_name_H-M_alt    "P 1"
_space_group_IT_number       1

loop_
  _space_group_symop_operation_xyz
  'x, y, z'

loop_
  _atom_site_type_symbol
  _atom_site_label
  _atom_site_symmetry_multiplicity
  _atom_site_fract_x
  _atom_site_fract_y
  _atom_site_fract_z
  _atom_site_occupancy
  Bi  Bi1       1.0  0.24999975743928649  0.25000014894602685  0.25000011011744244  1.0000
  Bi  Bi2       1.0  0.7500001481023687  0.7499999761266436  0.750000014621453  1.0000
  Y   Y1        1.0  1.2896204669978776e-08  0.9999999613113859  7.870687406262456e-08  1.0000
  Te  Te1       1.0  0.27775828715705675  0.2777585641373539  0.7222415830832057  1.0000
  Te  Te2       1.0  0.7222417701861511  0.7222414110169464  0.2777583814522823  1.0000
  Te  Te3       1.0  0.7222415573330285  0.27775845725897635  0.27775842999402134  1.0000
  Te  Te4       1.0  0.2777584654069894  0.7222415259554519  0.7222414727888347  1.0000
  Te  Te5       1.0  0.2777584291208806  0.7222415523665114  0.27775846900567874  1.0000
  Te  Te6       1.0  0.722241578175868  0.27775839054727747  0.7222414655977718  1.0000
