data_image0
_chemical_formula_structural       Bi2YS6
_chemical_formula_sum              "Bi2 Y1 S6"
_cell_length_a       6.619182873528859
_cell_length_b       6.619182937285372
_cell_length_c       6.619182662588568
_cell_angle_alpha    59.999999887519465
_cell_angle_beta     59.99999981969659
_cell_angle_gamma    60.00000032986257

_space_group_name_H-M_alt    "P 1"
_space_group_IT_number       1

loop_
  _space_group_symop_operation_xyz
  'x, y, z'

loop_
  _atom_site_type_symbol
  _atom_site_label
  _atom_site_symmetry_multiplicity
  _atom_site_fract_x
  _atom_site_fract_y
  _atom_site_fract_z
  _atom_site_occupancy
  Bi  Bi1       1.0  0.24999982053427405  0.25000027390127005  0.2499999036359484  1.0000
  Bi  Bi2       1.0  0.7500002012429963  0.7499997855379624  0.7500003652754691  1.0000
  Y   Y1        1.0  0.9999997655508315  1.2767043076595816e-07  2.875572539648652e-07  1.0000
  S   S1        1.0  0.2733671591858615  0.27336731379683776  0.7266327982891196  1.0000
  S   S2        1.0  0.7266329511908721  0.72663267348085  0.2733670756486393  1.0000
  S   S3        1.0  0.7266328538709019  0.27336732527651386  0.2733670126439647  1.0000
  S   S4        1.0  0.2733672187290861  0.726632508426596  0.7266327409307003  1.0000
  S   S5        1.0  0.2733672604803986  0.7266327193269877  0.2733672323156834  1.0000
  S   S6        1.0  0.7266327624608976  0.27336727905247793  0.7266325785679496  1.0000
