data_image0
_chemical_formula_structural       Bi2YI6
_chemical_formula_sum              "Bi2 Y1 I6"
_cell_length_a       8.299270879383094
_cell_length_b       8.299271041771252
_cell_length_c       8.299270659461186
_cell_angle_alpha    60.000000649472426
_cell_angle_beta     60.000001261711205
_cell_angle_gamma    59.99999831850656

_space_group_name_H-M_alt    "P 1"
_space_group_IT_number       1

loop_
  _space_group_symop_operation_xyz
  'x, y, z'

loop_
  _atom_site_type_symbol
  _atom_site_label
  _atom_site_symmetry_multiplicity
  _atom_site_fract_x
  _atom_site_fract_y
  _atom_site_fract_z
  _atom_site_occupancy
  Bi  Bi1       1.0  0.2500000114817917  0.250000007023067  0.2500000115443484  1.0000
  Bi  Bi2       1.0  0.7500000227529272  0.7500000018847663  0.7499999898252288  1.0000
  Y   Y1        1.0  0.9999999775989222  0.9999999586796776  0.9999999933030953  1.0000
  I   I1        1.0  0.25550525499777926  0.25550529382549975  0.7444947198888912  1.0000
  I   I2        1.0  0.7444947790391808  0.7444947741113676  0.2555052279665449  1.0000
  I   I3        1.0  0.7444947457800654  0.255505226446376  0.25550520479459854  1.0000
  I   I4        1.0  0.25550521242353924  0.744494780985734  0.7444948136397443  1.0000
  I   I5        1.0  0.25550521810367116  0.7444947540782588  0.25550522546577115  1.0000
  I   I6        1.0  0.7444947731132499  0.2555052002277198  0.7444948223037824  1.0000
