data_image0
_chemical_formula_structural       Bi2YSe6
_chemical_formula_sum              "Bi2 Y1 Se6"
_cell_length_a       7.002824677624868
_cell_length_b       7.002825012267367
_cell_length_c       7.002824843925629
_cell_angle_alpha    59.99999888993923
_cell_angle_beta     59.99999980990281
_cell_angle_gamma    60.00000079006279

_space_group_name_H-M_alt    "P 1"
_space_group_IT_number       1

loop_
  _space_group_symop_operation_xyz
  'x, y, z'

loop_
  _atom_site_type_symbol
  _atom_site_label
  _atom_site_symmetry_multiplicity
  _atom_site_fract_x
  _atom_site_fract_y
  _atom_site_fract_z
  _atom_site_occupancy
  Bi  Bi1       1.0  0.24999967194721157  0.2500004472753397  0.2499999533416755  1.0000
  Bi  Bi2       1.0  0.750000436594267  0.749999701329949  0.750000195520011  1.0000
  Y   Y1        1.0  4.948436484662206e-08  0.9999999702681959  0.9999999615638171  1.0000
  Se  Se1       1.0  0.272450687676731  0.2724509793092702  0.727549164677479  1.0000
  Se  Se2       1.0  0.727549275080883  0.7275490031477039  0.272450746023634  1.0000
  Se  Se3       1.0  0.7275491563285155  0.2724510437270237  0.2724507388859275  1.0000
  Se  Se4       1.0  0.272450692054392  0.7275489702106821  0.727549311793838  1.0000
  Se  Se5       1.0  0.27245078119090077  0.7275490755064012  0.27245090910397735  1.0000
  Se  Se6       1.0  0.727549238746957  0.2724508195040875  0.7275490138742676  1.0000
