data_image0
_chemical_formula_structural       Bi2YCl6
_chemical_formula_sum              "Bi2 Y1 Cl6"
_cell_length_a       7.261497902642192
_cell_length_b       7.261497790551177
_cell_length_c       7.261498014249759
_cell_angle_alpha    59.99999712700602
_cell_angle_beta     59.999997275895545
_cell_angle_gamma    59.99999804804492

_space_group_name_H-M_alt    "P 1"
_space_group_IT_number       1

loop_
  _space_group_symop_operation_xyz
  'x, y, z'

loop_
  _atom_site_type_symbol
  _atom_site_label
  _atom_site_symmetry_multiplicity
  _atom_site_fract_x
  _atom_site_fract_y
  _atom_site_fract_z
  _atom_site_occupancy
  Bi  Bi1       1.0  0.250000068050133  0.24999984164881972  0.24999999929790687  1.0000
  Bi  Bi2       1.0  0.7500001213732002  0.7500000022623207  0.7499999686337943  1.0000
  Y   Y1        1.0  1.3283558904305897e-08  0.9999999983133722  0.999999944624987  1.0000
  Cl  Cl1       1.0  0.25405056466670156  0.25405063966327407  0.7459493605165121  1.0000
  Cl  Cl2       1.0  0.7459492775844844  0.7459492868926616  0.25405075895863793  1.0000
  Cl  Cl3       1.0  0.7459493726556583  0.2540506236146602  0.2540505617775174  1.0000
  Cl  Cl4       1.0  0.25405053682896617  0.7459495019634376  0.7459494631293653  1.0000
  Cl  Cl5       1.0  0.2540506470597772  0.7459494761371541  0.2540505850408185  1.0000
  Cl  Cl6       1.0  0.7459493953568879  0.25405062751477386  0.7459493526892216  1.0000
