data_image0
_chemical_formula_structural       Bi2YO6
_chemical_formula_sum              "Bi2 Y1 O6"
_cell_length_a       5.603519650029691
_cell_length_b       5.603519688152243
_cell_length_c       5.60351963041388
_cell_angle_alpha    60.00000081074336
_cell_angle_beta     59.999999135016054
_cell_angle_gamma    59.99999967705341

_space_group_name_H-M_alt    "P 1"
_space_group_IT_number       1

loop_
  _space_group_symop_operation_xyz
  'x, y, z'

loop_
  _atom_site_type_symbol
  _atom_site_label
  _atom_site_symmetry_multiplicity
  _atom_site_fract_x
  _atom_site_fract_y
  _atom_site_fract_z
  _atom_site_occupancy
  Bi  Bi1       1.0  0.24999985568280741  0.24999990279793727  0.2500002277252879  1.0000
  Bi  Bi2       1.0  0.7500000446631029  0.7499998766904487  0.7500002799135326  1.0000
  Y   Y1        1.0  2.918148941813419e-08  5.46417669241079e-08  1.3410744252224233e-08  1.0000
  O   O1        1.0  0.2720083004455342  0.2720084020732858  0.7279916190630057  1.0000
  O   O2        1.0  0.727991587032681  0.7279916200245393  0.27200821155825594  1.0000
  O   O3        1.0  0.7279917240543616  0.27200839859828263  0.2720082389026997  1.0000
  O   O4        1.0  0.27200828858183346  0.7279917240403931  0.7279915930830761  1.0000
  O   O5        1.0  0.272008384320107  0.727991654351402  0.2720082912462062  1.0000
  O   O6        1.0  0.7279917771022316  0.27200837430343405  0.7279915311843428  1.0000
