data_image0
_chemical_formula_structural       Bi2YBr6
_chemical_formula_sum              "Bi2 Y1 Br6"
_cell_length_a       7.723681196603811
_cell_length_b       7.7236810576025565
_cell_length_c       7.723681078977947
_cell_angle_alpha    60.000000387478394
_cell_angle_beta     59.99999934921881
_cell_angle_gamma    59.99999904311718

_space_group_name_H-M_alt    "P 1"
_space_group_IT_number       1

loop_
  _space_group_symop_operation_xyz
  'x, y, z'

loop_
  _atom_site_type_symbol
  _atom_site_label
  _atom_site_symmetry_multiplicity
  _atom_site_fract_x
  _atom_site_fract_y
  _atom_site_fract_z
  _atom_site_occupancy
  Bi  Bi1       1.0  0.25000002190180354  0.24999999895514705  0.2500000310870945  1.0000
  Bi  Bi2       1.0  0.7499999763829298  0.7499999508801122  0.7500000793478644  1.0000
  Y   Y1        1.0  5.5587553387224647e-08  0.9999999857286901  0.9999999236689421  1.0000
  Br  Br1       1.0  0.2537377179498286  0.2537377325698002  0.7462622580404623  1.0000
  Br  Br2       1.0  0.7462622335204978  0.7462622680078901  0.2537377235479805  1.0000
  Br  Br3       1.0  0.7462622381500824  0.2537377751580503  0.253737717272248  1.0000
  Br  Br4       1.0  0.2537377060550011  0.7462623189759988  0.7462622729594145  1.0000
  Br  Br5       1.0  0.25373779918388073  0.7462622316961764  0.25373773657714327  1.0000
  Br  Br6       1.0  0.746262255986484  0.25373774033889557  0.7462622514530494  1.0000
