data_image0
_chemical_formula_structural       Bi2YF6
_chemical_formula_sum              "Bi2 Y1 F6"
_cell_length_a       6.213288357598212
_cell_length_b       6.213287930839077
_cell_length_c       6.2132884916713
_cell_angle_alpha    60.00000000628154
_cell_angle_beta     60.00000026604687
_cell_angle_gamma    60.000000479888335

_space_group_name_H-M_alt    "P 1"
_space_group_IT_number       1

loop_
  _space_group_symop_operation_xyz
  'x, y, z'

loop_
  _atom_site_type_symbol
  _atom_site_label
  _atom_site_symmetry_multiplicity
  _atom_site_fract_x
  _atom_site_fract_y
  _atom_site_fract_z
  _atom_site_occupancy
  Bi  Bi1       1.0  0.25000005353575205  0.24999990635819494  0.24999996384975304  1.0000
  Bi  Bi2       1.0  0.7499999365188644  0.7500000679717381  0.7500001912719612  1.0000
  Y   Y1        1.0  2.449788114061234e-08  0.9999999822594671  0.999999980526789  1.0000
  F   F1        1.0  0.24644057300254144  0.24644044511983812  0.7535594916297984  1.0000
  F   F2        1.0  0.7535594246919474  0.7535595508929629  0.2464404605244663  1.0000
  F   F3        1.0  0.7535595192109626  0.2464405272926453  0.24644040125360103  1.0000
  F   F4        1.0  0.24644043885399786  0.753559565307501  0.7535595320784791  1.0000
  F   F5        1.0  0.2464404651790389  0.7535595716665845  0.24644041540433947  1.0000
  F   F6        1.0  0.7535595724638355  0.2464403435282349  0.7535595829359804  1.0000
