data_image0
_chemical_formula_structural       Bi2ZnI6
_chemical_formula_sum              "Bi2 Zn1 I6"
_cell_length_a       7.802366715471004
_cell_length_b       7.8023669248303795
_cell_length_c       7.802366756285799
_cell_angle_alpha    59.99999987613025
_cell_angle_beta     60.00000030300737
_cell_angle_gamma    60.00000052858678

_space_group_name_H-M_alt    "P 1"
_space_group_IT_number       1

loop_
  _space_group_symop_operation_xyz
  'x, y, z'

loop_
  _atom_site_type_symbol
  _atom_site_label
  _atom_site_symmetry_multiplicity
  _atom_site_fract_x
  _atom_site_fract_y
  _atom_site_fract_z
  _atom_site_occupancy
  Bi  Bi1       1.0  0.24999993406959334  0.2500000020936267  0.2500000609499347  1.0000
  Bi  Bi2       1.0  0.7500000921429449  0.7499999356439591  0.7499999488799324  1.0000
  Zn  Zn1       1.0  0.9999999908356609  4.0812443952525436e-08  1.878083168959417e-08  1.0000
  I   I1        1.0  0.25262543260626413  0.2526255127903059  0.7473745258041892  1.0000
  I   I2        1.0  0.7473745420470204  0.7473744641900144  0.25262552094383406  1.0000
  I   I3        1.0  0.7473745229969769  0.25262550670790396  0.25262548737209656  1.0000
  I   I4        1.0  0.252625494977117  0.7473745267819554  0.7473744505042828  1.0000
  I   I5        1.0  0.2526254414836815  0.7473745025499875  0.2526255355460032  1.0000
  I   I6        1.0  0.7473745477740167  0.2526255105336492  0.7473744499616081  1.0000
