data_image0
_chemical_formula_structural       Bi2ZrTe6
_chemical_formula_sum              "Bi2 Zr1 Te6"
_cell_length_a       7.416561585533119
_cell_length_b       7.416561803074793
_cell_length_c       7.416561643250306
_cell_angle_alpha    60.00000041113117
_cell_angle_beta     60.000000693102194
_cell_angle_gamma    59.99999855128833

_space_group_name_H-M_alt    "P 1"
_space_group_IT_number       1

loop_
  _space_group_symop_operation_xyz
  'x, y, z'

loop_
  _atom_site_type_symbol
  _atom_site_label
  _atom_site_symmetry_multiplicity
  _atom_site_fract_x
  _atom_site_fract_y
  _atom_site_fract_z
  _atom_site_occupancy
  Bi  Bi1       1.0  0.25000005917153545  0.25000003518588254  0.24999994438967374  1.0000
  Bi  Bi2       1.0  0.7500000349875318  0.7499999866593874  0.7500002241100918  1.0000
  Zr  Zr1       1.0  0.9999999040833423  4.954094736903455e-08  0.9999996780144272  1.0000
  Te  Te1       1.0  0.26878535153218297  0.2687854479739513  0.731214644273316  1.0000
  Te  Te2       1.0  0.7312146219883671  0.7312146135040777  0.2687852829275844  1.0000
  Te  Te3       1.0  0.7312145678180982  0.26878544603124677  0.2687853640701353  1.0000
  Te  Te4       1.0  0.2687852313730572  0.7312146947122938  0.7312147266194036  1.0000
  Te  Te5       1.0  0.2687854960469251  0.7312145179562128  0.26878538253850004  1.0000
  Te  Te6       1.0  0.7312147199029602  0.26878521324885896  0.7312147571259262  1.0000
