data_image0
_chemical_formula_structural       Bi2ZrSe6
_chemical_formula_sum              "Bi2 Zr1 Se6"
_cell_length_a       6.797311980591739
_cell_length_b       6.797311957493535
_cell_length_c       6.797311973438177
_cell_angle_alpha    60.00000106210978
_cell_angle_beta     60.00000076192787
_cell_angle_gamma    60.000001251034924

_space_group_name_H-M_alt    "P 1"
_space_group_IT_number       1

loop_
  _space_group_symop_operation_xyz
  'x, y, z'

loop_
  _atom_site_type_symbol
  _atom_site_label
  _atom_site_symmetry_multiplicity
  _atom_site_fract_x
  _atom_site_fract_y
  _atom_site_fract_z
  _atom_site_occupancy
  Bi  Bi1       1.0  0.2500000176084255  0.2500000823521038  0.24999989224040456  1.0000
  Bi  Bi2       1.0  0.750000058648952  0.7499998524604408  0.7499999123000621  1.0000
  Zr  Zr1       1.0  5.025561567636949e-09  1.22522917533847e-07  0.9999997994069715  1.0000
  Se  Se1       1.0  0.26713876866094927  0.26713881147730567  0.7328612279056803  1.0000
  Se  Se2       1.0  0.732861136398445  0.7328611629750083  0.26713891016679353  1.0000
  Se  Se3       1.0  0.7328611740869269  0.26713889722096934  0.2671388309143353  1.0000
  Se  Se4       1.0  0.2671388477747553  0.7328610988530369  0.7328612188209422  1.0000
  Se  Se5       1.0  0.2671388507110932  0.7328611409625189  0.2671389236746142  1.0000
  Se  Se6       1.0  0.7328611391832807  0.2671388388952196  0.7328612855000713  1.0000
