data_image0
_chemical_formula_structural       Bi2ZnBr6
_chemical_formula_sum              "Bi2 Zn1 Br6"
_cell_length_a       7.263847135585148
_cell_length_b       7.263847055058828
_cell_length_c       7.263847077858166
_cell_angle_alpha    60.000000079820786
_cell_angle_beta     60.0000008191718
_cell_angle_gamma    60.00000018129277

_space_group_name_H-M_alt    "P 1"
_space_group_IT_number       1

loop_
  _space_group_symop_operation_xyz
  'x, y, z'

loop_
  _atom_site_type_symbol
  _atom_site_label
  _atom_site_symmetry_multiplicity
  _atom_site_fract_x
  _atom_site_fract_y
  _atom_site_fract_z
  _atom_site_occupancy
  Bi  Bi1       1.0  0.24999996662349358  0.25000007807960617  0.24999999571406067  1.0000
  Bi  Bi2       1.0  0.7500000093859884  0.7499998818474808  0.7500001485038449  1.0000
  Zn  Zn1       1.0  3.0043662127396e-08  0.9999999527896772  0.9999999989465637  1.0000
  Br  Br1       1.0  0.24987631109731756  0.24987625888121623  0.7501237194562732  1.0000
  Br  Br2       1.0  0.7501237495330074  0.7501237094762857  0.24987622817777846  1.0000
  Br  Br3       1.0  0.7501236889868194  0.2498763526881615  0.24987625092903032  1.0000
  Br  Br4       1.0  0.24987626543966462  0.750123738753396  0.7501237488388763  1.0000
  Br  Br5       1.0  0.24987627180094166  0.7501237303330625  0.2498762224835845  1.0000
  Br  Br6       1.0  0.7501237039825925  0.24987629703734268  0.7501236830001725  1.0000
