data_image0
_chemical_formula_structural       Bi2ZrO6
_chemical_formula_sum              "Bi2 Zr1 O6"
_cell_length_a       5.55197593481718
_cell_length_b       5.551975862674825
_cell_length_c       5.551976008758683
_cell_angle_alpha    59.999999648542826
_cell_angle_beta     60.0000004045694
_cell_angle_gamma    60.000000237615204

_space_group_name_H-M_alt    "P 1"
_space_group_IT_number       1

loop_
  _space_group_symop_operation_xyz
  'x, y, z'

loop_
  _atom_site_type_symbol
  _atom_site_label
  _atom_site_symmetry_multiplicity
  _atom_site_fract_x
  _atom_site_fract_y
  _atom_site_fract_z
  _atom_site_occupancy
  Bi  Bi1       1.0  0.24999982718652913  0.250000013349531  0.25000005990648366  1.0000
  Bi  Bi2       1.0  0.7499999773487792  0.7500001437288185  0.7499999358207218  1.0000
  Zr  Zr1       1.0  0.9999999621634514  5.7355016134460735e-08  0.9999999019839007  1.0000
  O   O1        1.0  0.2617281975879112  0.2617280700398991  0.7382718835170955  1.0000
  O   O2        1.0  0.7382719025351812  0.7382718554124239  0.26172814146869006  1.0000
  O   O3        1.0  0.738271949350055  0.2617280900765644  0.26172811909832  1.0000
  O   O4        1.0  0.26172807793670966  0.7382719103784723  0.7382719480321247  1.0000
  O   O5        1.0  0.26172814235154357  0.7382718671836264  0.2617280914425907  1.0000
  O   O6        1.0  0.7382719599991562  0.26172801414945285  0.7382718662321472  1.0000
