data_image0
_chemical_formula_structural       Bi2ZrS6
_chemical_formula_sum              "Bi2 Zr1 S6"
_cell_length_a       6.456903870944499
_cell_length_b       6.456904355682131
_cell_length_c       6.45690400480865
_cell_angle_alpha    60.00000204951227
_cell_angle_beta     60.00000028487701
_cell_angle_gamma    60.000003089753456

_space_group_name_H-M_alt    "P 1"
_space_group_IT_number       1

loop_
  _space_group_symop_operation_xyz
  'x, y, z'

loop_
  _atom_site_type_symbol
  _atom_site_label
  _atom_site_symmetry_multiplicity
  _atom_site_fract_x
  _atom_site_fract_y
  _atom_site_fract_z
  _atom_site_occupancy
  Bi  Bi1       1.0  0.2500000378079545  0.25000006840268646  0.24999999839165016  1.0000
  Bi  Bi2       1.0  0.7500000989003482  0.750000216588852  0.7499997721804829  1.0000
  Zr  Zr1       1.0  0.9999999882937692  5.121356685953344e-08  0.999999989538711  1.0000
  S   S1        1.0  0.2688986322188328  0.26889849083444367  0.7311013720691195  1.0000
  S   S2        1.0  0.7311013605996878  0.7311013996229478  0.2688986351916491  1.0000
  S   S3        1.0  0.7311013957105804  0.26889844956397  0.2688987421467833  1.0000
  S   S4        1.0  0.2688985750530655  0.7311013782990616  0.7311013988136638  1.0000
  S   S5        1.0  0.2688985419922796  0.7311013995391563  0.26889863730212565  1.0000
  S   S6        1.0  0.7311013710554006  0.26889854782219774  0.7311014309514366  1.0000
