data_image0
_chemical_formula_structural       Bi2ZnCl6
_chemical_formula_sum              "Bi2 Zn1 Cl6"
_cell_length_a       6.7983305934185045
_cell_length_b       6.798330243226581
_cell_length_c       6.798330610304395
_cell_angle_alpha    60.00000265394043
_cell_angle_beta     60.00000030117545
_cell_angle_gamma    59.999999369370364

_space_group_name_H-M_alt    "P 1"
_space_group_IT_number       1

loop_
  _space_group_symop_operation_xyz
  'x, y, z'

loop_
  _atom_site_type_symbol
  _atom_site_label
  _atom_site_symmetry_multiplicity
  _atom_site_fract_x
  _atom_site_fract_y
  _atom_site_fract_z
  _atom_site_occupancy
  Bi  Bi1       1.0  0.2499996594300938  0.24999991557346535  0.2500001708413402  1.0000
  Bi  Bi2       1.0  0.7500002680007892  0.7500000151494945  0.7499995790045487  1.0000
  Zn  Zn1       1.0  0.9999998578729719  9.007689281596117e-08  1.0986918327180998e-07  1.0000
  Cl  Cl1       1.0  0.24748309763538942  0.24748322245656423  0.7525168989430457  1.0000
  Cl  Cl2       1.0  0.7525167758877408  0.752516803747922  0.2474833567158269  1.0000
  Cl  Cl3       1.0  0.7525169388531181  0.2474830647765699  0.24748306462733477  1.0000
  Cl  Cl4       1.0  0.24748344129604352  0.752516491226548  0.7525169183449543  1.0000
  Cl  Cl5       1.0  0.24748294363920076  0.7525171222975117  0.24748321370392773  1.0000
  Cl  Cl6       1.0  0.7525170168961124  0.2474832696191276  0.7525166787944999  1.0000
