data_image0
_chemical_formula_structural       Br2AsCl6
_chemical_formula_sum              "Br2 As1 Cl6"
_cell_length_a       7.040319915074422
_cell_length_b       7.040319940800618
_cell_length_c       7.040320179420424
_cell_angle_alpha    60.000000902113136
_cell_angle_beta     60.00000296500499
_cell_angle_gamma    60.00000305700024

_space_group_name_H-M_alt    "P 1"
_space_group_IT_number       1

loop_
  _space_group_symop_operation_xyz
  'x, y, z'

loop_
  _atom_site_type_symbol
  _atom_site_label
  _atom_site_symmetry_multiplicity
  _atom_site_fract_x
  _atom_site_fract_y
  _atom_site_fract_z
  _atom_site_occupancy
  Br  Br1       1.0  0.2500000528955337  0.24999997955082012  0.24999986775437227  1.0000
  Br  Br2       1.0  0.749999993082267  0.7500000221539946  0.7499999511187411  1.0000
  As  As1       1.0  4.258075412515653e-09  0.9999999773849995  0.9999998316297191  1.0000
  Cl  Cl1       1.0  0.23818853587588623  0.23818854612762877  0.7618114447288744  1.0000
  Cl  Cl2       1.0  0.7618114139485557  0.7618113946906485  0.23818865009838547  1.0000
  Cl  Cl3       1.0  0.7618113830506674  0.238188666057038  0.23818863643376326  1.0000
  Cl  Cl4       1.0  0.2381885461285885  0.7618114400246963  0.7618114741485398  1.0000
  Cl  Cl5       1.0  0.2381886886259466  0.7618113789315443  0.23818866543995978  1.0000
  Cl  Cl6       1.0  0.7618114204725389  0.23818858102250592  0.761811446711643  1.0000
