data_image0
_chemical_formula_structural       Br2AsF6
_chemical_formula_sum              "Br2 As1 F6"
_cell_length_a       5.269328903782809
_cell_length_b       5.269328735924592
_cell_length_c       5.269328794931536
_cell_angle_alpha    60.00000017142912
_cell_angle_beta     59.99999911595765
_cell_angle_gamma    59.999999017931245

_space_group_name_H-M_alt    "P 1"
_space_group_IT_number       1

loop_
  _space_group_symop_operation_xyz
  'x, y, z'

loop_
  _atom_site_type_symbol
  _atom_site_label
  _atom_site_symmetry_multiplicity
  _atom_site_fract_x
  _atom_site_fract_y
  _atom_site_fract_z
  _atom_site_occupancy
  Br  Br1       1.0  0.2500000151372172  0.2500000022276804  0.25000000504308917  1.0000
  Br  Br2       1.0  0.7499999640654129  0.7500000206287819  0.7500000070784696  1.0000
  As  As1       1.0  1.0846688483244513e-08  0.9999999674599376  0.9999999558112143  1.0000
  F   F1        1.0  0.24442087168076843  0.24442083572920714  0.7555791434647569  1.0000
  F   F2        1.0  0.7555791409240017  0.7555791592357731  0.24442083553707367  1.0000
  F   F3        1.0  0.7555791560677777  0.24442088382371055  0.24442084289462232  1.0000
  F   F4        1.0  0.2444208397580544  0.7555791483299119  0.7555791486756555  1.0000
  F   F5        1.0  0.24442083777954238  0.7555791258925272  0.2444208872547524  1.0000
  F   F6        1.0  0.7555791766406104  0.24442085047813278  0.7555791532742446  1.0000
