data_image0
_chemical_formula_structural       Br2BiF6
_chemical_formula_sum              "Br2 Bi1 F6"
_cell_length_a       6.473533243176542
_cell_length_b       6.473533417947899
_cell_length_c       6.473533198971367
_cell_angle_alpha    60.00000064756776
_cell_angle_beta     59.9999970010592
_cell_angle_gamma    60.00000257079726

_space_group_name_H-M_alt    "P 1"
_space_group_IT_number       1

loop_
  _space_group_symop_operation_xyz
  'x, y, z'

loop_
  _atom_site_type_symbol
  _atom_site_label
  _atom_site_symmetry_multiplicity
  _atom_site_fract_x
  _atom_site_fract_y
  _atom_site_fract_z
  _atom_site_occupancy
  Br  Br1       1.0  0.24999947206627707  0.2500002982306751  0.25000004924686475  1.0000
  Br  Br2       1.0  0.7499994456247757  0.7500008833404957  0.7499999044006165  1.0000
  Bi  Bi1       1.0  2.2705874627748998e-07  0.9999998164831495  0.9999998561936803  1.0000
  F   F1        1.0  0.22278476213874274  0.22278457530222845  0.7772153174913297  1.0000
  F   F2        1.0  0.777215477067884  0.7772149962396553  0.222784710899165  1.0000
  F   F3        1.0  0.7772155340523508  0.22278445353652238  0.22278476661795932  1.0000
  F   F4        1.0  0.2227848529499458  0.777215193682421  0.7772154605312146  1.0000
  F   F5        1.0  0.22278489207146926  0.7772149912368006  0.22278469281254018  1.0000
  F   F6        1.0  0.777215389981686  0.2227845159795897  0.7772155316876139  1.0000
