data_image0
_chemical_formula_structural       Br2GaCl6
_chemical_formula_sum              "Br2 Ga1 Cl6"
_cell_length_a       6.8358766038554375
_cell_length_b       6.835876382849193
_cell_length_c       6.83587647871862
_cell_angle_alpha    60.00000046790974
_cell_angle_beta     60.00000071432927
_cell_angle_gamma    59.9999995096471

_space_group_name_H-M_alt    "P 1"
_space_group_IT_number       1

loop_
  _space_group_symop_operation_xyz
  'x, y, z'

loop_
  _atom_site_type_symbol
  _atom_site_label
  _atom_site_symmetry_multiplicity
  _atom_site_fract_x
  _atom_site_fract_y
  _atom_site_fract_z
  _atom_site_occupancy
  Br  Br1       1.0  0.2499999777886277  0.25000012022122686  0.24999993257471861  1.0000
  Br  Br2       1.0  0.7500000280009933  0.7499999450025513  0.7500000986727017  1.0000
  Ga  Ga1       1.0  0.9999999951374008  0.9999999892501433  1.512057889600398e-08  1.0000
  Cl  Cl1       1.0  0.24279440604336505  0.24279429742508904  0.7572056211052529  1.0000
  Cl  Cl2       1.0  0.7572055782319806  0.7572056853831195  0.2427943787234879  1.0000
  Cl  Cl3       1.0  0.7572056755499764  0.24279433601350967  0.24279431060930498  1.0000
  Cl  Cl4       1.0  0.24279435663711973  0.7572056145451276  0.7572056287250188  1.0000
  Cl  Cl5       1.0  0.24279432679414978  0.7572056415721496  0.24279437929377998  1.0000
  Cl  Cl6       1.0  0.7572056422610222  0.24279437169398682  0.7572056377848774  1.0000
