data_image0
_chemical_formula_structural       Br2NCl6
_chemical_formula_sum              "Br2 N1 Cl6"
_cell_length_a       11.12210322778585
_cell_length_b       11.122104281783843
_cell_length_c       11.122107641746222
_cell_angle_alpha    60.00000310005626
_cell_angle_beta     60.00000738328801
_cell_angle_gamma    59.999994956145315

_space_group_name_H-M_alt    "P 1"
_space_group_IT_number       1

loop_
  _space_group_symop_operation_xyz
  'x, y, z'

loop_
  _atom_site_type_symbol
  _atom_site_label
  _atom_site_symmetry_multiplicity
  _atom_site_fract_x
  _atom_site_fract_y
  _atom_site_fract_z
  _atom_site_occupancy
  Br  Br1       1.0  0.25000119183266023  0.24999958657478802  0.24999970837615648  1.0000
  Br  Br2       1.0  0.7499999436881538  0.7499991682629759  0.7500023623547266  1.0000
  N   N1        1.0  0.9999999388573689  2.301467911331571e-07  0.9999996151951392  1.0000
  Cl  Cl1       1.0  0.1345570619806085  0.1345575229689418  0.8654425644167933  1.0000
  Cl  Cl2       1.0  0.8654425561011967  0.8654427349807214  0.13455702563974067  1.0000
  Cl  Cl3       1.0  0.865442531609113  0.13455732012857205  0.13455716686274233  1.0000
  Cl  Cl4       1.0  0.1345572246904999  0.8654429124939154  0.8654423577573932  1.0000
  Cl  Cl5       1.0  0.13455721293050502  0.8654428496461921  0.1345569548333112  1.0000
  Cl  Cl6       1.0  0.8654423805563738  0.13455759109949558  0.8654424734045532  1.0000
