data_image0
_chemical_formula_structural       Br2NF6
_chemical_formula_sum              "Br2 N1 F6"
_cell_length_a       5.933418018688764
_cell_length_b       5.933417110479063
_cell_length_c       5.933418932007346
_cell_angle_alpha    60.00000858333703
_cell_angle_beta     60.00000542715796
_cell_angle_gamma    60.00001434205835

_space_group_name_H-M_alt    "P 1"
_space_group_IT_number       1

loop_
  _space_group_symop_operation_xyz
  'x, y, z'

loop_
  _atom_site_type_symbol
  _atom_site_label
  _atom_site_symmetry_multiplicity
  _atom_site_fract_x
  _atom_site_fract_y
  _atom_site_fract_z
  _atom_site_occupancy
  Br  Br1       1.0  0.24999961462119843  0.25000014300156975  0.2499997945621245  1.0000
  Br  Br2       1.0  0.7500003019828907  0.7499991781317675  0.7500002575771231  1.0000
  N   N1        1.0  2.183876135723537e-08  4.5411251636016254e-08  5.13848738350313e-09  1.0000
  F   F1        1.0  0.20015596179148942  0.20015589189425462  0.7998441255031377  1.0000
  F   F2        1.0  0.7998443289788288  0.7998443209508915  0.20015585661047433  1.0000
  F   F3        1.0  0.7998443383950454  0.20015592156883302  0.20015583626156072  1.0000
  F   F4        1.0  0.20015566474764637  0.7998442025179681  0.7998445059526338  1.0000
  F   F5        1.0  0.2001556968078606  0.7998445345005758  0.20015542436518902  1.0000
  F   F6        1.0  0.7998440358812151  0.20015589301572004  0.7998441362035871  1.0000
