data_image0
_chemical_formula_structural       Br2SbF6
_chemical_formula_sum              "Br2 Sb1 F6"
_cell_length_a       11.218315729315806
_cell_length_b       11.218318952284466
_cell_length_c       11.218310311913118
_cell_angle_alpha    59.999967047824285
_cell_angle_beta     59.99985140999751
_cell_angle_gamma    59.999990024431504

_space_group_name_H-M_alt    "P 1"
_space_group_IT_number       1

loop_
  _space_group_symop_operation_xyz
  'x, y, z'

loop_
  _atom_site_type_symbol
  _atom_site_label
  _atom_site_symmetry_multiplicity
  _atom_site_fract_x
  _atom_site_fract_y
  _atom_site_fract_z
  _atom_site_occupancy
  Br  Br1       1.0  0.2500000158043803  0.2500017403081168  0.24999842554165727  1.0000
  Br  Br2       1.0  0.749999880182387  0.7499995406187006  0.7500006223292511  1.0000
  Sb  Sb1       1.0  9.281443125098599e-06  3.297073367949224e-07  0.9999928357691076  1.0000
  F   F1        1.0  0.1217885269934415  0.12178593926695129  0.8782107840025403  1.0000
  F   F2        1.0  0.8782079831016765  0.8782114092235707  0.12179349725040259  1.0000
  F   F3        1.0  0.8782092291887352  0.12178651165030924  0.12179255433032907  1.0000
  F   F4        1.0  0.12178848391809688  0.8782134591918495  0.8782104328697723  1.0000
  F   F5        1.0  0.12178335386775657  0.8782139614779323  0.12178792928823269  1.0000
  F   F6        1.0  0.8782131139707908  0.12178695371609075  0.8782131296267874  1.0000
