data_image0
_chemical_formula_structural       Br2YF6
_chemical_formula_sum              "Br2 Y1 F6"
_cell_length_a       6.381649475583448
_cell_length_b       6.381648234192149
_cell_length_c       6.381650019095309
_cell_angle_alpha    59.99999376130261
_cell_angle_beta     59.99999377241571
_cell_angle_gamma    59.99999280805961

_space_group_name_H-M_alt    "P 1"
_space_group_IT_number       1

loop_
  _space_group_symop_operation_xyz
  'x, y, z'

loop_
  _atom_site_type_symbol
  _atom_site_label
  _atom_site_symmetry_multiplicity
  _atom_site_fract_x
  _atom_site_fract_y
  _atom_site_fract_z
  _atom_site_occupancy
  Br  Br1       1.0  0.2499997043220873  0.250000003259199  0.25000053571181163  1.0000
  Br  Br2       1.0  0.7499997837077871  0.7500000385650664  0.7500004143287637  1.0000
  Y   Y1        1.0  1.818499818106372e-08  2.686834497062011e-08  7.462688574222641e-08  1.0000
  F   F1        1.0  0.24623374183873686  0.24623440008613479  0.7537658077825311  1.0000
  F   F2        1.0  0.7537662417526332  0.7537654632555446  0.2462341265734794  1.0000
  F   F3        1.0  0.7537655805033662  0.24623405334421633  0.24623436664357484  1.0000
  F   F4        1.0  0.24623453310493038  0.753766076761701  0.7537653990947205  1.0000
  F   F5        1.0  0.2462345252584589  0.7537661200541851  0.2462336222955317  1.0000
  F   F6        1.0  0.7537658602753939  0.24623385651834193  0.75376571130237  1.0000
