data_image0
_chemical_formula_structural       Br2YCl6
_chemical_formula_sum              "Br2 Y1 Cl6"
_cell_length_a       7.33218385653961
_cell_length_b       7.332183540603927
_cell_length_c       7.332183663707788
_cell_angle_alpha    60.00000092880389
_cell_angle_beta     60.00000237711355
_cell_angle_gamma    60.00000011075743

_space_group_name_H-M_alt    "P 1"
_space_group_IT_number       1

loop_
  _space_group_symop_operation_xyz
  'x, y, z'

loop_
  _atom_site_type_symbol
  _atom_site_label
  _atom_site_symmetry_multiplicity
  _atom_site_fract_x
  _atom_site_fract_y
  _atom_site_fract_z
  _atom_site_occupancy
  Br  Br1       1.0  0.24999995513899975  0.25000002368092566  0.25000002280819383  1.0000
  Br  Br2       1.0  0.7500000466053772  0.7499999290614519  0.7500001061027628  1.0000
  Y   Y1        1.0  1.165979751604967e-08  2.1714790679841702e-08  0.9999999573995528  1.0000
  Cl  Cl1       1.0  0.2526819747518805  0.2526820013631662  0.7473180280599723  1.0000
  Cl  Cl2       1.0  0.7473179997889485  0.7473180566124282  0.25268197045818874  1.0000
  Cl  Cl3       1.0  0.7473180031370075  0.2526819984021978  0.25268197724878966  1.0000
  Cl  Cl4       1.0  0.2526820162963204  0.7473179626920212  0.7473180090760042  1.0000
  Cl  Cl5       1.0  0.25268195406714766  0.7473180323532418  0.25268195471773613  1.0000
  Cl  Cl6       1.0  0.7473180546916489  0.2526819654890843  0.7473179708355137  1.0000
