data_image0
_chemical_formula_structural       C2NO6
_chemical_formula_sum              "C2 N1 O6"
_cell_length_a       15.143890577302875
_cell_length_b       13.951796464656187
_cell_length_c       21.09590691404355
_cell_angle_alpha    41.48348900725692
_cell_angle_beta     42.889445363847905
_cell_angle_gamma    30.46819958529962

_space_group_name_H-M_alt    "P 1"
_space_group_IT_number       1

loop_
  _space_group_symop_operation_xyz
  'x, y, z'

loop_
  _atom_site_type_symbol
  _atom_site_label
  _atom_site_symmetry_multiplicity
  _atom_site_fract_x
  _atom_site_fract_y
  _atom_site_fract_z
  _atom_site_occupancy
  C   C1        1.0  0.049604532695511565  0.8840235787954883  0.1972635988312529  1.0000
  C   C2        1.0  0.9644403083828159  0.9239116843236265  0.14072580775228935  1.0000
  N   N1        1.0  0.9737934968284361  0.19464240548376008  0.9824760358281894  1.0000
  O   O1        1.0  0.1197886269718961  0.8615459468267529  0.2202951258569512  1.0000
  O   O2        1.0  0.9078875158575396  0.9680550702006405  0.09579639389468253  1.0000
  O   O3        1.0  0.8798242984241132  0.04524742240404524  0.18227806926282608  1.0000
  O   O4        1.0  0.10485313522313541  0.022992987859669745  0.021057742771396937  1.0000
  O   O5        1.0  0.12213556325334703  0.7509647398224675  0.1719775765734874  1.0000
  O   O6        1.0  0.8777078237981106  0.34859875260805107  0.9881549749785568  1.0000
