data_image0
_chemical_formula_structural       Ca2AsCl6
_chemical_formula_sum              "Ca2 As1 Cl6"
_cell_length_a       6.944114805294247
_cell_length_b       6.944114644198807
_cell_length_c       6.944114661758315
_cell_angle_alpha    60.00000078495215
_cell_angle_beta     59.99999848266759
_cell_angle_gamma    59.99999974487582

_space_group_name_H-M_alt    "P 1"
_space_group_IT_number       1

loop_
  _space_group_symop_operation_xyz
  'x, y, z'

loop_
  _atom_site_type_symbol
  _atom_site_label
  _atom_site_symmetry_multiplicity
  _atom_site_fract_x
  _atom_site_fract_y
  _atom_site_fract_z
  _atom_site_occupancy
  Ca  Ca1       1.0  0.2500000929609256  0.24999988959565808  0.24999998447649346  1.0000
  Ca  Ca2       1.0  0.7500001558087959  0.7500000479859948  0.7499999679337356  1.0000
  As  As1       1.0  1.3320087374284691e-08  0.9999999700168224  3.713291245038994e-08  1.0000
  Cl  Cl1       1.0  0.25160064675273663  0.25160067586709656  0.7483993589442677  1.0000
  Cl  Cl2       1.0  0.7483992763668244  0.7483993058074642  0.25160067376172107  1.0000
  Cl  Cl3       1.0  0.7483992721396008  0.2516006942214862  0.2516006627248416  1.0000
  Cl  Cl4       1.0  0.2516006349710315  0.7483994003309219  0.7483993273069626  1.0000
  Cl  Cl5       1.0  0.25160070111968397  0.7483992449185854  0.25160072329343675  1.0000
  Cl  Cl6       1.0  0.7483992040774147  0.2516007755577347  0.7483992701715363  1.0000
