data_image0
_chemical_formula_structural       Ca2AsI6
_chemical_formula_sum              "Ca2 As1 I6"
_cell_length_a       7.9045518041250995
_cell_length_b       7.904551939063757
_cell_length_c       7.904551838592098
_cell_angle_alpha    60.00000048959783
_cell_angle_beta     60.00000078337836
_cell_angle_gamma    60.00000062651343

_space_group_name_H-M_alt    "P 1"
_space_group_IT_number       1

loop_
  _space_group_symop_operation_xyz
  'x, y, z'

loop_
  _atom_site_type_symbol
  _atom_site_label
  _atom_site_symmetry_multiplicity
  _atom_site_fract_x
  _atom_site_fract_y
  _atom_site_fract_z
  _atom_site_occupancy
  Ca  Ca1       1.0  0.2500000055165278  0.2500000436979208  0.25000001152260637  1.0000
  Ca  Ca2       1.0  0.7499999967794203  0.749999993195633  0.7499999577954204  1.0000
  As  As1       1.0  0.9999999847868697  6.197668675920594e-09  3.3604889495800224e-08  1.0000
  I   I1        1.0  0.2553156762681211  0.2553156883074764  0.7446843021022829  1.0000
  I   I2        1.0  0.7446843220150673  0.7446843036529789  0.255315690423579  1.0000
  I   I3        1.0  0.7446843051291128  0.25531567020729196  0.25531570691320093  1.0000
  I   I4        1.0  0.25531569341991367  0.7446843078084087  0.7446843114285272  1.0000
  I   I5        1.0  0.2553156890953907  0.7446842982943126  0.2553156837954971  1.0000
  I   I6        1.0  0.7446843273225372  0.25531568746847405  0.7446843027618296  1.0000
