data_image0
_chemical_formula_structural       Ca2AsBr6
_chemical_formula_sum              "Ca2 As1 Br6"
_cell_length_a       7.300557126475611
_cell_length_b       7.30055709650093
_cell_length_c       7.300557111102493
_cell_angle_alpha    59.9999997575504
_cell_angle_beta     59.99999898391399
_cell_angle_gamma    60.00000110709093

_space_group_name_H-M_alt    "P 1"
_space_group_IT_number       1

loop_
  _space_group_symop_operation_xyz
  'x, y, z'

loop_
  _atom_site_type_symbol
  _atom_site_label
  _atom_site_symmetry_multiplicity
  _atom_site_fract_x
  _atom_site_fract_y
  _atom_site_fract_z
  _atom_site_occupancy
  Ca  Ca1       1.0  0.2499999110279216  0.24999996287305817  0.2500001201740464  1.0000
  Ca  Ca2       1.0  0.750000087836236  0.7500000580572516  0.7499998559796114  1.0000
  As  As1       1.0  2.1696453999291143e-08  0.9999999681255118  9.412331804125296e-08  1.0000
  Br  Br1       1.0  0.2536131410244194  0.25361318892103135  0.7463868201295211  1.0000
  Br  Br2       1.0  0.7463867988714892  0.7463868001347886  0.25361322747091747  1.0000
  Br  Br3       1.0  0.746386837924371  0.25361316135984896  0.2536132026235251  1.0000
  Br  Br4       1.0  0.2536132446253073  0.7463867840782518  0.7463867379290308  1.0000
  Br  Br5       1.0  0.25361313922927337  0.7463868602111171  0.25361316757913765  1.0000
  Br  Br6       1.0  0.7463868238789084  0.25361321104733175  0.7463867643049595  1.0000
