data_image0
_chemical_formula_structural       Ca2BCl6
_chemical_formula_sum              "Ca2 B1 Cl6"
_cell_length_a       6.60452453240579
_cell_length_b       6.604524765667643
_cell_length_c       6.604524901923314
_cell_angle_alpha    59.99999646316595
_cell_angle_beta     60.000001228945386
_cell_angle_gamma    60.000004339676025

_space_group_name_H-M_alt    "P 1"
_space_group_IT_number       1

loop_
  _space_group_symop_operation_xyz
  'x, y, z'

loop_
  _atom_site_type_symbol
  _atom_site_label
  _atom_site_symmetry_multiplicity
  _atom_site_fract_x
  _atom_site_fract_y
  _atom_site_fract_z
  _atom_site_occupancy
  Ca  Ca1       1.0  0.2499998978963005  0.24999923288970982  0.2500015856133921  1.0000
  Ca  Ca2       1.0  0.7500010135629593  0.7500000593240241  0.7500004727965677  1.0000
  B   B1        1.0  1.3365057002683233e-06  0.9999952824000656  0.9999881710282345  1.0000
  Cl  Cl1       1.0  0.22304109153751006  0.22304167852599552  0.7769591010872942  1.0000
  Cl  Cl2       1.0  0.7769594385080325  0.7769602265412543  0.22304055763449343  1.0000
  Cl  Cl3       1.0  0.7769561620663887  0.2230437732262229  0.22304390433089089  1.0000
  Cl  Cl4       1.0  0.22303790326368822  0.7769621317871349  0.7769625677975238  1.0000
  Cl  Cl5       1.0  0.2230422532814589  0.7769583453596763  0.22304242131483623  1.0000
  Cl  Cl6       1.0  0.7769608994997321  0.2230392686196165  0.7769612345662611  1.0000
