data_image0
_chemical_formula_structural       Ca2BiI6
_chemical_formula_sum              "Ca2 Bi1 I6"
_cell_length_a       8.123619354808465
_cell_length_b       8.123619363603853
_cell_length_c       8.123619452971171
_cell_angle_alpha    59.999999666864845
_cell_angle_beta     59.99999934542829
_cell_angle_gamma    60.00000185476427

_space_group_name_H-M_alt    "P 1"
_space_group_IT_number       1

loop_
  _space_group_symop_operation_xyz
  'x, y, z'

loop_
  _atom_site_type_symbol
  _atom_site_label
  _atom_site_symmetry_multiplicity
  _atom_site_fract_x
  _atom_site_fract_y
  _atom_site_fract_z
  _atom_site_occupancy
  Ca  Ca1       1.0  0.25000006699942723  0.25000002211856404  0.24999999730352243  1.0000
  Ca  Ca2       1.0  0.7499999013687259  0.750000001527402  0.749999967335121  1.0000
  Bi  Bi1       1.0  5.295190744071544e-08  0.9999999562786014  0.9999999855369184  1.0000
  I   I1        1.0  0.2636056200749053  0.2636056161854373  0.736394392136485  1.0000
  I   I2        1.0  0.7363944050068446  0.7363943652467646  0.2636056083364858  1.0000
  I   I3        1.0  0.7363943159714741  0.2636056543351062  0.2636056299161612  1.0000
  I   I4        1.0  0.263605630070418  0.7363943723261284  0.7363944256225525  1.0000
  I   I5        1.0  0.2636056434365614  0.7363943913051476  0.2636056048740424  1.0000
  I   I6        1.0  0.7363943644872355  0.2636056202797437  0.7363943891015602  1.0000
