data_image0
_chemical_formula_structural       Ca2BiF6
_chemical_formula_sum              "Ca2 Bi1 F6"
_cell_length_a       6.146476773678286
_cell_length_b       6.146475673363689
_cell_length_c       6.146476418357177
_cell_angle_alpha    59.99999786647856
_cell_angle_beta     60.00000202699389
_cell_angle_gamma    59.99999553864204

_space_group_name_H-M_alt    "P 1"
_space_group_IT_number       1

loop_
  _space_group_symop_operation_xyz
  'x, y, z'

loop_
  _atom_site_type_symbol
  _atom_site_label
  _atom_site_symmetry_multiplicity
  _atom_site_fract_x
  _atom_site_fract_y
  _atom_site_fract_z
  _atom_site_occupancy
  Ca  Ca1       1.0  0.24999994431779715  0.2499997875033554  0.2500001233416106  1.0000
  Ca  Ca2       1.0  0.7499998813448367  0.750000338882624  0.7499998202230307  1.0000
  Bi  Bi1       1.0  1.633794746231162e-08  2.9888954931599766e-08  0.9999999378397876  1.0000
  F   F1        1.0  0.25915760406783633  0.25915741127115244  0.74084250463138  1.0000
  F   F2        1.0  0.7408424381917862  0.7408425218329125  0.2591575395351617  1.0000
  F   F3        1.0  0.7408425648298443  0.259157240640349  0.259157648507505  1.0000
  F   F4        1.0  0.25915751699513623  0.7408426864859251  0.7408424130311696  1.0000
  F   F5        1.0  0.2591573895876105  0.740842706339952  0.25915751945212623  1.0000
  F   F6        1.0  0.74084260511671  0.25915729052721975  0.7408425345069466  1.0000
