data_image0
_chemical_formula_structural       Ca2BI6
_chemical_formula_sum              "Ca2 B1 I6"
_cell_length_a       7.629681891267702
_cell_length_b       7.629681832404917
_cell_length_c       7.629681934084
_cell_angle_alpha    59.99999917406993
_cell_angle_beta     59.99999940811222
_cell_angle_gamma    59.999999549926585

_space_group_name_H-M_alt    "P 1"
_space_group_IT_number       1

loop_
  _space_group_symop_operation_xyz
  'x, y, z'

loop_
  _atom_site_type_symbol
  _atom_site_label
  _atom_site_symmetry_multiplicity
  _atom_site_fract_x
  _atom_site_fract_y
  _atom_site_fract_z
  _atom_site_occupancy
  Ca  Ca1       1.0  0.25000015123056546  0.24999995760599372  0.25000000869714956  1.0000
  Ca  Ca2       1.0  0.7499997983859458  0.7500001633659068  0.7500000629859229  1.0000
  B   B1        1.0  4.2040381035796575e-08  0.9999999646847825  0.9999999887733945  1.0000
  I   I1        1.0  0.24548162404355056  0.24548154424496765  0.7545183968136397  1.0000
  I   I2        1.0  0.754518360660017  0.7545184033613198  0.2454816234270139  1.0000
  I   I3        1.0  0.7545184074437011  0.24548158297725142  0.2454815734858113  1.0000
  I   I4        1.0  0.24548159601643288  0.754518412786151  0.7545184067446482  1.0000
  I   I5        1.0  0.24548164117382637  0.7545183789116514  0.2454815338322358  1.0000
  I   I6        1.0  0.7545183802796342  0.24548159919414236  0.7545184016675633  1.0000
