data_image0
_chemical_formula_structural       Ca2BF6
_chemical_formula_sum              "Ca2 B1 F6"
_cell_length_a       5.321367568509728
_cell_length_b       5.321367006965392
_cell_length_c       5.321367620036271
_cell_angle_alpha    59.9999970462717
_cell_angle_beta     60.00000065886295
_cell_angle_gamma    59.99999855240674

_space_group_name_H-M_alt    "P 1"
_space_group_IT_number       1

loop_
  _space_group_symop_operation_xyz
  'x, y, z'

loop_
  _atom_site_type_symbol
  _atom_site_label
  _atom_site_symmetry_multiplicity
  _atom_site_fract_x
  _atom_site_fract_y
  _atom_site_fract_z
  _atom_site_occupancy
  Ca  Ca1       1.0  0.25000003780307073  0.24999992096023668  0.2500000654275989  1.0000
  Ca  Ca2       1.0  0.7499999020457037  0.7499999608149258  0.750000013196611  1.0000
  B   B1        1.0  2.073663093480129e-08  0.9999998987313297  1.060385846594032e-07  1.0000
  F   F1        1.0  0.24001168881489116  0.24001159911084372  0.7599883819121813  1.0000
  F   F2        1.0  0.7599883903231135  0.759988450678253  0.24001154118123236  1.0000
  F   F3        1.0  0.7599884111528675  0.2400116234704428  0.24001150968298665  1.0000
  F   F4        1.0  0.24001159344026515  0.7599884286202128  0.759988380001085  1.0000
  F   F5        1.0  0.24001159682941997  0.7599882989045069  0.24001168952275756  1.0000
  F   F6        1.0  0.7599883579643227  0.24001178540799814  0.7599882784810822  1.0000
