data_image0
_chemical_formula_structural       Ca2BiBr6
_chemical_formula_sum              "Ca2 Bi1 Br6"
_cell_length_a       7.5282070741446985
_cell_length_b       7.528207185118302
_cell_length_c       7.528207219639404
_cell_angle_alpha    59.9999994593258
_cell_angle_beta     59.99999938923302
_cell_angle_gamma    60.00000117153772

_space_group_name_H-M_alt    "P 1"
_space_group_IT_number       1

loop_
  _space_group_symop_operation_xyz
  'x, y, z'

loop_
  _atom_site_type_symbol
  _atom_site_label
  _atom_site_symmetry_multiplicity
  _atom_site_fract_x
  _atom_site_fract_y
  _atom_site_fract_z
  _atom_site_occupancy
  Ca  Ca1       1.0  0.24999992276328759  0.2500000178672533  0.25000000113259974  1.0000
  Ca  Ca2       1.0  0.7500000403683186  0.7499999690042866  0.7500000345210336  1.0000
  Bi  Bi1       1.0  1.327816012652784e-08  0.9999999739700073  2.630097896925438e-08  1.0000
  Br  Br1       1.0  0.263679442582919  0.2636794522020114  0.736320565220555  1.0000
  Br  Br2       1.0  0.7363205736905181  0.7363205362964037  0.2636794350787002  1.0000
  Br  Br3       1.0  0.7363205462283183  0.26367949439855054  0.2636794318624312  1.0000
  Br  Br4       1.0  0.2636794822998123  0.7363205217567321  0.7363205285559806  1.0000
  Br  Br5       1.0  0.26367947728389696  0.736320554802515  0.2636794439395878  1.0000
  Br  Br6       1.0  0.7363205070262676  0.2636794743677636  0.7363205360653214  1.0000
