data_image0
_chemical_formula_structural       Ca2BiCl6
_chemical_formula_sum              "Ca2 Bi1 Cl6"
_cell_length_a       7.167647663871208
_cell_length_b       7.167647638965546
_cell_length_c       7.167647550925261
_cell_angle_alpha    59.9999998807182
_cell_angle_beta     59.999999404352906
_cell_angle_gamma    59.99999778952089

_space_group_name_H-M_alt    "P 1"
_space_group_IT_number       1

loop_
  _space_group_symop_operation_xyz
  'x, y, z'

loop_
  _atom_site_type_symbol
  _atom_site_label
  _atom_site_symmetry_multiplicity
  _atom_site_fract_x
  _atom_site_fract_y
  _atom_site_fract_z
  _atom_site_occupancy
  Ca  Ca1       1.0  0.25000000649615783  0.2500000250760793  0.25000008359012504  1.0000
  Ca  Ca2       1.0  0.750000066567411  0.7499999436573778  0.7500000949039171  1.0000
  Bi  Bi1       1.0  0.9999999968925117  0.999999965825751  0.9999999628345534  1.0000
  Cl  Cl1       1.0  0.26243789219484415  0.2624379589179686  0.7375620222262677  1.0000
  Cl  Cl2       1.0  0.7375621182997693  0.737562052533302  0.2624378913472425  1.0000
  Cl  Cl3       1.0  0.7375620354870867  0.2624379417555304  0.2624378390029409  1.0000
  Cl  Cl4       1.0  0.2624377830204873  0.7375622251885782  0.7375620788660923  1.0000
  Cl  Cl5       1.0  0.2624379134427787  0.7375621012782428  0.26243786145139886  1.0000
  Cl  Cl6       1.0  0.7375621946410162  0.2624377768934535  0.7375621648380436  1.0000
