data_image0
_chemical_formula_structural       Ca2GaBr6
_chemical_formula_sum              "Ca2 Ga1 Br6"
_cell_length_a       7.163990917997762
_cell_length_b       7.163990983150046
_cell_length_c       7.163991043793713
_cell_angle_alpha    59.99999929322664
_cell_angle_beta     59.99999991443573
_cell_angle_gamma    60.000001049760755

_space_group_name_H-M_alt    "P 1"
_space_group_IT_number       1

loop_
  _space_group_symop_operation_xyz
  'x, y, z'

loop_
  _atom_site_type_symbol
  _atom_site_label
  _atom_site_symmetry_multiplicity
  _atom_site_fract_x
  _atom_site_fract_y
  _atom_site_fract_z
  _atom_site_occupancy
  Ca  Ca1       1.0  0.2500000859149468  0.2499999330511785  0.2500000141114628  1.0000
  Ca  Ca2       1.0  0.7499999410111136  0.7500000675583156  0.7499999757673113  1.0000
  Ga  Ga1       1.0  7.897063109168857e-09  0.9999999521316311  1.0214563268144413e-08  1.0000
  Br  Br1       1.0  0.2510376830434973  0.25103763560318765  0.7489623388812842  1.0000
  Br  Br2       1.0  0.7489623311836137  0.7489623547487987  0.251037640141799  1.0000
  Br  Br3       1.0  0.748962263735067  0.2510377196469226  0.2510376814989191  1.0000
  Br  Br4       1.0  0.2510376684348618  0.7489623476363697  0.7489623517342905  1.0000
  Br  Br5       1.0  0.25103769537958315  0.7489623270429427  0.2510376431543475  1.0000
  Br  Br6       1.0  0.7489623209314284  0.25103766672821276  0.7489623414924207  1.0000
