data_image0
_chemical_formula_structural       Ca2GaCl6
_chemical_formula_sum              "Ca2 Ga1 Cl6"
_cell_length_a       6.805448946755642
_cell_length_b       6.805449168411262
_cell_length_c       6.805448990496143
_cell_angle_alpha    60.000000101403444
_cell_angle_beta     60.00000051569255
_cell_angle_gamma    60.00000163215948

_space_group_name_H-M_alt    "P 1"
_space_group_IT_number       1

loop_
  _space_group_symop_operation_xyz
  'x, y, z'

loop_
  _atom_site_type_symbol
  _atom_site_label
  _atom_site_symmetry_multiplicity
  _atom_site_fract_x
  _atom_site_fract_y
  _atom_site_fract_z
  _atom_site_occupancy
  Ca  Ca1       1.0  0.249999905998721  0.2500001165425798  0.24999995850366533  1.0000
  Ca  Ca2       1.0  0.7500000677196879  0.7499998349269158  0.7500001387371744  1.0000
  Ga  Ga1       1.0  0.9999999653449428  3.779272036454304e-08  0.9999997530395703  1.0000
  Cl  Cl1       1.0  0.24752179045064432  0.24752182633879832  0.7524781782420247  1.0000
  Cl  Cl2       1.0  0.7524782533982366  0.7524781845192556  0.24752178076876163  1.0000
  Cl  Cl3       1.0  0.7524781754514527  0.24752191927933287  0.24752176428470413  1.0000
  Cl  Cl4       1.0  0.2475216750701758  0.7524782643454287  0.7524782902321768  1.0000
  Cl  Cl5       1.0  0.24752188083587356  0.7524780991380009  0.2475218365422529  1.0000
  Cl  Cl6       1.0  0.7524782842895541  0.24752172095680974  0.7524783026835489  1.0000
