data_image0
_chemical_formula_structural       Ca2GaI6
_chemical_formula_sum              "Ca2 Ga1 I6"
_cell_length_a       7.822468295480069
_cell_length_b       7.822468340921463
_cell_length_c       7.822468166581019
_cell_angle_alpha    60.000000994947065
_cell_angle_beta     60.00000109736526
_cell_angle_gamma    59.99999942261728

_space_group_name_H-M_alt    "P 1"
_space_group_IT_number       1

loop_
  _space_group_symop_operation_xyz
  'x, y, z'

loop_
  _atom_site_type_symbol
  _atom_site_label
  _atom_site_symmetry_multiplicity
  _atom_site_fract_x
  _atom_site_fract_y
  _atom_site_fract_z
  _atom_site_occupancy
  Ca  Ca1       1.0  0.24999992795326986  0.24999999149379443  0.25000002988083553  1.0000
  Ca  Ca2       1.0  0.7499999836135964  0.7500000527651656  0.7500000324393323  1.0000
  Ga  Ga1       1.0  9.69077091824789e-09  5.949567665348517e-08  0.9999999104369138  1.0000
  I   I1        1.0  0.2527470602718087  0.25274703878565674  0.7472529473420157  1.0000
  I   I2        1.0  0.7472529114456237  0.747252895876003  0.2527470975153456  1.0000
  I   I3        1.0  0.7472529552934875  0.2527470544751248  0.25274701470779654  1.0000
  I   I4        1.0  0.25274706066185104  0.7472529600359952  0.7472529348682906  1.0000
  I   I5        1.0  0.2527471218051328  0.7472529189158217  0.252747056935678  1.0000
  I   I6        1.0  0.7472529701647044  0.25274703140259336  0.7472529736585976  1.0000
