data_image0
_chemical_formula_structural       Ca2IrCl6
_chemical_formula_sum              "Ca2 Ir1 Cl6"
_cell_length_a       6.86253202022058
_cell_length_b       6.862531951926949
_cell_length_c       6.8625319001504055
_cell_angle_alpha    59.99999941443834
_cell_angle_beta     59.99999936588419
_cell_angle_gamma    59.99999776871813

_space_group_name_H-M_alt    "P 1"
_space_group_IT_number       1

loop_
  _space_group_symop_operation_xyz
  'x, y, z'

loop_
  _atom_site_type_symbol
  _atom_site_label
  _atom_site_symmetry_multiplicity
  _atom_site_fract_x
  _atom_site_fract_y
  _atom_site_fract_z
  _atom_site_occupancy
  Ca  Ca1       1.0  0.24999997057666162  0.2499999856804421  0.250000015076606  1.0000
  Ca  Ca2       1.0  0.7499999648592178  0.7499999945196827  0.7500000552991715  1.0000
  Ir  Ir1       1.0  0.999999976288771  9.637291984688912e-08  0.9999999855269761  1.0000
  Cl  Cl1       1.0  0.24372404097991726  0.24372406283442813  0.7562759603276114  1.0000
  Cl  Cl2       1.0  0.7562759513937252  0.7562758727486033  0.2437240718296922  1.0000
  Cl  Cl3       1.0  0.7562759509479356  0.24372405796246133  0.2437240344462507  1.0000
  Cl  Cl4       1.0  0.24372409305894824  0.7562759347304475  0.7562758879663439  1.0000
  Cl  Cl5       1.0  0.2437241062049777  0.7562759443725661  0.24372402819063813  1.0000
  Cl  Cl6       1.0  0.7562759409630017  0.24372405902844452  0.7562759601467641  1.0000
