data_image0
_chemical_formula_structural       Ca2IrI6
_chemical_formula_sum              "Ca2 Ir1 I6"
_cell_length_a       7.712712432782704
_cell_length_b       7.7127124699848935
_cell_length_c       7.712712374926724
_cell_angle_alpha    60.00000040279624
_cell_angle_beta     60.00000012958864
_cell_angle_gamma    59.999999540406954

_space_group_name_H-M_alt    "P 1"
_space_group_IT_number       1

loop_
  _space_group_symop_operation_xyz
  'x, y, z'

loop_
  _atom_site_type_symbol
  _atom_site_label
  _atom_site_symmetry_multiplicity
  _atom_site_fract_x
  _atom_site_fract_y
  _atom_site_fract_z
  _atom_site_occupancy
  Ca  Ca1       1.0  0.2499999965474541  0.24999999268400838  0.2500000262248664  1.0000
  Ca  Ca2       1.0  0.7500000022240308  0.7499999986954541  0.7500000050133783  1.0000
  Ir  Ir1       1.0  7.90861687521615e-09  3.017116553814787e-08  2.6339734393584785e-08  1.0000
  I   I1        1.0  0.24642885508148932  0.24642884641438695  0.7535711483833497  1.0000
  I   I2        1.0  0.7535711303973751  0.753571135437339  0.24642885277513008  1.0000
  I   I3        1.0  0.7535711497561235  0.24642886892722202  0.2464288648164574  1.0000
  I   I4        1.0  0.24642885270501064  0.7535711383318011  0.7535711021816314  1.0000
  I   I5        1.0  0.24642886422043273  0.7535711190773481  0.24642888424138296  1.0000
  I   I6        1.0  0.7535711401011078  0.246428869126202  0.7535710900576786  1.0000
