data_image0
_chemical_formula_structural       Ca2IrBr6
_chemical_formula_sum              "Ca2 Ir1 Br6"
_cell_length_a       7.164907816552558
_cell_length_b       7.164907830528137
_cell_length_c       7.164907663208037
_cell_angle_alpha    60.000000484816766
_cell_angle_beta     60.00000140718534
_cell_angle_gamma    60.000000002416044

_space_group_name_H-M_alt    "P 1"
_space_group_IT_number       1

loop_
  _space_group_symop_operation_xyz
  'x, y, z'

loop_
  _atom_site_type_symbol
  _atom_site_label
  _atom_site_symmetry_multiplicity
  _atom_site_fract_x
  _atom_site_fract_y
  _atom_site_fract_z
  _atom_site_occupancy
  Ca  Ca1       1.0  0.2499999762947372  0.2499999871380749  0.24999995184405516  1.0000
  Ca  Ca2       1.0  0.7500000058166933  0.7500000400450508  0.7500001015509159  1.0000
  Ir  Ir1       1.0  0.9999999440797269  1.4358673144201375e-07  0.999999854281298  1.0000
  Br  Br1       1.0  0.24580481636447363  0.2458048055767976  0.7541951823676369  1.0000
  Br  Br2       1.0  0.75419514579046  0.7541951412661344  0.24580482347728164  1.0000
  Br  Br3       1.0  0.7541951741408829  0.24580486227512713  0.2458048261677684  1.0000
  Br  Br4       1.0  0.24580483548237508  0.754195130720682  0.7541951677588348  1.0000
  Br  Br5       1.0  0.245804898782964  0.7541951234657173  0.2458048224811785  1.0000
  Br  Br6       1.0  0.7541952036152008  0.24580476525877484  0.7541952693092626  1.0000
