data_image0
_chemical_formula_structural       Ca2MoBr6
_chemical_formula_sum              "Ca2 Mo1 Br6"
_cell_length_a       7.245032352141938
_cell_length_b       7.245032401046357
_cell_length_c       7.245032308653071
_cell_angle_alpha    59.999999951463664
_cell_angle_beta     59.99999971182279
_cell_angle_gamma    60.00000110107151

_space_group_name_H-M_alt    "P 1"
_space_group_IT_number       1

loop_
  _space_group_symop_operation_xyz
  'x, y, z'

loop_
  _atom_site_type_symbol
  _atom_site_label
  _atom_site_symmetry_multiplicity
  _atom_site_fract_x
  _atom_site_fract_y
  _atom_site_fract_z
  _atom_site_occupancy
  Ca  Ca1       1.0  0.24999997403369079  0.24999999569309939  0.2500000776030898  1.0000
  Ca  Ca2       1.0  0.7500000292380392  0.7500000242694547  0.7499998155816835  1.0000
  Mo  Mo1       1.0  0.9999999876696312  0.9999999222387693  0.9999999194424954  1.0000
  Br  Br1       1.0  0.2530270773595212  0.25302706289814414  0.746972888199376  1.0000
  Br  Br2       1.0  0.7469729599285398  0.7469729841117946  0.2530270890147952  1.0000
  Br  Br3       1.0  0.7469728678378801  0.25302711365798203  0.2530271264754622  1.0000
  Br  Br4       1.0  0.253027049143065  0.7469729739230319  0.7469729692813271  1.0000
  Br  Br5       1.0  0.25302711387461446  0.7469728539352471  0.2530271692661573  1.0000
  Br  Br6       1.0  0.7469729482400553  0.2530270612186912  0.7469729456583318  1.0000
