data_image0
_chemical_formula_structural       Ca2MoI6
_chemical_formula_sum              "Ca2 Mo1 I6"
_cell_length_a       7.858177658747429
_cell_length_b       7.858177690107431
_cell_length_c       7.858177838522414
_cell_angle_alpha    59.99999902019466
_cell_angle_beta     59.99999926509118
_cell_angle_gamma    60.0000012014827

_space_group_name_H-M_alt    "P 1"
_space_group_IT_number       1

loop_
  _space_group_symop_operation_xyz
  'x, y, z'

loop_
  _atom_site_type_symbol
  _atom_site_label
  _atom_site_symmetry_multiplicity
  _atom_site_fract_x
  _atom_site_fract_y
  _atom_site_fract_z
  _atom_site_occupancy
  Ca  Ca1       1.0  0.25000000566241565  0.24999999368304698  0.25000004305883355  1.0000
  Ca  Ca2       1.0  0.7499999990128932  0.7499999732563367  0.7499999409956556  1.0000
  Mo  Mo1       1.0  0.9999999962895152  0.9999999890900735  0.9999999869492514  1.0000
  I   I1        1.0  0.2520804309113667  0.25208049439858354  0.747919522900183  1.0000
  I   I2        1.0  0.7479195538439007  0.7479195411174807  0.25208047373021625  1.0000
  I   I3        1.0  0.7479195172768406  0.25208048965595387  0.25208048479696854  1.0000
  I   I4        1.0  0.2520804846811464  0.7479195427429886  0.7479195187887878  1.0000
  I   I5        1.0  0.25208048460607513  0.7479195073741617  0.25208050485901196  1.0000
  I   I6        1.0  0.7479195302660758  0.2520804642409049  0.7479195213890409  1.0000
