data_image0
_chemical_formula_structural       Ca2MoCl6
_chemical_formula_sum              "Ca2 Mo1 Cl6"
_cell_length_a       6.893358161994374
_cell_length_b       6.893358694920943
_cell_length_c       6.89335855510514
_cell_angle_alpha    59.99999955808514
_cell_angle_beta     60.00000239555239
_cell_angle_gamma    60.00000192169935

_space_group_name_H-M_alt    "P 1"
_space_group_IT_number       1

loop_
  _space_group_symop_operation_xyz
  'x, y, z'

loop_
  _atom_site_type_symbol
  _atom_site_label
  _atom_site_symmetry_multiplicity
  _atom_site_fract_x
  _atom_site_fract_y
  _atom_site_fract_z
  _atom_site_occupancy
  Ca  Ca1       1.0  0.2500001464995555  0.24999989343732987  0.24999996606490263  1.0000
  Ca  Ca2       1.0  0.7499999634270378  0.7500001084973221  0.7500000628529894  1.0000
  Mo  Mo1       1.0  0.9999999688148123  8.350502283628935e-08  3.041627599573224e-08  1.0000
  Cl  Cl1       1.0  0.2510616600501588  0.2510617893458606  0.7489383095879639  1.0000
  Cl  Cl2       1.0  0.7489382525872196  0.7489382516762522  0.25106167367303417  1.0000
  Cl  Cl3       1.0  0.748938197250025  0.25106164811741605  0.2510617522789891  1.0000
  Cl  Cl4       1.0  0.2510617907520153  0.748938247215083  0.7489381544427699  1.0000
  Cl  Cl5       1.0  0.25106177768799126  0.7489382722122887  0.2510617617244294  1.0000
  Cl  Cl6       1.0  0.7489382369616109  0.25106171906214847  0.7489382650365388  1.0000
