data_image0
_chemical_formula_structural       Ca2NCl6
_chemical_formula_sum              "Ca2 N1 Cl6"
_cell_length_a       6.508026207049502
_cell_length_b       6.50802602793233
_cell_length_c       6.5080259911919045
_cell_angle_alpha    60.00000010014706
_cell_angle_beta     60.000000702696504
_cell_angle_gamma    59.99999811694933

_space_group_name_H-M_alt    "P 1"
_space_group_IT_number       1

loop_
  _space_group_symop_operation_xyz
  'x, y, z'

loop_
  _atom_site_type_symbol
  _atom_site_label
  _atom_site_symmetry_multiplicity
  _atom_site_fract_x
  _atom_site_fract_y
  _atom_site_fract_z
  _atom_site_occupancy
  Ca  Ca1       1.0  0.2500001000324469  0.24999991898004004  0.25000000409058487  1.0000
  Ca  Ca2       1.0  0.7499999082661161  0.7499999902956251  0.7500001068752578  1.0000
  N   N1        1.0  0.999998427590334  0.9999985321186708  2.5680823137900477e-06  1.0000
  Cl  Cl1       1.0  0.250234836044711  0.2502348197674572  0.7497651371965453  1.0000
  Cl  Cl2       1.0  0.7497665303702411  0.7497665987913235  0.2502333664377812  1.0000
  Cl  Cl3       1.0  0.7497660974486289  0.25023396751720556  0.25023386347797655  1.0000
  Cl  Cl4       1.0  0.2502344648041002  0.7497656425364801  0.7497655300811037  1.0000
  Cl  Cl5       1.0  0.2502339867201536  0.7497661033475544  0.2502338674550227  1.0000
  Cl  Cl6       1.0  0.7497656406908848  0.2502344269548458  0.7497655487661903  1.0000
