data_image0
_chemical_formula_structural       Ca2NF6
_chemical_formula_sum              "Ca2 N1 F6"
_cell_length_a       5.140124610896401
_cell_length_b       5.140124438064378
_cell_length_c       5.140124616062981
_cell_angle_alpha    60.00000062430223
_cell_angle_beta     59.99999790421285
_cell_angle_gamma    60.000001302315894

_space_group_name_H-M_alt    "P 1"
_space_group_IT_number       1

loop_
  _space_group_symop_operation_xyz
  'x, y, z'

loop_
  _atom_site_type_symbol
  _atom_site_label
  _atom_site_symmetry_multiplicity
  _atom_site_fract_x
  _atom_site_fract_y
  _atom_site_fract_z
  _atom_site_occupancy
  Ca  Ca1       1.0  0.2500001091425286  0.24999999771176715  0.24999996002113073  1.0000
  Ca  Ca2       1.0  0.7499999340038506  0.7500000479377237  0.7500000240828399  1.0000
  N   N1        1.0  0.9999997729147098  0.9999994210003857  1.0927525115286786e-07  1.0000
  F   F1        1.0  0.24636776532629892  0.2463676539900241  0.7536322594351249  1.0000
  F   F2        1.0  0.7536325853298367  0.7536326013383385  0.24636737074610163  1.0000
  F   F3        1.0  0.7536322259548768  0.24636765067704852  0.24636787046566375  1.0000
  F   F4        1.0  0.246367528556422  0.7536324521575871  0.7536324161291799  1.0000
  F   F5        1.0  0.2463678199197345  0.7536323308045708  0.2463678628946325  1.0000
  F   F6        1.0  0.7536323209566732  0.24636781253621373  0.7536320526808485  1.0000
