data_image0
_chemical_formula_structural       Ca2PBr6
_chemical_formula_sum              "Ca2 P1 Br6"
_cell_length_a       7.298757247656363
_cell_length_b       7.298757186395664
_cell_length_c       7.2987571446825195
_cell_angle_alpha    60.00000099347396
_cell_angle_beta     60.000000249829434
_cell_angle_gamma    60.000001524161796

_space_group_name_H-M_alt    "P 1"
_space_group_IT_number       1

loop_
  _space_group_symop_operation_xyz
  'x, y, z'

loop_
  _atom_site_type_symbol
  _atom_site_label
  _atom_site_symmetry_multiplicity
  _atom_site_fract_x
  _atom_site_fract_y
  _atom_site_fract_z
  _atom_site_occupancy
  Ca  Ca1       1.0  0.25000008088436226  0.2499999589894233  0.25000002743570154  1.0000
  Ca  Ca2       1.0  0.7499998570137207  0.7500000229558598  0.7499999719568194  1.0000
  P   P1        1.0  1.7904508229249424e-09  0.9999999614055777  8.811311542521023e-09  1.0000
  Br  Br1       1.0  0.2581763575953346  0.25817631322474144  0.7418236650948141  1.0000
  Br  Br2       1.0  0.7418236574393712  0.7418236888567636  0.2581763623866761  1.0000
  Br  Br3       1.0  0.7418236675784232  0.2581763455136169  0.25817632579203253  1.0000
  Br  Br4       1.0  0.2581763740632454  0.7418236716700535  0.7418236685040271  1.0000
  Br  Br5       1.0  0.258176339967874  0.741823658473178  0.2581763135588811  1.0000
  Br  Br6       1.0  0.7418236675075172  0.25817638052473024  0.7418236499205991  1.0000
