data_image0
_chemical_formula_structural       Ca2PI6
_chemical_formula_sum              "Ca2 P1 I6"
_cell_length_a       7.818082103402143
_cell_length_b       7.818082153046619
_cell_length_c       7.818082071428797
_cell_angle_alpha    60.00000026548815
_cell_angle_beta     60.000000071346875
_cell_angle_gamma    60.00000009090446

_space_group_name_H-M_alt    "P 1"
_space_group_IT_number       1

loop_
  _space_group_symop_operation_xyz
  'x, y, z'

loop_
  _atom_site_type_symbol
  _atom_site_label
  _atom_site_symmetry_multiplicity
  _atom_site_fract_x
  _atom_site_fract_y
  _atom_site_fract_z
  _atom_site_occupancy
  Ca  Ca1       1.0  0.2499999565273902  0.24999992217316974  0.2500000506935236  1.0000
  Ca  Ca2       1.0  0.7500000761288271  0.7500000109019489  0.7500000135938765  1.0000
  P   P1        1.0  0.9999999800085391  1.5665541075327072e-08  0.9999999906511852  1.0000
  I   I1        1.0  0.25536197413800377  0.25536197961199597  0.7446380380137779  1.0000
  I   I2        1.0  0.7446380161470315  0.7446380584222477  0.25536192846717404  1.0000
  I   I3        1.0  0.7446380041244975  0.25536199455932046  0.25536196309689724  1.0000
  I   I4        1.0  0.2553619667962259  0.7446380262428279  0.7446380140077419  1.0000
  I   I5        1.0  0.2553620202634329  0.7446380218678536  0.2553619566633506  1.0000
  I   I6        1.0  0.7446380068867876  0.2553619676032128  0.7446380450855775  1.0000
