data_image0
_chemical_formula_structural       Ca2PF6
_chemical_formula_sum              "Ca2 P1 F6"
_cell_length_a       5.790345240413539
_cell_length_b       5.790345292205642
_cell_length_c       5.790344780455115
_cell_angle_alpha    60.00000703799531
_cell_angle_beta     60.00001106263109
_cell_angle_gamma    60.000008404631075

_space_group_name_H-M_alt    "P 1"
_space_group_IT_number       1

loop_
  _space_group_symop_operation_xyz
  'x, y, z'

loop_
  _atom_site_type_symbol
  _atom_site_label
  _atom_site_symmetry_multiplicity
  _atom_site_fract_x
  _atom_site_fract_y
  _atom_site_fract_z
  _atom_site_occupancy
  Ca  Ca1       1.0  0.2499996519109465  0.25000088376015217  0.2499994277031124  1.0000
  Ca  Ca2       1.0  0.7499999422637508  0.7499994045255475  0.7500008345528961  1.0000
  P   P1        1.0  2.982461529373778e-07  0.9999996975335819  0.99999968261276  1.0000
  F   F1        1.0  0.2598532757040045  0.2598534771552557  0.7401467310332998  1.0000
  F   F2        1.0  0.7401468773985007  0.7401460496765233  0.2598531817354161  1.0000
  F   F3        1.0  0.740146496527508  0.2598538912437076  0.2598529283046585  1.0000
  F   F4        1.0  0.25985337391230157  0.7401463758905037  0.7401472495698771  1.0000
  F   F5        1.0  0.2598535664538784  0.7401465253183881  0.2598532108715696  1.0000
  F   F6        1.0  0.7401466227372339  0.25985347953725185  0.7401465985450755  1.0000
