data_image0
_chemical_formula_structural       Ca2RuF6
_chemical_formula_sum              "Ca2 Ru1 F6"
_cell_length_a       5.563216123994122
_cell_length_b       5.563216086510998
_cell_length_c       5.5632159420840965
_cell_angle_alpha    60.00000048557436
_cell_angle_beta     60.000002315358046
_cell_angle_gamma    60.00000176294451

_space_group_name_H-M_alt    "P 1"
_space_group_IT_number       1

loop_
  _space_group_symop_operation_xyz
  'x, y, z'

loop_
  _atom_site_type_symbol
  _atom_site_label
  _atom_site_symmetry_multiplicity
  _atom_site_fract_x
  _atom_site_fract_y
  _atom_site_fract_z
  _atom_site_occupancy
  Ca  Ca1       1.0  0.25000015513539253  0.24999989215087895  0.25000002812593164  1.0000
  Ca  Ca2       1.0  0.7499999515099891  0.7500001035446213  0.7500000558790327  1.0000
  Ru  Ru1       1.0  0.9999999836470209  0.9999999867909694  0.9999999842231401  1.0000
  F   F1        1.0  0.25922037808600357  0.25922025354579714  0.7407796944828228  1.0000
  F   F2        1.0  0.74077961549139  0.7407797575602386  0.25922029634667204  1.0000
  F   F3        1.0  0.740779603009287  0.2592203329355172  0.2592204053381483  1.0000
  F   F4        1.0  0.25922033559528646  0.7407797310066406  0.7407795542043087  1.0000
  F   F5        1.0  0.2592203427753321  0.7407796230122061  0.2592203396306113  1.0000
  F   F6        1.0  0.7407796280136771  0.25922031324265593  0.7407796586756691  1.0000
