data_image0
_chemical_formula_structural       Ca2RuBr6
_chemical_formula_sum              "Ca2 Ru1 Br6"
_cell_length_a       7.139316789022596
_cell_length_b       7.139316788504799
_cell_length_c       7.139316781921712
_cell_angle_alpha    59.99999997818231
_cell_angle_beta     60.00000013430599
_cell_angle_gamma    59.99999982867303

_space_group_name_H-M_alt    "P 1"
_space_group_IT_number       1

loop_
  _space_group_symop_operation_xyz
  'x, y, z'

loop_
  _atom_site_type_symbol
  _atom_site_label
  _atom_site_symmetry_multiplicity
  _atom_site_fract_x
  _atom_site_fract_y
  _atom_site_fract_z
  _atom_site_occupancy
  Ca  Ca1       1.0  0.25000000600503425  0.2499999929289151  0.24999999909048268  1.0000
  Ca  Ca2       1.0  0.7499999969722981  0.750000007950128  0.7500000044167129  1.0000
  Ru  Ru1       1.0  1.5977602665598068e-08  1.0292958593689191e-08  0.9999999924674964  1.0000
  Br  Br1       1.0  0.24734871969269415  0.24734872873079547  0.7526512826143079  1.0000
  Br  Br2       1.0  0.7526512774850503  0.7526512652862752  0.24734872582297365  1.0000
  Br  Br3       1.0  0.7526512909612493  0.2473487124977557  0.24734871893947186  1.0000
  Br  Br4       1.0  0.24734871069303296  0.7526512729418493  0.7526512831441082  1.0000
  Br  Br5       1.0  0.24734870429395403  0.7526512905901048  0.24734871843781556  1.0000
  Br  Br6       1.0  0.7526512758438032  0.2473487205818968  0.752651277335746  1.0000
