data_image0
_chemical_formula_structural       Ca2RhI6
_chemical_formula_sum              "Ca2 Rh1 I6"
_cell_length_a       7.697172700956502
_cell_length_b       7.697172679962443
_cell_length_c       7.697172627652245
_cell_angle_alpha    59.99999973278101
_cell_angle_beta     59.999999932986206
_cell_angle_gamma    60.00000052660024

_space_group_name_H-M_alt    "P 1"
_space_group_IT_number       1

loop_
  _space_group_symop_operation_xyz
  'x, y, z'

loop_
  _atom_site_type_symbol
  _atom_site_label
  _atom_site_symmetry_multiplicity
  _atom_site_fract_x
  _atom_site_fract_y
  _atom_site_fract_z
  _atom_site_occupancy
  Ca  Ca1       1.0  0.24999994497458222  0.2499999199135629  0.25000013036630253  1.0000
  Ca  Ca2       1.0  0.7500000618822286  0.7500000779730928  0.749999871659577  1.0000
  Rh  Rh1       1.0  0.9999999717386978  3.9779050078403564e-08  0.9999999552657756  1.0000
  I   I1        1.0  0.24747046089917524  0.24747042371779826  0.7525295550625989  1.0000
  I   I2        1.0  0.752529516848785  0.7525295534837511  0.24747046146683258  1.0000
  I   I3        1.0  0.7525295534172383  0.24747047659889496  0.24747043349444  1.0000
  I   I4        1.0  0.24747046278893142  0.7525295292435709  0.7525295637763899  1.0000
  I   I5        1.0  0.2474704524754056  0.752529534513863  0.24747045328890258  1.0000
  I   I6        1.0  0.7525295788389962  0.24747043950536263  0.7525295796221768  1.0000
