data_image0
_chemical_formula_structural       Ca2RuI6
_chemical_formula_sum              "Ca2 Ru1 I6"
_cell_length_a       7.715921771521209
_cell_length_b       7.715921716426541
_cell_length_c       7.715921891156959
_cell_angle_alpha    59.999999626018585
_cell_angle_beta     59.99999938017784
_cell_angle_gamma    60.00000089187399

_space_group_name_H-M_alt    "P 1"
_space_group_IT_number       1

loop_
  _space_group_symop_operation_xyz
  'x, y, z'

loop_
  _atom_site_type_symbol
  _atom_site_label
  _atom_site_symmetry_multiplicity
  _atom_site_fract_x
  _atom_site_fract_y
  _atom_site_fract_z
  _atom_site_occupancy
  Ca  Ca1       1.0  0.2500000351814516  0.24999997808844734  0.24999995556418472  1.0000
  Ca  Ca2       1.0  0.749999948801701  0.7500000183920079  0.7500000753713965  1.0000
  Ru  Ru1       1.0  2.3173980928000777e-08  0.9999999619049056  0.9999999996844282  1.0000
  I   I1        1.0  0.24895165490911467  0.24895163513929416  0.7510483579225072  1.0000
  I   I2        1.0  0.7510483656855189  0.7510483772141178  0.2489516195544055  1.0000
  I   I3        1.0  0.7510483237022603  0.2489516762917806  0.24895164081547883  1.0000
  I   I4        1.0  0.24895166070363717  0.7510483503472912  0.7510483411328652  1.0000
  I   I5        1.0  0.2489516518206502  0.7510483337236102  0.2489516537575907  1.0000
  I   I6        1.0  0.7510483345356582  0.24895166910602753  0.7510483546725215  1.0000
