data_image0
_chemical_formula_structural       Ca2RhCl6
_chemical_formula_sum              "Ca2 Rh1 Cl6"
_cell_length_a       6.797919698317272
_cell_length_b       6.7979199901886584
_cell_length_c       6.797920103641141
_cell_angle_alpha    59.99999901961788
_cell_angle_beta     59.99999917908484
_cell_angle_gamma    59.99999926559454

_space_group_name_H-M_alt    "P 1"
_space_group_IT_number       1

loop_
  _space_group_symop_operation_xyz
  'x, y, z'

loop_
  _atom_site_type_symbol
  _atom_site_label
  _atom_site_symmetry_multiplicity
  _atom_site_fract_x
  _atom_site_fract_y
  _atom_site_fract_z
  _atom_site_occupancy
  Ca  Ca1       1.0  0.25000006447278883  0.2500000279370326  0.2500000166771802  1.0000
  Ca  Ca2       1.0  0.749999992161265  0.7499999486876143  0.7499999107748526  1.0000
  Rh  Rh1       1.0  1.4425313791824434e-09  0.9999999243308458  1.2684664047492e-07  1.0000
  Cl  Cl1       1.0  0.2455543255844913  0.2455543272956043  0.7544456920187879  1.0000
  Cl  Cl2       1.0  0.7544456773269588  0.754445764634419  0.24555426642546113  1.0000
  Cl  Cl3       1.0  0.7544456350840766  0.2455543735662715  0.24555433905586427  1.0000
  Cl  Cl4       1.0  0.2455543597818378  0.7544456354880128  0.7544456516096789  1.0000
  Cl  Cl5       1.0  0.24555436080862134  0.7544456401730821  0.24555431033583633  1.0000
  Cl  Cl6       1.0  0.75444558100595  0.2455543598729703  0.7544456819387303  1.0000
