data_image0
_chemical_formula_structural       Ca2SbI6
_chemical_formula_sum              "Ca2 Sb1 I6"
_cell_length_a       8.068358560664764
_cell_length_b       8.068358440813965
_cell_length_c       8.068358487089874
_cell_angle_alpha    60.00000057422793
_cell_angle_beta     59.99999881872824
_cell_angle_gamma    60.000000320220884

_space_group_name_H-M_alt    "P 1"
_space_group_IT_number       1

loop_
  _space_group_symop_operation_xyz
  'x, y, z'

loop_
  _atom_site_type_symbol
  _atom_site_label
  _atom_site_symmetry_multiplicity
  _atom_site_fract_x
  _atom_site_fract_y
  _atom_site_fract_z
  _atom_site_occupancy
  Ca  Ca1       1.0  0.24999998807504759  0.24999997155878084  0.24999998987890798  1.0000
  Ca  Ca2       1.0  0.7499999906207132  0.7499999814666015  0.7500000098024728  1.0000
  Sb  Sb1       1.0  7.022790140999195e-08  0.9999999696407923  0.9999999726291954  1.0000
  I   I1        1.0  0.26178919123303346  0.2617891878518771  0.7382108081563646  1.0000
  I   I2        1.0  0.7382107935047788  0.7382107985686346  0.26178921394634846  1.0000
  I   I3        1.0  0.7382107889129096  0.26178923711577984  0.2617892227116291  1.0000
  I   I4        1.0  0.26178921659759496  0.7382107857357824  0.7382108203655917  1.0000
  I   I5        1.0  0.2617892209369815  0.7382107683143878  0.26178922688093204  1.0000
  I   I6        1.0  0.7382107393398382  0.26178930007598505  0.7382107379609295  1.0000
