data_image0
_chemical_formula_structural       Ca2SbCl6
_chemical_formula_sum              "Ca2 Sb1 Cl6"
_cell_length_a       7.177998296848885
_cell_length_b       7.177998664756344
_cell_length_c       7.17799873230289
_cell_angle_alpha    59.99999232050435
_cell_angle_beta     59.99999305275066
_cell_angle_gamma    59.99999838742632

_space_group_name_H-M_alt    "P 1"
_space_group_IT_number       1

loop_
  _space_group_symop_operation_xyz
  'x, y, z'

loop_
  _atom_site_type_symbol
  _atom_site_label
  _atom_site_symmetry_multiplicity
  _atom_site_fract_x
  _atom_site_fract_y
  _atom_site_fract_z
  _atom_site_occupancy
  Ca  Ca1       1.0  0.24999972470007373  0.2500006452111333  0.24999937020161542  1.0000
  Ca  Ca2       1.0  0.7499997320209242  0.7500006286469746  0.7499998420619332  1.0000
  Sb  Sb1       1.0  0.9999999986869406  0.9999998157251546  2.0145934834303516e-07  1.0000
  Cl  Cl1       1.0  0.2609781055133296  0.26097765022970626  0.7390222298796492  1.0000
  Cl  Cl2       1.0  0.7390222961564433  0.7390219856298322  0.2609778443728611  1.0000
  Cl  Cl3       1.0  0.7390222155071545  0.260977688013899  0.26097809815731215  1.0000
  Cl  Cl4       1.0  0.2609779851295127  0.7390218608269498  0.7390222789397487  1.0000
  Cl  Cl5       1.0  0.26097786785047145  0.7390219993261081  0.2609779180906997  1.0000
  Cl  Cl6       1.0  0.7390220705539425  0.2609777474395773  0.7390222167103121  1.0000
