data_image0
_chemical_formula_structural       Ca2SbF6
_chemical_formula_sum              "Ca2 Sb1 F6"
_cell_length_a       5.997885428590537
_cell_length_b       5.997885259859188
_cell_length_c       5.997885468168489
_cell_angle_alpha    59.99999940916536
_cell_angle_beta     59.99999849015102
_cell_angle_gamma    59.999999168359295

_space_group_name_H-M_alt    "P 1"
_space_group_IT_number       1

loop_
  _space_group_symop_operation_xyz
  'x, y, z'

loop_
  _atom_site_type_symbol
  _atom_site_label
  _atom_site_symmetry_multiplicity
  _atom_site_fract_x
  _atom_site_fract_y
  _atom_site_fract_z
  _atom_site_occupancy
  Ca  Ca1       1.0  0.24999990137382125  0.24999981161316218  0.25000006641321143  1.0000
  Ca  Ca2       1.0  0.7500000475905164  0.7500000331341118  0.7499998600708797  1.0000
  Sb  Sb1       1.0  0.999999975576613  0.9999999346572425  4.655032641981945e-08  1.0000
  F   F1        1.0  0.26030416764286823  0.2603041393481219  0.7396958887154435  1.0000
  F   F2        1.0  0.7396957468016137  0.7396958667140885  0.2603043294962624  1.0000
  F   F3        1.0  0.7396959588512332  0.2603040375879464  0.26030426692189734  1.0000
  F   F4        1.0  0.2603042706053876  0.7396958377887475  0.7396956457179504  1.0000
  F   F5        1.0  0.2603041137270476  0.7396960672419405  0.2603041546820566  1.0000
  F   F6        1.0  0.7396957991757991  0.26030425532424956  0.7396957343212913  1.0000
