data_image0
_chemical_formula_structural       Ca2SbBr6
_chemical_formula_sum              "Ca2 Sb1 Br6"
_cell_length_a       7.480230697356247
_cell_length_b       7.480230670075535
_cell_length_c       7.480230820721445
_cell_angle_alpha    60.000000300075
_cell_angle_beta     59.99999961362625
_cell_angle_gamma    60.00000041218374

_space_group_name_H-M_alt    "P 1"
_space_group_IT_number       1

loop_
  _space_group_symop_operation_xyz
  'x, y, z'

loop_
  _atom_site_type_symbol
  _atom_site_label
  _atom_site_symmetry_multiplicity
  _atom_site_fract_x
  _atom_site_fract_y
  _atom_site_fract_z
  _atom_site_occupancy
  Ca  Ca1       1.0  0.25000000843330017  0.24999996384336926  0.25000008010899505  1.0000
  Ca  Ca2       1.0  0.750000016519389  0.7500000012298055  0.7499999719596786  1.0000
  Sb  Sb1       1.0  0.9999998959668533  0.9999999508807309  7.924992162830752e-08  1.0000
  Br  Br1       1.0  0.26163304704388857  0.26163304918863994  0.7383669139069319  1.0000
  Br  Br2       1.0  0.7383670562747083  0.7383670697915757  0.2616329284452687  1.0000
  Br  Br3       1.0  0.738366992119427  0.2616329947805256  0.2616329945527628  1.0000
  Br  Br4       1.0  0.26163298833169313  0.73836698339112  0.7383670197431741  1.0000
  Br  Br5       1.0  0.26163298448746436  0.7383669833677003  0.26163302168847086  1.0000
  Br  Br6       1.0  0.7383670076736045  0.2616330013531811  0.7383669981833024  1.0000
