data_image0
_chemical_formula_structural       Ca2TlCl6
_chemical_formula_sum              "Ca2 Tl1 Cl6"
_cell_length_a       7.036480572293948
_cell_length_b       7.0364803555651525
_cell_length_c       7.036480508547807
_cell_angle_alpha    59.99999989077838
_cell_angle_beta     59.99999953691641
_cell_angle_gamma    60.000000034849855

_space_group_name_H-M_alt    "P 1"
_space_group_IT_number       1

loop_
  _space_group_symop_operation_xyz
  'x, y, z'

loop_
  _atom_site_type_symbol
  _atom_site_label
  _atom_site_symmetry_multiplicity
  _atom_site_fract_x
  _atom_site_fract_y
  _atom_site_fract_z
  _atom_site_occupancy
  Ca  Ca1       1.0  0.25000009567372433  0.24999996413252618  0.24999993225051612  1.0000
  Ca  Ca2       1.0  0.7499999580349619  0.7500000768974265  0.7499999841090997  1.0000
  Tl  Tl1       1.0  0.9999999970507523  0.9999999251557213  2.7527442682007114e-08  1.0000
  Cl  Cl1       1.0  0.2616234583658401  0.26162338653134876  0.738376558980544  1.0000
  Cl  Cl2       1.0  0.7383765793649819  0.7383765744326322  0.26162346082642546  1.0000
  Cl  Cl3       1.0  0.73837661182646  0.26162337566592947  0.2616234573563562  1.0000
  Cl  Cl4       1.0  0.26162338050183104  0.7383766427366839  0.7383766019098439  1.0000
  Cl  Cl5       1.0  0.2616234149970443  0.7383765945517466  0.26162341574510267  1.0000
  Cl  Cl6       1.0  0.7383764967050992  0.26162346388385116  0.7383765558091376  1.0000
