data_image0
_chemical_formula_structural       Ca2TlI6
_chemical_formula_sum              "Ca2 Tl1 I6"
_cell_length_a       7.938152961674541
_cell_length_b       7.938153077563578
_cell_length_c       7.938153065240679
_cell_angle_alpha    59.999999010034706
_cell_angle_beta     60.00000080124709
_cell_angle_gamma    60.000000369502196

_space_group_name_H-M_alt    "P 1"
_space_group_IT_number       1

loop_
  _space_group_symop_operation_xyz
  'x, y, z'

loop_
  _atom_site_type_symbol
  _atom_site_label
  _atom_site_symmetry_multiplicity
  _atom_site_fract_x
  _atom_site_fract_y
  _atom_site_fract_z
  _atom_site_occupancy
  Ca  Ca1       1.0  0.2499999773303889  0.24999998423605085  0.2500000305861677  1.0000
  Ca  Ca2       1.0  0.7500001042969455  0.7499999943653404  0.7499999192705997  1.0000
  Tl  Tl1       1.0  0.9999999864672215  2.3142881204891436e-08  0.9999999800780819  1.0000
  I   I1        1.0  0.2632351004747447  0.2632351228250388  0.7367648679150852  1.0000
  I   I2        1.0  0.7367648733190103  0.7367648912621025  0.2632351395311565  1.0000
  I   I3        1.0  0.7367648628507569  0.2632351586647976  0.2632351181510266  1.0000
  I   I4        1.0  0.2632351177900552  0.7367648523366261  0.7367648886742844  1.0000
  I   I5        1.0  0.2632350995677419  0.7367648369895445  0.26323515375142464  1.0000
  I   I6        1.0  0.7367648792957775  0.26323514006898663  0.736764901167712  1.0000
