data_image0
_chemical_formula_structural       Ca2TaI6
_chemical_formula_sum              "Ca2 Ta1 I6"
_cell_length_a       8.020923253472905
_cell_length_b       8.02092297950902
_cell_length_c       8.020923232151718
_cell_angle_alpha    60.00000006541417
_cell_angle_beta     59.99999964335432
_cell_angle_gamma    60.00000181587248

_space_group_name_H-M_alt    "P 1"
_space_group_IT_number       1

loop_
  _space_group_symop_operation_xyz
  'x, y, z'

loop_
  _atom_site_type_symbol
  _atom_site_label
  _atom_site_symmetry_multiplicity
  _atom_site_fract_x
  _atom_site_fract_y
  _atom_site_fract_z
  _atom_site_occupancy
  Ca  Ca1       1.0  0.25000000488079616  0.2500000739456861  0.2499999997304155  1.0000
  Ca  Ca2       1.0  0.7499999936496753  0.7499999133956661  0.7499999906115378  1.0000
  Ta  Ta1       1.0  0.9999999903593608  0.9999999770959368  5.990822557046417e-08  1.0000
  I   I1        1.0  0.25025051469169507  0.25025051104605345  0.749749486869618  1.0000
  I   I2        1.0  0.7497494841007569  0.749749462552861  0.25025053888756715  1.0000
  I   I3        1.0  0.7497494699424168  0.25025056693202347  0.25025054903749494  1.0000
  I   I4        1.0  0.25025057363763237  0.7497494234632054  0.7497494347070811  1.0000
  I   I5        1.0  0.25025054748936526  0.7497494438385959  0.2502505514877092  1.0000
  I   I6        1.0  0.7497494275407388  0.25025061832269624  0.7497493870129338  1.0000
