data_image0
_chemical_formula_structural       Ca2TlBr6
_chemical_formula_sum              "Ca2 Tl1 Br6"
_cell_length_a       7.367446516014261
_cell_length_b       7.367446415475867
_cell_length_c       7.36744646683394
_cell_angle_alpha    60.00000026751589
_cell_angle_beta     59.999998855538855
_cell_angle_gamma    59.999999149003585

_space_group_name_H-M_alt    "P 1"
_space_group_IT_number       1

loop_
  _space_group_symop_operation_xyz
  'x, y, z'

loop_
  _atom_site_type_symbol
  _atom_site_label
  _atom_site_symmetry_multiplicity
  _atom_site_fract_x
  _atom_site_fract_y
  _atom_site_fract_z
  _atom_site_occupancy
  Ca  Ca1       1.0  0.2499999389842332  0.249999941779958  0.25000009687805713  1.0000
  Ca  Ca2       1.0  0.7500000548454835  0.7500000896572798  0.7499999458738307  1.0000
  Tl  Tl1       1.0  1.5673010866663145e-09  0.9999999999999999  0.9999999883577705  1.0000
  Br  Br1       1.0  0.26232601895604835  0.2623259971318372  0.7376739825226756  1.0000
  Br  Br2       1.0  0.7376740255977352  0.7376740043826739  0.262325973818488  1.0000
  Br  Br3       1.0  0.7376739891883188  0.26232599815068514  0.26232599491858255  1.0000
  Br  Br4       1.0  0.2623259611372647  0.7376740133380688  0.7376740293386859  1.0000
  Br  Br5       1.0  0.26232596369025185  0.7376739782788359  0.26232601072444695  1.0000
  Br  Br6       1.0  0.737674041064436  0.2623259733644664  0.7376739795932898  1.0000
