data_image0
_chemical_formula_structural       Ca2TaF6
_chemical_formula_sum              "Ca2 Ta1 F6"
_cell_length_a       5.8418641775960785
_cell_length_b       5.841863842575528
_cell_length_c       5.841863618358466
_cell_angle_alpha    59.99999805378157
_cell_angle_beta     59.99999609827843
_cell_angle_gamma    59.999998601835756

_space_group_name_H-M_alt    "P 1"
_space_group_IT_number       1

loop_
  _space_group_symop_operation_xyz
  'x, y, z'

loop_
  _atom_site_type_symbol
  _atom_site_label
  _atom_site_symmetry_multiplicity
  _atom_site_fract_x
  _atom_site_fract_y
  _atom_site_fract_z
  _atom_site_occupancy
  Ca  Ca1       1.0  0.24999998428411643  0.2500000194774073  0.25000001991166854  1.0000
  Ca  Ca2       1.0  0.7500001253163844  0.7499999976338169  0.7499999696665326  1.0000
  Ta  Ta1       1.0  7.862537822007197e-08  0.9999999538770703  6.420255090801455e-08  1.0000
  F   F1        1.0  0.251200081743591  0.2512002108293164  0.7487998122172441  1.0000
  F   F2        1.0  0.748799901710945  0.7487999949666213  0.2511999766251158  1.0000
  F   F3        1.0  0.7487997763382838  0.25120022197169867  0.2512000437330263  1.0000
  F   F4        1.0  0.25120003094235493  0.7487998244904781  0.7487999659284341  1.0000
  F   F5        1.0  0.2512002406679255  0.7487996574273128  0.25120024698277843  1.0000
  F   F6        1.0  0.7487997420742509  0.25120017099919556  0.7487999517204298  1.0000
