data_image0
_chemical_formula_structural       Ca2TaBr6
_chemical_formula_sum              "Ca2 Ta1 Br6"
_cell_length_a       7.388920201036996
_cell_length_b       7.388920009900993
_cell_length_c       7.388919952194999
_cell_angle_alpha    60.00000122409481
_cell_angle_beta     60.00000061114055
_cell_angle_gamma    60.00000014148462

_space_group_name_H-M_alt    "P 1"
_space_group_IT_number       1

loop_
  _space_group_symop_operation_xyz
  'x, y, z'

loop_
  _atom_site_type_symbol
  _atom_site_label
  _atom_site_symmetry_multiplicity
  _atom_site_fract_x
  _atom_site_fract_y
  _atom_site_fract_z
  _atom_site_occupancy
  Ca  Ca1       1.0  0.24999996825201312  0.24999998027683076  0.24999998924363273  1.0000
  Ca  Ca2       1.0  0.7500000175878758  0.7500000336528708  0.7499999637003683  1.0000
  Ta  Ta1       1.0  4.1056583569207515e-08  5.967152824778281e-08  0.9999999496359444  1.0000
  Br  Br1       1.0  0.24995839397809927  0.24995842713913818  0.7500416021990464  1.0000
  Br  Br2       1.0  0.750041554388415  0.7500415304341211  0.24995847615577346  1.0000
  Br  Br3       1.0  0.75004165790964  0.24995832531194948  0.24995836201437807  1.0000
  Br  Br4       1.0  0.24995837263510096  0.750041638891479  0.7500416299815329  1.0000
  Br  Br5       1.0  0.24995838540921364  0.7500416175483595  0.2499583807044219  1.0000
  Br  Br6       1.0  0.7500415976681041  0.24995840466905508  0.7500416303790077  1.0000
