data_image0
_chemical_formula_structural       Cd2AsCl6
_chemical_formula_sum              "Cd2 As1 Cl6"
_cell_length_a       7.109740406555037
_cell_length_b       7.109740947283171
_cell_length_c       7.109741371312187
_cell_angle_alpha    60.0000014264992
_cell_angle_beta     60.000001539825
_cell_angle_gamma    60.00000608774165

_space_group_name_H-M_alt    "P 1"
_space_group_IT_number       1

loop_
  _space_group_symop_operation_xyz
  'x, y, z'

loop_
  _atom_site_type_symbol
  _atom_site_label
  _atom_site_symmetry_multiplicity
  _atom_site_fract_x
  _atom_site_fract_y
  _atom_site_fract_z
  _atom_site_occupancy
  Cd  Cd1       1.0  0.25000005525619984  0.24999988112686558  0.24999997287377448  1.0000
  Cd  Cd2       1.0  0.7500000124237033  0.7499999913517157  0.7499999591472647  1.0000
  As  As1       1.0  6.029203522085761e-08  0.9999998191239283  3.626940148881887e-07  1.0000
  Cl  Cl1       1.0  0.24226528221489027  0.24226527955461716  0.7577347826077411  1.0000
  Cl  Cl2       1.0  0.757734745957085  0.7577348478731052  0.2422652175078116  1.0000
  Cl  Cl3       1.0  0.757734660314514  0.24226538762591637  0.24226537839671522  1.0000
  Cl  Cl4       1.0  0.24226552471233131  0.75773443489642  0.7577345466528767  1.0000
  Cl  Cl5       1.0  0.24226521120795966  0.757734774745869  0.2422653428867494  1.0000
  Cl  Cl6       1.0  0.7577344488284043  0.24226558006890345  0.7577344434858463  1.0000
