data_image0
_chemical_formula_structural       Cd2AsF6
_chemical_formula_sum              "Cd2 As1 F6"
_cell_length_a       5.319262878899365
_cell_length_b       5.319262878461751
_cell_length_c       5.319262917248409
_cell_angle_alpha    59.99999927312381
_cell_angle_beta     59.999999493906124
_cell_angle_gamma    59.99999973942725

_space_group_name_H-M_alt    "P 1"
_space_group_IT_number       1

loop_
  _space_group_symop_operation_xyz
  'x, y, z'

loop_
  _atom_site_type_symbol
  _atom_site_label
  _atom_site_symmetry_multiplicity
  _atom_site_fract_x
  _atom_site_fract_y
  _atom_site_fract_z
  _atom_site_occupancy
  Cd  Cd1       1.0  0.2500000299590169  0.25000001190916976  0.24999997414141442  1.0000
  Cd  Cd2       1.0  0.7499999817325661  0.7500000150052694  0.7499999924974847  1.0000
  As  As1       1.0  0.9999999722612597  5.0654362800515825e-08  5.4340778654811736e-08  1.0000
  F   F1        1.0  0.2608595757956292  0.26085956605251015  0.7391404262282198  1.0000
  F   F2        1.0  0.7391404301736653  0.7391404194174499  0.2608595677539827  1.0000
  F   F3        1.0  0.7391404219818242  0.2608595474275063  0.26085959488704596  1.0000
  F   F4        1.0  0.26085961990524353  0.7391403758757356  0.7391403971799515  1.0000
  F   F5        1.0  0.26085959273969367  0.7391404286796978  0.2608595680938115  1.0000
  F   F6        1.0  0.7391403778385501  0.26085959132732806  0.7391404225554641  1.0000
