data_image0
_chemical_formula_structural       Cd2BI6
_chemical_formula_sum              "Cd2 B1 I6"
_cell_length_a       7.754508879523164
_cell_length_b       7.754509082823068
_cell_length_c       7.754509202029564
_cell_angle_alpha    59.999998127610965
_cell_angle_beta     59.999998413762974
_cell_angle_gamma    60.00000324746065

_space_group_name_H-M_alt    "P 1"
_space_group_IT_number       1

loop_
  _space_group_symop_operation_xyz
  'x, y, z'

loop_
  _atom_site_type_symbol
  _atom_site_label
  _atom_site_symmetry_multiplicity
  _atom_site_fract_x
  _atom_site_fract_y
  _atom_site_fract_z
  _atom_site_occupancy
  Cd  Cd1       1.0  0.24999999547631266  0.24999999662290157  0.24999996602656654  1.0000
  Cd  Cd2       1.0  0.7499999658064522  0.7500000562033793  0.7499998932776162  1.0000
  B   B1        1.0  4.211724736597334e-09  0.9999999873648245  0.9999999539184071  1.0000
  I   I1        1.0  0.22578584710461144  0.22578588410615466  0.7742141856085142  1.0000
  I   I2        1.0  0.7742142212570182  0.7742140976472609  0.22578588265738816  1.0000
  I   I3        1.0  0.7742140613841902  0.2257859036093684  0.2257859951548641  1.0000
  I   I4        1.0  0.22578592814706402  0.7742140734058529  0.7742140774977274  1.0000
  I   I5        1.0  0.2257859359996678  0.7742140846078172  0.22578592388017263  1.0000
  I   I6        1.0  0.7742140360833906  0.2257859224159473  0.7742141360443838  1.0000
