data_image0
_chemical_formula_structural       Cd2BCl6
_chemical_formula_sum              "Cd2 B1 Cl6"
_cell_length_a       7.005629717228697
_cell_length_b       7.005630098894865
_cell_length_c       7.005631265682392
_cell_angle_alpha    59.99999302344448
_cell_angle_beta     59.999988223601285
_cell_angle_gamma    59.99999131837281

_space_group_name_H-M_alt    "P 1"
_space_group_IT_number       1

loop_
  _space_group_symop_operation_xyz
  'x, y, z'

loop_
  _atom_site_type_symbol
  _atom_site_label
  _atom_site_symmetry_multiplicity
  _atom_site_fract_x
  _atom_site_fract_y
  _atom_site_fract_z
  _atom_site_occupancy
  Cd  Cd1       1.0  0.2500002726580406  0.24999988853833616  0.25000004624868033  1.0000
  Cd  Cd2       1.0  0.7499997800383708  0.7500000449808711  0.7499997571743049  1.0000
  B   B1        1.0  0.9999999594711477  0.9999993304280815  1.0630522589445604e-06  1.0000
  Cl  Cl1       1.0  0.2090063904940429  0.2090066766475037  0.7909932821026406  1.0000
  Cl  Cl2       1.0  0.7909934672607918  0.7909931939354485  0.2090066573963834  1.0000
  Cl  Cl3       1.0  0.7909935367176867  0.20900672099604856  0.20900660564180767  1.0000
  Cl  Cl4       1.0  0.20900665455690803  0.7909936670628372  0.7909930825049726  1.0000
  Cl  Cl5       1.0  0.209006399385305  0.7909937298596678  0.20900663310119502  1.0000
  Cl  Cl6       1.0  0.7909935265872344  0.20900671239434657  0.7909929479130128  1.0000
