data_image0
_chemical_formula_structural       Cd2BBr6
_chemical_formula_sum              "Cd2 B1 Br6"
_cell_length_a       7.566948484188023
_cell_length_b       7.5669479886781845
_cell_length_c       7.566947708821509
_cell_angle_alpha    59.99999638620752
_cell_angle_beta     59.999999494012194
_cell_angle_gamma    59.999997824810926

_space_group_name_H-M_alt    "P 1"
_space_group_IT_number       1

loop_
  _space_group_symop_operation_xyz
  'x, y, z'

loop_
  _atom_site_type_symbol
  _atom_site_label
  _atom_site_symmetry_multiplicity
  _atom_site_fract_x
  _atom_site_fract_y
  _atom_site_fract_z
  _atom_site_occupancy
  Cd  Cd1       1.0  0.24999985903017033  0.25000037876175857  0.24999997635222282  1.0000
  Cd  Cd2       1.0  0.750000217251286  0.7499999482729255  0.7500000166457893  1.0000
  B   B1        1.0  0.9999998499539537  3.997806684220881e-07  1.307678589830686e-06  1.0000
  Br  Br1       1.0  0.21034435905156826  0.2103442871453869  0.7896556314580474  1.0000
  Br  Br2       1.0  0.789655717375573  0.7896556320158619  0.2103440896506001  1.0000
  Br  Br3       1.0  0.7896558790022866  0.2103440320974569  0.21034406197640293  1.0000
  Br  Br4       1.0  0.21034458640709164  0.7896552008005396  0.7896553822379102  1.0000
  Br  Br5       1.0  0.210344200769298  0.7896557209333102  0.21034403801547155  1.0000
  Br  Br6       1.0  0.7896553522284032  0.21034438597922323  0.7896554333266277  1.0000
