data_image0
_chemical_formula_structural       Cd2BF6
_chemical_formula_sum              "Cd2 B1 F6"
_cell_length_a       5.064890004030289
_cell_length_b       5.064890011544894
_cell_length_c       5.064890097141899
_cell_angle_alpha    59.999999865620886
_cell_angle_beta     60.00000037486264
_cell_angle_gamma    59.99999986884914

_space_group_name_H-M_alt    "P 1"
_space_group_IT_number       1

loop_
  _space_group_symop_operation_xyz
  'x, y, z'

loop_
  _atom_site_type_symbol
  _atom_site_label
  _atom_site_symmetry_multiplicity
  _atom_site_fract_x
  _atom_site_fract_y
  _atom_site_fract_z
  _atom_site_occupancy
  Cd  Cd1       1.0  0.24999999789723887  0.2500000069315609  0.2500000103992334  1.0000
  Cd  Cd2       1.0  0.7500000354198313  0.7499999845230694  0.7499999830587901  1.0000
  B   B1        1.0  0.99999997466919  0.9999999734008171  5.7555020238742895e-08  1.0000
  F   F1        1.0  0.21960464908072866  0.2196046713779844  0.7803953288505489  1.0000
  F   F2        1.0  0.7803952778674079  0.7803953587663667  0.21960465303642074  1.0000
  F   F3        1.0  0.7803954116331544  0.21960467010983123  0.21960463426061305  1.0000
  F   F4        1.0  0.2196046475441737  0.7803953600345197  0.780395289409268  1.0000
  F   F5        1.0  0.21960464219495368  0.7803953594178237  0.2196046917032207  1.0000
  F   F6        1.0  0.7803953684622742  0.219604624782484  0.7803953265837678  1.0000
