data_image0
_chemical_formula_structural       Cd2BiCl6
_chemical_formula_sum              "Cd2 Bi1 Cl6"
_cell_length_a       7.303229642401973
_cell_length_b       7.303229807804991
_cell_length_c       7.303229716886339
_cell_angle_alpha    60.00000082994624
_cell_angle_beta     59.99999964886835
_cell_angle_gamma    60.00000024138726

_space_group_name_H-M_alt    "P 1"
_space_group_IT_number       1

loop_
  _space_group_symop_operation_xyz
  'x, y, z'

loop_
  _atom_site_type_symbol
  _atom_site_label
  _atom_site_symmetry_multiplicity
  _atom_site_fract_x
  _atom_site_fract_y
  _atom_site_fract_z
  _atom_site_occupancy
  Cd  Cd1       1.0  0.24999997198072327  0.25000003151314937  0.24999999101470824  1.0000
  Cd  Cd2       1.0  0.7500000196880462  0.7500000157208839  0.7499999948118987  1.0000
  Bi  Bi1       1.0  3.08078291156959e-08  0.9999999597522216  0.9999997801617909  1.0000
  Cl  Cl1       1.0  0.25568640450017655  0.2556863874118407  0.7443135984054413  1.0000
  Cl  Cl2       1.0  0.7443135959700915  0.7443135575257591  0.25568642458383234  1.0000
  Cl  Cl3       1.0  0.7443135810975945  0.25568646067034084  0.2556863794184787  1.0000
  Cl  Cl4       1.0  0.255686238405769  0.7443137710326729  0.7443137522438928  1.0000
  Cl  Cl5       1.0  0.2556864165463013  0.7443135640982789  0.2556863978824676  1.0000
  Cl  Cl6       1.0  0.7443137402456412  0.2556862533880261  0.7443136983040777  1.0000
