data_image0
_chemical_formula_structural       Cd2GaBr6
_chemical_formula_sum              "Cd2 Ga1 Br6"
_cell_length_a       7.292581287384721
_cell_length_b       7.292581181423314
_cell_length_c       7.292581240526138
_cell_angle_alpha    59.99999941695661
_cell_angle_beta     59.99999961061163
_cell_angle_gamma    60.000000263704514

_space_group_name_H-M_alt    "P 1"
_space_group_IT_number       1

loop_
  _space_group_symop_operation_xyz
  'x, y, z'

loop_
  _atom_site_type_symbol
  _atom_site_label
  _atom_site_symmetry_multiplicity
  _atom_site_fract_x
  _atom_site_fract_y
  _atom_site_fract_z
  _atom_site_occupancy
  Cd  Cd1       1.0  0.25000000907366443  0.24999998613494376  0.25000002668114696  1.0000
  Cd  Cd2       1.0  0.7499999968484243  0.7499999735197865  0.7499999971693136  1.0000
  Ga  Ga1       1.0  0.999999993938104  1.3435515784203884e-08  1.4139525602667215e-08  1.0000
  Br  Br1       1.0  0.24698919423891355  0.24698920559224166  0.7530108051570709  1.0000
  Br  Br2       1.0  0.7530107796146872  0.7530108027662332  0.24698919940570874  1.0000
  Br  Br3       1.0  0.753010767489773  0.24698923604753745  0.24698919465727542  1.0000
  Br  Br4       1.0  0.24698926131873783  0.7530107689520589  0.7530107676524093  1.0000
  Br  Br5       1.0  0.24698921238136246  0.7530107729666098  0.24698922130456383  1.0000
  Br  Br6       1.0  0.75301078186422  0.24698924546850223  0.7530107721376761  1.0000
