data_image0
_chemical_formula_structural       Cd2GaI6
_chemical_formula_sum              "Cd2 Ga1 I6"
_cell_length_a       7.898659423880485
_cell_length_b       7.898659444914519
_cell_length_c       7.898659483412819
_cell_angle_alpha    60.00000021135794
_cell_angle_beta     60.00000024027632
_cell_angle_gamma    60.00000134241262

_space_group_name_H-M_alt    "P 1"
_space_group_IT_number       1

loop_
  _space_group_symop_operation_xyz
  'x, y, z'

loop_
  _atom_site_type_symbol
  _atom_site_label
  _atom_site_symmetry_multiplicity
  _atom_site_fract_x
  _atom_site_fract_y
  _atom_site_fract_z
  _atom_site_occupancy
  Cd  Cd1       1.0  0.25000003130187376  0.25000001087201157  0.2499999727297898  1.0000
  Cd  Cd2       1.0  0.7499999905697331  0.7499999829976951  0.7500000149230847  1.0000
  Ga  Ga1       1.0  0.9999999880540239  0.9999999875954153  2.0469794602623965e-09  1.0000
  I   I1        1.0  0.2493218366837942  0.24932183790601414  0.7506781512372209  1.0000
  I   I2        1.0  0.7506781926442126  0.7506781993797386  0.2493218122454682  1.0000
  I   I3        1.0  0.7506781199644162  0.24932187332290862  0.24932185093235096  1.0000
  I   I4        1.0  0.2493218687118002  0.7506781236479436  0.7506781580978337  1.0000
  I   I5        1.0  0.24932183386782433  0.7506781286601677  0.24932187346489515  1.0000
  I   I6        1.0  0.7506781419173795  0.24932185435552698  0.7506781629147884  1.0000
