data_image0
_chemical_formula_structural       Cd2IrCl6
_chemical_formula_sum              "Cd2 Ir1 Cl6"
_cell_length_a       7.066575528323646
_cell_length_b       7.066575729415941
_cell_length_c       7.066575608545162
_cell_angle_alpha    60.00000138332635
_cell_angle_beta     60.00000077771103
_cell_angle_gamma    60.0000004678845

_space_group_name_H-M_alt    "P 1"
_space_group_IT_number       1

loop_
  _space_group_symop_operation_xyz
  'x, y, z'

loop_
  _atom_site_type_symbol
  _atom_site_label
  _atom_site_symmetry_multiplicity
  _atom_site_fract_x
  _atom_site_fract_y
  _atom_site_fract_z
  _atom_site_occupancy
  Cd  Cd1       1.0  0.25000000994304034  0.24999986972914454  0.2500001241326184  1.0000
  Cd  Cd2       1.0  0.7499998437050311  0.7500001724617726  0.749999883818867  1.0000
  Ir  Ir1       1.0  5.465088858355105e-08  0.9999999046766499  3.448735638145391e-08  1.0000
  Cl  Cl1       1.0  0.23455608810061843  0.23455595757922523  0.7654439851047593  1.0000
  Cl  Cl2       1.0  0.7654440161319533  0.7654440828785378  0.23455588993037957  1.0000
  Cl  Cl3       1.0  0.7654439164360861  0.23455600331105556  0.2345560634295809  1.0000
  Cl  Cl4       1.0  0.23455604015595607  0.7654440388798615  0.7654440119193763  1.0000
  Cl  Cl5       1.0  0.23455604144258255  0.7654439478826176  0.23455601597264786  1.0000
  Cl  Cl6       1.0  0.7654439656401996  0.23455604578004782  0.7654440032056746  1.0000
