data_image0
_chemical_formula_structural       Cd2IrBr6
_chemical_formula_sum              "Cd2 Ir1 Br6"
_cell_length_a       7.309404356407213
_cell_length_b       7.309404302540396
_cell_length_c       7.309404341832117
_cell_angle_alpha    59.999999867944055
_cell_angle_beta     59.99999972423574
_cell_angle_gamma    60.00000020301797

_space_group_name_H-M_alt    "P 1"
_space_group_IT_number       1

loop_
  _space_group_symop_operation_xyz
  'x, y, z'

loop_
  _atom_site_type_symbol
  _atom_site_label
  _atom_site_symmetry_multiplicity
  _atom_site_fract_x
  _atom_site_fract_y
  _atom_site_fract_z
  _atom_site_occupancy
  Cd  Cd1       1.0  0.2500000102894248  0.2499999812347373  0.25000001039391323  1.0000
  Cd  Cd2       1.0  0.7500000266711186  0.7499999705133978  0.7500000007223172  1.0000
  Ir  Ir1       1.0  1.259379974244564e-09  7.204968770397752e-08  1.3983043536359571e-07  1.0000
  Br  Br1       1.0  0.24149509578445602  0.24149518505672812  0.7585048519480939  1.0000
  Br  Br2       1.0  0.758504817476728  0.7585047918250183  0.24149518929760325  1.0000
  Br  Br3       1.0  0.7585048639611918  0.24149515363796373  0.24149511075123722  1.0000
  Br  Br4       1.0  0.24149521287632378  0.7585047780032819  0.7585047495655965  1.0000
  Br  Br5       1.0  0.24149516771850638  0.7585048524682839  0.24149515748687905  1.0000
  Br  Br6       1.0  0.7585048075661611  0.2414952132188915  0.7585047891909544  1.0000
