data_image0
_chemical_formula_structural       Cd2IrF6
_chemical_formula_sum              "Cd2 Ir1 F6"
_cell_length_a       5.761975927088178
_cell_length_b       5.76197578320398
_cell_length_c       5.761975765972253
_cell_angle_alpha    60.000001817954875
_cell_angle_beta     59.999999084540306
_cell_angle_gamma    60.00000046737871

_space_group_name_H-M_alt    "P 1"
_space_group_IT_number       1

loop_
  _space_group_symop_operation_xyz
  'x, y, z'

loop_
  _atom_site_type_symbol
  _atom_site_label
  _atom_site_symmetry_multiplicity
  _atom_site_fract_x
  _atom_site_fract_y
  _atom_site_fract_z
  _atom_site_occupancy
  Cd  Cd1       1.0  0.2500000197109066  0.2500000637210296  0.25000007902251026  1.0000
  Cd  Cd2       1.0  0.7499999705121468  0.7500001444006711  0.7499999645979294  1.0000
  Ir  Ir1       1.0  0.9999999801822597  2.338120391465342e-08  0.9999999825986265  1.0000
  F   F1        1.0  0.2473998682453578  0.24739982131846078  0.7526001365994426  1.0000
  F   F2        1.0  0.7526002119599106  0.7526001168566034  0.24739983039368585  1.0000
  F   F3        1.0  0.7526001140836451  0.24739985998624178  0.24739979788532399  1.0000
  F   F4        1.0  0.24739973406032978  0.7526001972204108  0.7526003332246415  1.0000
  F   F5        1.0  0.24739980723481808  0.7526000839604617  0.2473998251445619  1.0000
  F   F6        1.0  0.7526002721022338  0.24739972455519282  0.7526000665355976  1.0000
