data_image0
_chemical_formula_structural       Cd2MoF6
_chemical_formula_sum              "Cd2 Mo1 F6"
_cell_length_a       6.4553971365773455
_cell_length_b       6.455397201001624
_cell_length_c       6.455396543763887
_cell_angle_alpha    60.00000198617501
_cell_angle_beta     60.0000008679101
_cell_angle_gamma    59.999995067964804

_space_group_name_H-M_alt    "P 1"
_space_group_IT_number       1

loop_
  _space_group_symop_operation_xyz
  'x, y, z'

loop_
  _atom_site_type_symbol
  _atom_site_label
  _atom_site_symmetry_multiplicity
  _atom_site_fract_x
  _atom_site_fract_y
  _atom_site_fract_z
  _atom_site_occupancy
  Cd  Cd1       1.0  0.24999903694541573  0.25000091306260597  0.25000015586327795  1.0000
  Cd  Cd2       1.0  0.7499989654106822  0.7499996922175264  0.750000935213168  1.0000
  Mo  Mo1       1.0  0.999999996639539  0.9999999886165506  0.9999999314664713  1.0000
  F   F1        1.0  0.22263806084241403  0.22263770956346937  0.7773616729433853  1.0000
  F   F2        1.0  0.7773627458970634  0.777361506935549  0.22263810928438943  1.0000
  F   F3        1.0  0.7773625201400599  0.2226379759847104  0.22263782398695844  1.0000
  F   F4        1.0  0.22263837994502345  0.7773619424937234  0.777362192607634  1.0000
  F   F5        1.0  0.22263826367498113  0.7773619788875289  0.22263752342477397  1.0000
  F   F6        1.0  0.7773620041456502  0.22263848409932183  0.7773617547566266  1.0000
