data_image0
_chemical_formula_structural       Cd2MoI6
_chemical_formula_sum              "Cd2 Mo1 I6"
_cell_length_a       8.017236610148018
_cell_length_b       8.017236506401304
_cell_length_c       8.017236563702058
_cell_angle_alpha    59.999999010157744
_cell_angle_beta     59.99999882329555
_cell_angle_gamma    60.00000003645784

_space_group_name_H-M_alt    "P 1"
_space_group_IT_number       1

loop_
  _space_group_symop_operation_xyz
  'x, y, z'

loop_
  _atom_site_type_symbol
  _atom_site_label
  _atom_site_symmetry_multiplicity
  _atom_site_fract_x
  _atom_site_fract_y
  _atom_site_fract_z
  _atom_site_occupancy
  Cd  Cd1       1.0  0.24999998089447129  0.24999998322765477  0.2500000261723835  1.0000
  Cd  Cd2       1.0  0.7500000391666827  0.7499999756528404  0.7499999886023878  1.0000
  Mo  Mo1       1.0  2.051842827161183e-09  0.9999999679195662  0.9999999925626692  1.0000
  I   I1        1.0  0.24586893596957227  0.24586896876167974  0.7541310581978066  1.0000
  I   I2        1.0  0.7541310619483015  0.7541310435862048  0.24586894839878573  1.0000
  I   I3        1.0  0.7541310531513329  0.24586895212846455  0.24586900081772048  1.0000
  I   I4        1.0  0.24586896113374132  0.7541310327219055  0.7541310213225295  1.0000
  I   I5        1.0  0.2458689380664511  0.7541310710982357  0.24586898252764533  1.0000
  I   I6        1.0  0.7541310285572946  0.245868996244678  0.7541309847776195  1.0000
