data_image0
_chemical_formula_structural       Cd2MoCl6
_chemical_formula_sum              "Cd2 Mo1 Cl6"
_cell_length_a       7.388830068878157
_cell_length_b       7.388831044273186
_cell_length_c       7.3888301807056465
_cell_angle_alpha    60.00000692586217
_cell_angle_beta     60.00000480947831
_cell_angle_gamma    60.00000293343139

_space_group_name_H-M_alt    "P 1"
_space_group_IT_number       1

loop_
  _space_group_symop_operation_xyz
  'x, y, z'

loop_
  _atom_site_type_symbol
  _atom_site_label
  _atom_site_symmetry_multiplicity
  _atom_site_fract_x
  _atom_site_fract_y
  _atom_site_fract_z
  _atom_site_occupancy
  Cd  Cd1       1.0  0.2500004001681509  0.24999996994782592  0.2499997670984457  1.0000
  Cd  Cd2       1.0  0.7499997532186642  0.7500003557278022  0.7500003271129756  1.0000
  Mo  Mo1       1.0  0.9999999641837278  0.9999999386701953  0.9999999822567192  1.0000
  Cl  Cl1       1.0  0.2289668002511354  0.22896675566831087  0.7710330659003509  1.0000
  Cl  Cl2       1.0  0.7710331459273289  0.7710330992596249  0.22896687736036808  1.0000
  Cl  Cl3       1.0  0.7710332585587193  0.22896667375221313  0.22896678852980032  1.0000
  Cl  Cl4       1.0  0.22896676253767412  0.7710331861484085  0.7710332541852183  1.0000
  Cl  Cl5       1.0  0.22896661533475543  0.771033259444157  0.22896675935426467  1.0000
  Cl  Cl6       1.0  0.7710333084882264  0.22896678444588284  0.7710331587990983  1.0000
