data_image0
_chemical_formula_structural       Cd2MoBr6
_chemical_formula_sum              "Cd2 Mo1 Br6"
_cell_length_a       7.545588485291633
_cell_length_b       7.545588568470415
_cell_length_c       7.5455886294425305
_cell_angle_alpha    59.99999924398953
_cell_angle_beta     59.99999946157223
_cell_angle_gamma    60.00000021541637

_space_group_name_H-M_alt    "P 1"
_space_group_IT_number       1

loop_
  _space_group_symop_operation_xyz
  'x, y, z'

loop_
  _atom_site_type_symbol
  _atom_site_label
  _atom_site_symmetry_multiplicity
  _atom_site_fract_x
  _atom_site_fract_y
  _atom_site_fract_z
  _atom_site_occupancy
  Cd  Cd1       1.0  0.2500000017194535  0.25000000014567186  0.25000000432147995  1.0000
  Cd  Cd2       1.0  0.7499999997638636  0.7499999890751264  0.7500000239931883  1.0000
  Mo  Mo1       1.0  1.2844408405433315e-08  4.869381063674428e-08  3.15189400655978e-08  1.0000
  Br  Br1       1.0  0.23995179453112295  0.2399517825409464  0.7600482068453756  1.0000
  Br  Br2       1.0  0.7600481743836305  0.7600481758404384  0.23995181739078464  1.0000
  Br  Br3       1.0  0.7600481999044254  0.23995180812708056  0.239951814399106  1.0000
  Br  Br4       1.0  0.23995183390082386  0.7600481713549563  0.7600481337095388  1.0000
  Br  Br5       1.0  0.2399518169771849  0.7600482068827082  0.23995180287107495  1.0000
  Br  Br6       1.0  0.7600481638696219  0.23995182129313913  0.7600481619479398  1.0000
