data_image0
_chemical_formula_structural       Cd2NF6
_chemical_formula_sum              "Cd2 N1 F6"
_cell_length_a       5.171815959052188
_cell_length_b       5.171816057681365
_cell_length_c       5.171816334902107
_cell_angle_alpha    60.00000244714426
_cell_angle_beta     60.000000785206645
_cell_angle_gamma    60.000003221421956

_space_group_name_H-M_alt    "P 1"
_space_group_IT_number       1

loop_
  _space_group_symop_operation_xyz
  'x, y, z'

loop_
  _atom_site_type_symbol
  _atom_site_label
  _atom_site_symmetry_multiplicity
  _atom_site_fract_x
  _atom_site_fract_y
  _atom_site_fract_z
  _atom_site_occupancy
  Cd  Cd1       1.0  0.25000001423012436  0.24999997042647462  0.24999996029004468  1.0000
  Cd  Cd2       1.0  0.7499999522300301  0.7500000888879518  0.7499999610436723  1.0000
  N   N1        1.0  9.530877079385062e-08  0.9999998413363851  4.607625843398393e-09  1.0000
  F   F1        1.0  0.2372028460918587  0.23720297180973857  0.7627971227196225  1.0000
  F   F2        1.0  0.7627967605471365  0.7627970283018441  0.23720312994015602  1.0000
  F   F3        1.0  0.7627971090747606  0.23720292665439216  0.23720304143254206  1.0000
  F   F4        1.0  0.23720301040324562  0.7627971089789017  0.762796851970395  1.0000
  F   F5        1.0  0.23720310571345107  0.7627969599210893  0.23720308084799274  1.0000
  F   F6        1.0  0.7627970511358708  0.23720295020218257  0.7627969107638815  1.0000
