data_image0
_chemical_formula_structural       Cd2NCl6
_chemical_formula_sum              "Cd2 N1 Cl6"
_cell_length_a       6.5274573349360505
_cell_length_b       6.527457257048557
_cell_length_c       6.527457337479125
_cell_angle_alpha    60.000000391834966
_cell_angle_beta     59.99999994844248
_cell_angle_gamma    59.9999994580569

_space_group_name_H-M_alt    "P 1"
_space_group_IT_number       1

loop_
  _space_group_symop_operation_xyz
  'x, y, z'

loop_
  _atom_site_type_symbol
  _atom_site_label
  _atom_site_symmetry_multiplicity
  _atom_site_fract_x
  _atom_site_fract_y
  _atom_site_fract_z
  _atom_site_occupancy
  Cd  Cd1       1.0  0.24999999013345162  0.2500000866910922  0.24999988661870173  1.0000
  Cd  Cd2       1.0  0.7500000337683859  0.7499999054531383  0.7500000291527109  1.0000
  N   N1        1.0  1.4218143920816668e-07  0.9999999343296011  0.9999997687137272  1.0000
  Cl  Cl1       1.0  0.2426638075812641  0.24266389001340744  0.7573361315361995  1.0000
  Cl  Cl2       1.0  0.7573360200516017  0.7573361283989833  0.2426639259192526  1.0000
  Cl  Cl3       1.0  0.7573360867154627  0.24266392957139207  0.24266403506539186  1.0000
  Cl  Cl4       1.0  0.24266383054411197  0.757336212676604  0.757336073453884  1.0000
  Cl  Cl5       1.0  0.242663925188832  0.7573361310089309  0.24266396321823325  1.0000
  Cl  Cl6       1.0  0.7573361525522608  0.24266378983601386  0.7573361696338474  1.0000
