data_image0
_chemical_formula_structural       Cd2PF6
_chemical_formula_sum              "Cd2 P1 F6"
_cell_length_a       5.416929190026447
_cell_length_b       5.416929401587628
_cell_length_c       5.416930848583138
_cell_angle_alpha    59.99999416854221
_cell_angle_beta     59.99999366350071
_cell_angle_gamma    60.000003606663775

_space_group_name_H-M_alt    "P 1"
_space_group_IT_number       1

loop_
  _space_group_symop_operation_xyz
  'x, y, z'

loop_
  _atom_site_type_symbol
  _atom_site_label
  _atom_site_symmetry_multiplicity
  _atom_site_fract_x
  _atom_site_fract_y
  _atom_site_fract_z
  _atom_site_occupancy
  Cd  Cd1       1.0  0.25000001437933955  0.25000013488191974  0.2500002124823634  1.0000
  Cd  Cd2       1.0  0.7499999964342414  0.7499992018161571  0.7500000955014237  1.0000
  P   P1        1.0  0.9999998323715712  1.8313757197018313e-07  0.9999999627084069  1.0000
  F   F1        1.0  0.20402390546099136  0.20402372381612413  0.7959764102464842  1.0000
  F   F2        1.0  0.7959760653127148  0.7959763341275047  0.20402362359277645  1.0000
  F   F3        1.0  0.7959765347376896  0.20402360396729835  0.2040238743273291  1.0000
  F   F4        1.0  0.204023715799603  0.7959764268448599  0.7959761218069441  1.0000
  F   F5        1.0  0.20402362216506306  0.7959765056001308  0.20402348121919567  1.0000
  F   F6        1.0  0.7959762671513988  0.2040236880009496  0.7959758701673098  1.0000
