data_image0
_chemical_formula_structural       Cd2PCl6
_chemical_formula_sum              "Cd2 P1 Cl6"
_cell_length_a       7.718941777456898
_cell_length_b       7.718940744860775
_cell_length_c       7.718941861473725
_cell_angle_alpha    59.999994838449666
_cell_angle_beta     59.999997045059295
_cell_angle_gamma    59.999997862515194

_space_group_name_H-M_alt    "P 1"
_space_group_IT_number       1

loop_
  _space_group_symop_operation_xyz
  'x, y, z'

loop_
  _atom_site_type_symbol
  _atom_site_label
  _atom_site_symmetry_multiplicity
  _atom_site_fract_x
  _atom_site_fract_y
  _atom_site_fract_z
  _atom_site_occupancy
  Cd  Cd1       1.0  0.24999998964914927  0.24999988988217817  0.24999992108726357  1.0000
  Cd  Cd2       1.0  0.7500002333745007  0.7499999758747992  0.7499998212454304  1.0000
  P   P1        1.0  5.7646507339530594e-08  0.9999999841332531  0.9999999531998316  1.0000
  Cl  Cl1       1.0  0.2032795075543795  0.20327965072255028  0.796720388900264  1.0000
  Cl  Cl2       1.0  0.7967206117780519  0.7967204228888348  0.20327950345107648  1.0000
  Cl  Cl3       1.0  0.7967203468962524  0.20327958933879833  0.20327955287863975  1.0000
  Cl  Cl4       1.0  0.20327935514654868  0.796720506486022  0.796720833683594  1.0000
  Cl  Cl5       1.0  0.20327937005102087  0.7967205666654249  0.20327954704207646  1.0000
  Cl  Cl6       1.0  0.796720510145051  0.20327944347895596  0.7967204745872066  1.0000
