data_image0
_chemical_formula_structural       Cd2PBr6
_chemical_formula_sum              "Cd2 P1 Br6"
_cell_length_a       7.4297312191360625
_cell_length_b       7.429731245880194
_cell_length_c       7.429731286388243
_cell_angle_alpha    59.99999968203661
_cell_angle_beta     60.00000008287643
_cell_angle_gamma    59.999999867426894

_space_group_name_H-M_alt    "P 1"
_space_group_IT_number       1

loop_
  _space_group_symop_operation_xyz
  'x, y, z'

loop_
  _atom_site_type_symbol
  _atom_site_label
  _atom_site_symmetry_multiplicity
  _atom_site_fract_x
  _atom_site_fract_y
  _atom_site_fract_z
  _atom_site_occupancy
  Cd  Cd1       1.0  0.2500000183597811  0.2500000289173456  0.24999996562630517  1.0000
  Cd  Cd2       1.0  0.7499999841239742  0.7499999499317113  0.7500000492207358  1.0000
  P   P1        1.0  5.150824549358958e-08  0.9999999340624937  3.547944828713072e-08  1.0000
  Br  Br1       1.0  0.2458266848692436  0.2458267322032681  0.754173284328815  1.0000
  Br  Br2       1.0  0.754173293076498  0.7541733109348573  0.2458266823778805  1.0000
  Br  Br3       1.0  0.7541732988537067  0.24582671950894294  0.24582669311706454  1.0000
  Br  Br4       1.0  0.24582668714567207  0.7541733087932436  0.7541732864023879  1.0000
  Br  Br5       1.0  0.24582668558861714  0.7541733169143674  0.24582670577919313  1.0000
  Br  Br6       1.0  0.7541732896259038  0.24582670644250623  0.7541732950647818  1.0000
