data_image0
_chemical_formula_structural       Cd2RuCl6
_chemical_formula_sum              "Cd2 Ru1 Cl6"
_cell_length_a       7.10757845999087
_cell_length_b       7.107578842112517
_cell_length_c       7.10757832138773
_cell_angle_alpha    59.999999597970444
_cell_angle_beta     59.99999982377823
_cell_angle_gamma    60.00000053569929

_space_group_name_H-M_alt    "P 1"
_space_group_IT_number       1

loop_
  _space_group_symop_operation_xyz
  'x, y, z'

loop_
  _atom_site_type_symbol
  _atom_site_label
  _atom_site_symmetry_multiplicity
  _atom_site_fract_x
  _atom_site_fract_y
  _atom_site_fract_z
  _atom_site_occupancy
  Cd  Cd1       1.0  0.24999995779220002  0.25000007675557423  0.24999994056447697  1.0000
  Cd  Cd2       1.0  0.749999939546271  0.7499999976410117  0.7499999457229757  1.0000
  Ru  Ru1       1.0  0.9999999520811662  7.064928653950001e-08  9.837679206804295e-08  1.0000
  Cl  Cl1       1.0  0.23434564638228836  0.2343457409047119  0.7656543405039365  1.0000
  Cl  Cl2       1.0  0.765654407937537  0.7656542232100509  0.23434569689542423  1.0000
  Cl  Cl3       1.0  0.7656544273382483  0.23434561171869245  0.23434564008217265  1.0000
  Cl  Cl4       1.0  0.234345709904048  0.7656542352216426  0.7656542751552203  1.0000
  Cl  Cl5       1.0  0.2343456568780531  0.7656542953931973  0.23434571904260798  1.0000
  Cl  Cl6       1.0  0.7656542814528229  0.23434578761915037  0.765654328158025  1.0000
