data_image0
_chemical_formula_structural       Cd2RhBr6
_chemical_formula_sum              "Cd2 Rh1 Br6"
_cell_length_a       7.243760014550602
_cell_length_b       7.2437601936868985
_cell_length_c       7.243760040524342
_cell_angle_alpha    59.999999196953375
_cell_angle_beta     60.00000132421895
_cell_angle_gamma    59.99999840084373

_space_group_name_H-M_alt    "P 1"
_space_group_IT_number       1

loop_
  _space_group_symop_operation_xyz
  'x, y, z'

loop_
  _atom_site_type_symbol
  _atom_site_label
  _atom_site_symmetry_multiplicity
  _atom_site_fract_x
  _atom_site_fract_y
  _atom_site_fract_z
  _atom_site_occupancy
  Cd  Cd1       1.0  0.24999996425556878  0.2500000028137231  0.250000019077448  1.0000
  Cd  Cd2       1.0  0.7499999914852868  0.7500000422563365  0.7499999978679635  1.0000
  Rh  Rh1       1.0  0.9999998432182993  1.6907633305601024e-09  5.759544049504105e-09  1.0000
  Br  Br1       1.0  0.2431058884885326  0.2431058851707283  0.7568940922809048  1.0000
  Br  Br2       1.0  0.7568941911858116  0.7568942089313253  0.24310579124481654  1.0000
  Br  Br3       1.0  0.7568941426359851  0.24310584986990916  0.24310585342663932  1.0000
  Br  Br4       1.0  0.2431058508319625  0.7568941394051208  0.7568941366597803  1.0000
  Br  Br5       1.0  0.24310585498497908  0.7568941475759577  0.2431058438650733  1.0000
  Br  Br6       1.0  0.7568942672014978  0.24310572334597422  0.7568942611420046  1.0000
