data_image0
_chemical_formula_structural       Cd2RhF6
_chemical_formula_sum              "Cd2 Rh1 F6"
_cell_length_a       5.625135492002176
_cell_length_b       5.625135593396036
_cell_length_c       5.625135371634869
_cell_angle_alpha    60.000003852813315
_cell_angle_beta     60.00000422682912
_cell_angle_gamma    60.00000157977357

_space_group_name_H-M_alt    "P 1"
_space_group_IT_number       1

loop_
  _space_group_symop_operation_xyz
  'x, y, z'

loop_
  _atom_site_type_symbol
  _atom_site_label
  _atom_site_symmetry_multiplicity
  _atom_site_fract_x
  _atom_site_fract_y
  _atom_site_fract_z
  _atom_site_occupancy
  Cd  Cd1       1.0  0.25000009736930734  0.2500000375940045  0.24999987539436674  1.0000
  Cd  Cd2       1.0  0.7499998892919186  0.7500001018956585  0.749999648149829  1.0000
  Rh  Rh1       1.0  0.9999999897576083  0.9999999629863825  5.029402855991667e-08  1.0000
  F   F1        1.0  0.2505235315096384  0.25052345931209635  0.7494765264530473  1.0000
  F   F2        1.0  0.7494765273751373  0.7494764450322376  0.2505237665354787  1.0000
  F   F3        1.0  0.7494764058639833  0.25052360019881087  0.25052361290749614  1.0000
  F   F4        1.0  0.2505236721572118  0.749476413009102  0.7494763885309539  1.0000
  F   F5        1.0  0.25052358288885923  0.7494764553050066  0.25052364295976626  1.0000
  F   F6        1.0  0.7494763403470658  0.2505235295983774  0.7494764660231936  1.0000
