data_image0
_chemical_formula_structural       Cd2RhI6
_chemical_formula_sum              "Cd2 Rh1 I6"
_cell_length_a       7.7181004691018655
_cell_length_b       7.7181004488943055
_cell_length_c       7.718100277125197
_cell_angle_alpha    59.999999680378245
_cell_angle_beta     60.000000275106196
_cell_angle_gamma    59.99999882054199

_space_group_name_H-M_alt    "P 1"
_space_group_IT_number       1

loop_
  _space_group_symop_operation_xyz
  'x, y, z'

loop_
  _atom_site_type_symbol
  _atom_site_label
  _atom_site_symmetry_multiplicity
  _atom_site_fract_x
  _atom_site_fract_y
  _atom_site_fract_z
  _atom_site_occupancy
  Cd  Cd1       1.0  0.2500000209305917  0.2500000343492638  0.2499999980210677  1.0000
  Cd  Cd2       1.0  0.750000015144981  0.750000012597482  0.7500000099898754  1.0000
  Rh  Rh1       1.0  1.605385209393218e-07  0.999999819099377  1.6659329912708285e-08  1.0000
  I   I1        1.0  0.2458497073669779  0.24584972964324175  0.7541502931402078  1.0000
  I   I2        1.0  0.7541503043484629  0.7541502871534014  0.2458496851170057  1.0000
  I   I3        1.0  0.7541502706920041  0.2458497104006091  0.24584974242842655  1.0000
  I   I4        1.0  0.24584963989316186  0.7541503270250526  0.7541503628883418  1.0000
  I   I5        1.0  0.24584959382548877  0.754150374901829  0.24584962745883435  1.0000
  I   I6        1.0  0.7541502879553031  0.245849708542414  0.7541502606502752  1.0000
