data_image0
_chemical_formula_structural       Cd2RuI6
_chemical_formula_sum              "Cd2 Ru1 I6"
_cell_length_a       7.71808349578522
_cell_length_b       7.718083470718243
_cell_length_c       7.718083760708393
_cell_angle_alpha    59.99999897498298
_cell_angle_beta     59.999999862065074
_cell_angle_gamma    60.00000170044255

_space_group_name_H-M_alt    "P 1"
_space_group_IT_number       1

loop_
  _space_group_symop_operation_xyz
  'x, y, z'

loop_
  _atom_site_type_symbol
  _atom_site_label
  _atom_site_symmetry_multiplicity
  _atom_site_fract_x
  _atom_site_fract_y
  _atom_site_fract_z
  _atom_site_occupancy
  Cd  Cd1       1.0  0.2500000148034703  0.25000000643476644  0.24999999422266975  1.0000
  Cd  Cd2       1.0  0.7499999781439243  0.7500000161305956  0.7499999927705944  1.0000
  Ru  Ru1       1.0  0.9999999947416377  0.9999999619155749  3.851495268187109e-08  1.0000
  I   I1        1.0  0.24731768034133605  0.24731764032933287  0.7526823509142154  1.0000
  I   I2        1.0  0.7526823545719715  0.7526824044519447  0.2473176221273523  1.0000
  I   I3        1.0  0.7526823333814026  0.24731765218814228  0.24731768421445743  1.0000
  I   I4        1.0  0.2473176712936522  0.7526823307059441  0.7526823141592975  1.0000
  I   I5        1.0  0.24731764417320212  0.7526823250152329  0.24731768165337104  1.0000
  I   I6        1.0  0.7526823310180997  0.24731766105255476  0.7526823195101424  1.0000
