data_image0
_chemical_formula_structural       Cd2RuBr6
_chemical_formula_sum              "Cd2 Ru1 Br6"
_cell_length_a       7.301728880128595
_cell_length_b       7.301728916022574
_cell_length_c       7.301728896765859
_cell_angle_alpha    59.99999991828578
_cell_angle_beta     59.999999466080546
_cell_angle_gamma    59.99999999911438

_space_group_name_H-M_alt    "P 1"
_space_group_IT_number       1

loop_
  _space_group_symop_operation_xyz
  'x, y, z'

loop_
  _atom_site_type_symbol
  _atom_site_label
  _atom_site_symmetry_multiplicity
  _atom_site_fract_x
  _atom_site_fract_y
  _atom_site_fract_z
  _atom_site_occupancy
  Cd  Cd1       1.0  0.2499999718900367  0.250000022770926  0.24999998116231886  1.0000
  Cd  Cd2       1.0  0.7500000060186265  0.7500000297340629  0.750000001143914  1.0000
  Ru  Ru1       1.0  0.9999999749852727  0.999999984903981  0.9999999871864454  1.0000
  Br  Br1       1.0  0.2419975204044489  0.24199754585204153  0.7580024620584334  1.0000
  Br  Br2       1.0  0.7580025360483715  0.7580024513008776  0.2419975045431395  1.0000
  Br  Br3       1.0  0.7580024846984437  0.2419975075991711  0.24199751911954204  1.0000
  Br  Br4       1.0  0.24199748086320658  0.7580025012950962  0.7580025390994112  1.0000
  Br  Br5       1.0  0.24199753402940188  0.7580024628105954  0.24199750702136316  1.0000
  Br  Br6       1.0  0.7580024899812982  0.24199749408627308  0.7580024986683729  1.0000
