data_image0
_chemical_formula_structural       Cd2SbBr6
_chemical_formula_sum              "Cd2 Sb1 Br6"
_cell_length_a       7.607672664906086
_cell_length_b       7.607672730730812
_cell_length_c       7.60767263751343
_cell_angle_alpha    59.99999980319769
_cell_angle_beta     59.99999934741066
_cell_angle_gamma    59.99999930123982

_space_group_name_H-M_alt    "P 1"
_space_group_IT_number       1

loop_
  _space_group_symop_operation_xyz
  'x, y, z'

loop_
  _atom_site_type_symbol
  _atom_site_label
  _atom_site_symmetry_multiplicity
  _atom_site_fract_x
  _atom_site_fract_y
  _atom_site_fract_z
  _atom_site_occupancy
  Cd  Cd1       1.0  0.2500000154195116  0.25000000282559154  0.2499999831873478  1.0000
  Cd  Cd2       1.0  0.7499999892104331  0.7500000020372504  0.7500000325698922  1.0000
  Sb  Sb1       1.0  0.999999991411256  1.8513632929289941e-07  0.9999999984807282  1.0000
  Br  Br1       1.0  0.25240097358547114  0.25240097756574714  0.7475990339607986  1.0000
  Br  Br2       1.0  0.7475989248609258  0.747598917825179  0.2524010646493877  1.0000
  Br  Br3       1.0  0.7475990125797326  0.2524010184375843  0.2524009684488843  1.0000
  Br  Br4       1.0  0.25240106003079343  0.7475989236398934  0.7475989461260636  1.0000
  Br  Br5       1.0  0.2524010575015877  0.7475989609934299  0.2524010003194207  1.0000
  Br  Br6       1.0  0.7475989759825535  0.25240101650143293  0.7475989726319123  1.0000
