data_image0
_chemical_formula_structural       Cd2SbI6
_chemical_formula_sum              "Cd2 Sb1 I6"
_cell_length_a       8.190010191478537
_cell_length_b       8.19001005501988
_cell_length_c       8.19001013443541
_cell_angle_alpha    60.00000097200243
_cell_angle_beta     59.999999399304265
_cell_angle_gamma    60.00000111472678

_space_group_name_H-M_alt    "P 1"
_space_group_IT_number       1

loop_
  _space_group_symop_operation_xyz
  'x, y, z'

loop_
  _atom_site_type_symbol
  _atom_site_label
  _atom_site_symmetry_multiplicity
  _atom_site_fract_x
  _atom_site_fract_y
  _atom_site_fract_z
  _atom_site_occupancy
  Cd  Cd1       1.0  0.24999999416061439  0.24999998714914745  0.2500000215461023  1.0000
  Cd  Cd2       1.0  0.7500000073320281  0.7500000137869015  0.7499999894134937  1.0000
  Sb  Sb1       1.0  3.125945670762929e-08  1.1963305982457376e-08  1.2576610458771279e-08  1.0000
  I   I1        1.0  0.25734405024608503  0.2573440582279449  0.7426559534453118  1.0000
  I   I2        1.0  0.7426559471879388  0.7426559337356247  0.25734404571483743  1.0000
  I   I3        1.0  0.7426559582495715  0.25734405794026705  0.2573440342902246  1.0000
  I   I4        1.0  0.2573440717976213  0.7426558996288009  0.7426559486665943  1.0000
  I   I5        1.0  0.25734404363522595  0.7426559328639557  0.2573440777983206  1.0000
  I   I6        1.0  0.7426558946396369  0.25734410545742  0.7426559131105103  1.0000
