data_image0
_chemical_formula_structural       Cd2SbF6
_chemical_formula_sum              "Cd2 Sb1 F6"
_cell_length_a       7.272415089009588
_cell_length_b       7.27241866869811
_cell_length_c       7.272417770189131
_cell_angle_alpha    60.000000297835506
_cell_angle_beta     59.99998515711886
_cell_angle_gamma    59.99998940743932

_space_group_name_H-M_alt    "P 1"
_space_group_IT_number       1

loop_
  _space_group_symop_operation_xyz
  'x, y, z'

loop_
  _atom_site_type_symbol
  _atom_site_label
  _atom_site_symmetry_multiplicity
  _atom_site_fract_x
  _atom_site_fract_y
  _atom_site_fract_z
  _atom_site_occupancy
  Cd  Cd1       1.0  0.25000017575858313  0.25000065165316965  0.2499990646613756  1.0000
  Cd  Cd2       1.0  0.749999786914149  0.7499985362454541  0.7500016358726006  1.0000
  Sb  Sb1       1.0  0.9999998509383171  1.5662091283909403e-07  2.341055070808986e-07  1.0000
  F   F1        1.0  0.1873795333369323  0.18737989197284727  0.8126207154731558  1.0000
  F   F2        1.0  0.8126206905020888  0.8126202272306043  0.1873794823292091  1.0000
  F   F3        1.0  0.8126196695653864  0.18738022383399736  0.18737887843345608  1.0000
  F   F4        1.0  0.1873803653550174  0.8126201715612009  0.812620383319362  1.0000
  F   F5        1.0  0.18737961489526098  0.8126208439093896  0.18737962712834297  1.0000
  F   F6        1.0  0.8126205573642331  0.18737931571238156  0.8126201252354318  1.0000
