data_image0
_chemical_formula_structural       Cd2SbCl6
_chemical_formula_sum              "Cd2 Sb1 Cl6"
_cell_length_a       7.3730840151426795
_cell_length_b       7.373083994063685
_cell_length_c       7.3730838212991126
_cell_angle_alpha    59.999999897409666
_cell_angle_beta     60.00000178874328
_cell_angle_gamma    59.99999844277812

_space_group_name_H-M_alt    "P 1"
_space_group_IT_number       1

loop_
  _space_group_symop_operation_xyz
  'x, y, z'

loop_
  _atom_site_type_symbol
  _atom_site_label
  _atom_site_symmetry_multiplicity
  _atom_site_fract_x
  _atom_site_fract_y
  _atom_site_fract_z
  _atom_site_occupancy
  Cd  Cd1       1.0  0.2500000098101166  0.25000006100939814  0.250000039175915  1.0000
  Cd  Cd2       1.0  0.7499999834815776  0.7499998275522448  0.7500002029559174  1.0000
  Sb  Sb1       1.0  0.9999999028662376  2.2092665112529002e-07  0.9999994823919298  1.0000
  Cl  Cl1       1.0  0.24154544455798052  0.24154553734527842  0.7584544736842505  1.0000
  Cl  Cl2       1.0  0.7584544148549967  0.7584543910828327  0.2415455319902252  1.0000
  Cl  Cl3       1.0  0.7584545582533067  0.24154550062030608  0.24154540386397444  1.0000
  Cl  Cl4       1.0  0.2415452637250112  0.7584548032169858  0.7584546538976265  1.0000
  Cl  Cl5       1.0  0.2415455057197291  0.7584545045124677  0.24154541438413957  1.0000
  Cl  Cl6       1.0  0.7584549195829556  0.24154514983370176  0.758454822433576  1.0000
