data_image0
_chemical_formula_structural       Cd2TlBr6
_chemical_formula_sum              "Cd2 Tl1 Br6"
_cell_length_a       7.423982902588325
_cell_length_b       7.423982842403521
_cell_length_c       7.423982926282459
_cell_angle_alpha    60.00000070717881
_cell_angle_beta     59.99999988221988
_cell_angle_gamma    60.000001113743686

_space_group_name_H-M_alt    "P 1"
_space_group_IT_number       1

loop_
  _space_group_symop_operation_xyz
  'x, y, z'

loop_
  _atom_site_type_symbol
  _atom_site_label
  _atom_site_symmetry_multiplicity
  _atom_site_fract_x
  _atom_site_fract_y
  _atom_site_fract_z
  _atom_site_occupancy
  Cd  Cd1       1.0  0.24999999035947426  0.2500000024720546  0.2500000173032058  1.0000
  Cd  Cd2       1.0  0.7500000050134134  0.75000002226359  0.7499999884558195  1.0000
  Tl  Tl1       1.0  0.9999999776749815  1.6497130935071875e-09  0.9999999537642468  1.0000
  Br  Br1       1.0  0.2596288719974443  0.25962884835390665  0.7403711653208194  1.0000
  Br  Br2       1.0  0.740371188150881  0.7403711780314528  0.25962883281836097  1.0000
  Br  Br3       1.0  0.7403711531645576  0.2596288124343961  0.2596288554180669  1.0000
  Br  Br4       1.0  0.2596288704421649  0.7403711182675493  0.7403711643830876  1.0000
  Br  Br5       1.0  0.2596288444595262  0.7403711403996742  0.25962887265827306  1.0000
  Br  Br6       1.0  0.7403711028857346  0.2596288744376856  0.7403711485938493  1.0000
