data_image0
_chemical_formula_structural       Cd2TlI6
_chemical_formula_sum              "Cd2 Tl1 I6"
_cell_length_a       7.989737702109223
_cell_length_b       7.989737723347852
_cell_length_c       7.989737577307427
_cell_angle_alpha    60.000000438704625
_cell_angle_beta     60.00000009777363
_cell_angle_gamma    59.999998923424705

_space_group_name_H-M_alt    "P 1"
_space_group_IT_number       1

loop_
  _space_group_symop_operation_xyz
  'x, y, z'

loop_
  _atom_site_type_symbol
  _atom_site_label
  _atom_site_symmetry_multiplicity
  _atom_site_fract_x
  _atom_site_fract_y
  _atom_site_fract_z
  _atom_site_occupancy
  Cd  Cd1       1.0  0.2499999745341551  0.2500000429907654  0.24999997903652735  1.0000
  Cd  Cd2       1.0  0.7499999988296129  0.7499999986760105  0.7500000009407122  1.0000
  Tl  Tl1       1.0  8.511083566633042e-09  0.9999999831381278  0.9999999891561275  1.0000
  I   I1        1.0  0.26468055783322864  0.26468065990169787  0.7353193928027955  1.0000
  I   I2        1.0  0.7353194555160859  0.7353193311794609  0.2646806125001683  1.0000
  I   I3        1.0  0.73531942266111  0.2646806082821696  0.26468056754266966  1.0000
  I   I4        1.0  0.26468057223584973  0.7353193904634767  0.7353194569218889  1.0000
  I   I5        1.0  0.26468059627763924  0.7353193936695689  0.2646805689148885  1.0000
  I   I6        1.0  0.7353194098455273  0.26468059741158995  0.7353194287366991  1.0000
