data_image0
_chemical_formula_structural       Cd2TaCl6
_chemical_formula_sum              "Cd2 Ta1 Cl6"
_cell_length_a       7.77299675668039
_cell_length_b       7.772997093857
_cell_length_c       7.772996102329267
_cell_angle_alpha    60.00000713075453
_cell_angle_beta     59.99999651126557
_cell_angle_gamma    60.000003603495884

_space_group_name_H-M_alt    "P 1"
_space_group_IT_number       1

loop_
  _space_group_symop_operation_xyz
  'x, y, z'

loop_
  _atom_site_type_symbol
  _atom_site_label
  _atom_site_symmetry_multiplicity
  _atom_site_fract_x
  _atom_site_fract_y
  _atom_site_fract_z
  _atom_site_occupancy
  Cd  Cd1       1.0  0.24999991407250255  0.25000017288962195  0.24999988311803653  1.0000
  Cd  Cd2       1.0  0.7500001703870437  0.7500000853678085  0.7500001883925136  1.0000
  Ta  Ta1       1.0  0.9999999714609014  0.9999999385500226  0.9999999549391732  1.0000
  Cl  Cl1       1.0  0.21584825123847468  0.2158481910984481  0.784151743457288  1.0000
  Cl  Cl2       1.0  0.7841517556803042  0.7841516669463271  0.21584830705591548  1.0000
  Cl  Cl3       1.0  0.7841517178350073  0.21584821689679254  0.21584829689095164  1.0000
  Cl  Cl4       1.0  0.21584827910472168  0.7841516710851447  0.7841516767449258  1.0000
  Cl  Cl5       1.0  0.21584816080166974  0.7841517727879884  0.21584827515701777  1.0000
  Cl  Cl6       1.0  0.7841517935211173  0.2158482207618505  0.7841516708628997  1.0000
