data_image0
_chemical_formula_structural       Cd2TlCl6
_chemical_formula_sum              "Cd2 Tl1 Cl6"
_cell_length_a       7.129763403649482
_cell_length_b       7.129763570224273
_cell_length_c       7.129763569084942
_cell_angle_alpha    59.99999993226408
_cell_angle_beta     59.99999877061003
_cell_angle_gamma    59.99999958397577

_space_group_name_H-M_alt    "P 1"
_space_group_IT_number       1

loop_
  _space_group_symop_operation_xyz
  'x, y, z'

loop_
  _atom_site_type_symbol
  _atom_site_label
  _atom_site_symmetry_multiplicity
  _atom_site_fract_x
  _atom_site_fract_y
  _atom_site_fract_z
  _atom_site_occupancy
  Cd  Cd1       1.0  0.24999999801355768  0.24999993414090022  0.25000005752141186  1.0000
  Cd  Cd2       1.0  0.7500000310095525  0.7499999587417452  0.7500000057917207  1.0000
  Tl  Tl1       1.0  1.2041397500962135e-08  0.9999999347239152  5.326619361420249e-08  1.0000
  Cl  Cl1       1.0  0.257372807005734  0.25737298340655007  0.7426271487641489  1.0000
  Cl  Cl2       1.0  0.7426271549421118  0.7426270864086411  0.25737291432061404  1.0000
  Cl  Cl3       1.0  0.7426271213164732  0.2573729611874738  0.2573728755613701  1.0000
  Cl  Cl4       1.0  0.2573729884987073  0.7426272529222191  0.7426269446650714  1.0000
  Cl  Cl5       1.0  0.2573728529854455  0.7426270394709173  0.25737290889532494  1.0000
  Cl  Cl6       1.0  0.7426270407645794  0.25737284138718697  0.7426271032377975  1.0000
