data_image0
_chemical_formula_structural       Cd2TlF6
_chemical_formula_sum              "Cd2 Tl1 F6"
_cell_length_a       6.074935557094586
_cell_length_b       6.0749349836366715
_cell_length_c       6.074934608348757
_cell_angle_alpha    60.00000117618443
_cell_angle_beta     59.999995597533506
_cell_angle_gamma    59.999991120828255

_space_group_name_H-M_alt    "P 1"
_space_group_IT_number       1

loop_
  _space_group_symop_operation_xyz
  'x, y, z'

loop_
  _atom_site_type_symbol
  _atom_site_label
  _atom_site_symmetry_multiplicity
  _atom_site_fract_x
  _atom_site_fract_y
  _atom_site_fract_z
  _atom_site_occupancy
  Cd  Cd1       1.0  0.24999979492515298  0.24999869327296284  0.2500009116298575  1.0000
  Cd  Cd2       1.0  0.7499998233021952  0.7500001300885342  0.7500006254721998  1.0000
  Tl  Tl1       1.0  4.300594707001969e-08  7.056218219897925e-08  0.9999997983584055  1.0000
  F   F1        1.0  0.2506908200203787  0.2506905001012286  0.7493092677635202  1.0000
  F   F2        1.0  0.7493090502135895  0.7493098937729487  0.25069015971204966  1.0000
  F   F3        1.0  0.7493098593228988  0.25069052557579957  0.25069009227748096  1.0000
  F   F4        1.0  0.2506901408348801  0.7493098662823098  0.7493094720694152  1.0000
  F   F5        1.0  0.25069052447751544  0.7493100285536278  0.25069018256576847  1.0000
  F   F6        1.0  0.7493097875600816  0.25069028871014415  0.7493093602587522  1.0000
