data_image0
_chemical_formula_structural       Cl2BiF6
_chemical_formula_sum              "Cl2 Bi1 F6"
_cell_length_a       6.340233167001793
_cell_length_b       6.340233118746508
_cell_length_c       6.340233426191569
_cell_angle_alpha    59.9999902996585
_cell_angle_beta     59.99999256011007
_cell_angle_gamma    59.99999198010005

_space_group_name_H-M_alt    "P 1"
_space_group_IT_number       1

loop_
  _space_group_symop_operation_xyz
  'x, y, z'

loop_
  _atom_site_type_symbol
  _atom_site_label
  _atom_site_symmetry_multiplicity
  _atom_site_fract_x
  _atom_site_fract_y
  _atom_site_fract_z
  _atom_site_occupancy
  Cl  Cl1       1.0  0.25000004655255  0.25000005212071846  0.24999995807551542  1.0000
  Cl  Cl2       1.0  0.7499998579008282  0.7500001602255667  0.7500000321000123  1.0000
  Bi  Bi1       1.0  0.9999999970203989  0.9999999652293325  1.0404550235312017e-07  1.0000
  F   F1        1.0  0.2259060585889265  0.22590604171560988  0.7740939372731437  1.0000
  F   F2        1.0  0.7740939119117155  0.7740938905336829  0.2259060731796676  1.0000
  F   F3        1.0  0.7740939753184947  0.2259061053766805  0.2259060229133754  1.0000
  F   F4        1.0  0.22590599552927274  0.7740939678869614  0.7740939326309804  1.0000
  F   F5        1.0  0.22590609435243905  0.7740938433270472  0.2259060845221713  1.0000
  F   F6        1.0  0.7740939001555863  0.2259060715369126  0.774093951009737  1.0000
