data_image0
_chemical_formula_structural       Cl2GaF6
_chemical_formula_sum              "Cl2 Ga1 F6"
_cell_length_a       5.729026701774285
_cell_length_b       5.72902623768307
_cell_length_c       5.729026814043201
_cell_angle_alpha    60.00000139773356
_cell_angle_beta     60.00000313044546
_cell_angle_gamma    59.99999838392086

_space_group_name_H-M_alt    "P 1"
_space_group_IT_number       1

loop_
  _space_group_symop_operation_xyz
  'x, y, z'

loop_
  _atom_site_type_symbol
  _atom_site_label
  _atom_site_symmetry_multiplicity
  _atom_site_fract_x
  _atom_site_fract_y
  _atom_site_fract_z
  _atom_site_occupancy
  Cl  Cl1       1.0  0.25000001715811365  0.24999989371249173  0.2500000524250131  1.0000
  Cl  Cl2       1.0  0.7499998369864521  0.7500001129708369  0.750000003219386  1.0000
  Ga  Ga1       1.0  3.908790540319386e-09  6.413366803681435e-09  0.9999999983299159  1.0000
  F   F1        1.0  0.23712349089969753  0.2371236539559305  0.7628763984693548  1.0000
  F   F2        1.0  0.7628765447435357  0.7628763826564396  0.23712354622470466  1.0000
  F   F3        1.0  0.762876487557246  0.23712355133177995  0.23712353930324648  1.0000
  F   F4        1.0  0.23712356767189824  0.762876444662602  0.7628764490712965  1.0000
  F   F5        1.0  0.23712360433691132  0.7628764197288053  0.23712355222309617  1.0000
  F   F6        1.0  0.7628764564917198  0.23712352923422014  0.7628764481398944  1.0000
