data_image0
_chemical_formula_structural       Cl2NF6
_chemical_formula_sum              "Cl2 N1 F6"
_cell_length_a       5.816904826696084
_cell_length_b       5.81690466166805
_cell_length_c       5.8169045510268855
_cell_angle_alpha    59.999990826550075
_cell_angle_beta     59.99999547167307
_cell_angle_gamma    59.99999390683238

_space_group_name_H-M_alt    "P 1"
_space_group_IT_number       1

loop_
  _space_group_symop_operation_xyz
  'x, y, z'

loop_
  _atom_site_type_symbol
  _atom_site_label
  _atom_site_symmetry_multiplicity
  _atom_site_fract_x
  _atom_site_fract_y
  _atom_site_fract_z
  _atom_site_occupancy
  Cl  Cl1       1.0  0.24999982940673215  0.24999824554169564  0.25000155730195345  1.0000
  Cl  Cl2       1.0  0.7499997288180882  0.7499992971221536  0.7500022576050133  1.0000
  N   N1        1.0  4.422536661775076e-08  4.5689194003636535e-07  0.9999993351316072  1.0000
  F   F1        1.0  0.1988506097077844  0.1988509890330683  0.8011486264395384  1.0000
  F   F2        1.0  0.8011499000932724  0.8011499518961498  0.19885023199819601  1.0000
  F   F3        1.0  0.8011495466051131  0.1988506051670118  0.19884999874543363  1.0000
  F   F4        1.0  0.19885061070574842  0.8011496662155715  0.8011490887738876  1.0000
  F   F5        1.0  0.1988502526744147  0.8011496245249179  0.1988499008305194  1.0000
  F   F6        1.0  0.8011494344446262  0.19885118796929954  0.8011488882023844  1.0000
