data_image0
_chemical_formula_structural       Co2AsS6
_chemical_formula_sum              "Co2 As1 S6"
_cell_length_a       6.387506373712665
_cell_length_b       6.387506424045113
_cell_length_c       6.387506659328081
_cell_angle_alpha    59.99999801876544
_cell_angle_beta     59.99999806622681
_cell_angle_gamma    59.9999958967299

_space_group_name_H-M_alt    "P 1"
_space_group_IT_number       1

loop_
  _space_group_symop_operation_xyz
  'x, y, z'

loop_
  _atom_site_type_symbol
  _atom_site_label
  _atom_site_symmetry_multiplicity
  _atom_site_fract_x
  _atom_site_fract_y
  _atom_site_fract_z
  _atom_site_occupancy
  Co  Co1       1.0  0.24999993304914467  0.24999997871760352  0.2500001311058527  1.0000
  Co  Co2       1.0  0.7499996280128229  0.7499999994272495  0.7499997975418637  1.0000
  As  As1       1.0  0.99999989650088  5.5604804177063004e-08  5.5258279902216526e-08  1.0000
  S   S1        1.0  0.26006587234111167  0.26006547929473645  0.7399343845168386  1.0000
  S   S2        1.0  0.7399342761515416  0.7399342821831091  0.2600660867326236  1.0000
  S   S3        1.0  0.7399340807039274  0.26006578719328843  0.2600656195010299  1.0000
  S   S4        1.0  0.26006599311627376  0.7399343826922388  0.7399342340006592  1.0000
  S   S5        1.0  0.2600658504480865  0.7399341827720164  0.26006550754213387  1.0000
  S   S6        1.0  0.7399344551681734  0.26006583947317025  0.7399342115138863  1.0000
