data_image0
_chemical_formula_structural       Co2AsSe6
_chemical_formula_sum              "Co2 As1 Se6"
_cell_length_a       6.4835019123676085
_cell_length_b       6.483502144910712
_cell_length_c       6.483501925160784
_cell_angle_alpha    60.00000029324111
_cell_angle_beta     59.99999839673336
_cell_angle_gamma    60.00000103142968

_space_group_name_H-M_alt    "P 1"
_space_group_IT_number       1

loop_
  _space_group_symop_operation_xyz
  'x, y, z'

loop_
  _atom_site_type_symbol
  _atom_site_label
  _atom_site_symmetry_multiplicity
  _atom_site_fract_x
  _atom_site_fract_y
  _atom_site_fract_z
  _atom_site_occupancy
  Co  Co1       1.0  0.2499998517746205  0.25000121268943  0.24999950917110444  1.0000
  Co  Co2       1.0  0.7499998689361781  0.749999550234567  0.7500014248805441  1.0000
  As  As1       1.0  1.3128962556702018e-07  0.9999999641086695  0.9999999862331307  1.0000
  Se  Se1       1.0  0.29349579245551743  0.2934960774390808  0.7065040744325816  1.0000
  Se  Se2       1.0  0.7065043038980923  0.7065036654155115  0.2934955453710645  1.0000
  Se  Se3       1.0  0.7065040652124042  0.2934962829182506  0.29349550531218127  1.0000
  Se  Se4       1.0  0.29349585410155604  0.7065036223918391  0.7065043006991977  1.0000
  Se  Se5       1.0  0.29349626614528945  0.7065036824275548  0.29349557466297643  1.0000
  Se  Se6       1.0  0.7065038554137539  0.293495952753044  0.7065040755783152  1.0000
