data_image0
_chemical_formula_structural       Co2AsO6
_chemical_formula_sum              "Co2 As1 O6"
_cell_length_a       5.210777875849255
_cell_length_b       5.210778133358883
_cell_length_c       5.210777897974986
_cell_angle_alpha    59.99999925604603
_cell_angle_beta     59.999999219682465
_cell_angle_gamma    60.00000060401564

_space_group_name_H-M_alt    "P 1"
_space_group_IT_number       1

loop_
  _space_group_symop_operation_xyz
  'x, y, z'

loop_
  _atom_site_type_symbol
  _atom_site_label
  _atom_site_symmetry_multiplicity
  _atom_site_fract_x
  _atom_site_fract_y
  _atom_site_fract_z
  _atom_site_occupancy
  Co  Co1       1.0  0.25000019954794456  0.24999904629346717  0.2500002586089464  1.0000
  Co  Co2       1.0  0.7499991444911999  0.7500008830784702  0.7500026092461146  1.0000
  As  As1       1.0  0.9999999942468736  3.055528896648094e-08  1.032613023103685e-09  1.0000
  O   O1        1.0  0.2444461438353425  0.24444502806751978  0.7555544148774925  1.0000
  O   O2        1.0  0.7555542723873347  0.7555546098540536  0.24444438561680457  1.0000
  O   O3        1.0  0.7555543499817925  0.24444592170984628  0.24444505168039377  1.0000
  O   O4        1.0  0.24444516425395915  0.7555545341533059  0.7555541765755184  1.0000
  O   O5        1.0  0.24444615540871412  0.7555549078487097  0.24444485890519826  1.0000
  O   O6        1.0  0.7555546273192983  0.24444503327533862  0.7555541498402769  1.0000
