data_image0
_chemical_formula_structural       Co2AsCl6
_chemical_formula_sum              "Co2 As1 Cl6"
_cell_length_a       6.594693065523688
_cell_length_b       6.594693057261762
_cell_length_c       6.594692752064836
_cell_angle_alpha    60.0000004318744
_cell_angle_beta     60.000000481973224
_cell_angle_gamma    60.00000104536161

_space_group_name_H-M_alt    "P 1"
_space_group_IT_number       1

loop_
  _space_group_symop_operation_xyz
  'x, y, z'

loop_
  _atom_site_type_symbol
  _atom_site_label
  _atom_site_symmetry_multiplicity
  _atom_site_fract_x
  _atom_site_fract_y
  _atom_site_fract_z
  _atom_site_occupancy
  Co  Co1       1.0  0.24999952318467375  0.2500002129128876  0.2500001359981118  1.0000
  Co  Co2       1.0  0.7499999434829365  0.7499998420138865  0.7499995704660055  1.0000
  As  As1       1.0  1.5254543798376994e-07  0.9999999888569965  1.4215550421661013e-08  1.0000
  Cl  Cl1       1.0  0.25239263009295404  0.2523926786024595  0.7476073790722729  1.0000
  Cl  Cl2       1.0  0.747607472899406  0.7476071850360766  0.2523928812554712  1.0000
  Cl  Cl3       1.0  0.7476073657800429  0.2523926552741398  0.25239276379800274  1.0000
  Cl  Cl4       1.0  0.2523928762082969  0.7476072956512637  0.7476072984715473  1.0000
  Cl  Cl5       1.0  0.25239260701784544  0.7476073053521666  0.25239274683826196  1.0000
  Cl  Cl6       1.0  0.747607433501428  0.2523928350043056  0.7476072031733589  1.0000
