data_image0
_chemical_formula_structural       Co2AsBr6
_chemical_formula_sum              "Co2 As1 Br6"
_cell_length_a       7.09307667655205
_cell_length_b       7.093076849034609
_cell_length_c       7.093077009269787
_cell_angle_alpha    60.00000110758222
_cell_angle_beta     59.99999925651477
_cell_angle_gamma    59.99999774340379

_space_group_name_H-M_alt    "P 1"
_space_group_IT_number       1

loop_
  _space_group_symop_operation_xyz
  'x, y, z'

loop_
  _atom_site_type_symbol
  _atom_site_label
  _atom_site_symmetry_multiplicity
  _atom_site_fract_x
  _atom_site_fract_y
  _atom_site_fract_z
  _atom_site_occupancy
  Co  Co1       1.0  0.25000032378736103  0.2500000924529819  0.24999976383193395  1.0000
  Co  Co2       1.0  0.7499998668129372  0.7499998646833191  0.7500002192872212  1.0000
  As  As1       1.0  0.9999999681975914  1.726676466326952e-08  0.9999999621534098  1.0000
  Br  Br1       1.0  0.256215912845293  0.25621576515634553  0.7437841775373563  1.0000
  Br  Br2       1.0  0.7437840232878172  0.7437842472336088  0.25621582341869353  1.0000
  Br  Br3       1.0  0.7437841136412494  0.2562159060106465  0.2562158060590212  1.0000
  Br  Br4       1.0  0.2562158555610809  0.7437840511256613  0.7437842327759234  1.0000
  Br  Br5       1.0  0.25621586899622134  0.7437841649565087  0.2562157900769283  1.0000
  Br  Br6       1.0  0.743784062038666  0.2562158871470045  0.7437842231777869  1.0000
