data_image0
_chemical_formula_structural       Co2AsF6
_chemical_formula_sum              "Co2 As1 F6"
_cell_length_a       5.394213623238003
_cell_length_b       5.394214948437871
_cell_length_c       5.394214051010322
_cell_angle_alpha    60.000001653225766
_cell_angle_beta     59.99999771041085
_cell_angle_gamma    60.00000223075079

_space_group_name_H-M_alt    "P 1"
_space_group_IT_number       1

loop_
  _space_group_symop_operation_xyz
  'x, y, z'

loop_
  _atom_site_type_symbol
  _atom_site_label
  _atom_site_symmetry_multiplicity
  _atom_site_fract_x
  _atom_site_fract_y
  _atom_site_fract_z
  _atom_site_occupancy
  Co  Co1       1.0  0.24999909745826185  0.2500008216815878  0.25000052217878155  1.0000
  Co  Co2       1.0  0.7500010343498721  0.7499995747257948  0.7500000432361721  1.0000
  As  As1       1.0  0.999999971285156  9.081916498381801e-09  0.9999999560551559  1.0000
  F   F1        1.0  0.25142112067585015  0.2514215669028991  0.7485784676654242  1.0000
  F   F2        1.0  0.7485788769295473  0.7485783458926523  0.2514212776693707  1.0000
  F   F3        1.0  0.748578780503344  0.2514212973131115  0.2514213511942521  1.0000
  F   F4        1.0  0.25142105845814405  0.7485785905071777  0.7485785879112289  1.0000
  F   F5        1.0  0.2514212958876438  0.748578406219875  0.25142134906790325  1.0000
  F   F6        1.0  0.7485787803831246  0.25142134764218876  0.7485784808930713  1.0000
