data_image0
_chemical_formula_structural       Co2BI6
_chemical_formula_sum              "Co2 B1 I6"
_cell_length_a       7.425484984689726
_cell_length_b       7.425484766734408
_cell_length_c       7.425484921418035
_cell_angle_alpha    60.00000020741075
_cell_angle_beta     60.00000073618973
_cell_angle_gamma    60.000001058613854

_space_group_name_H-M_alt    "P 1"
_space_group_IT_number       1

loop_
  _space_group_symop_operation_xyz
  'x, y, z'

loop_
  _atom_site_type_symbol
  _atom_site_label
  _atom_site_symmetry_multiplicity
  _atom_site_fract_x
  _atom_site_fract_y
  _atom_site_fract_z
  _atom_site_occupancy
  Co  Co1       1.0  0.24999998670208884  0.2500000318592973  0.2499999648950663  1.0000
  Co  Co2       1.0  0.7500000119431395  0.7499999867187911  0.7500001144296142  1.0000
  B   B1        1.0  0.999999975903419  6.762459467514668e-08  4.826509001957975e-08  1.0000
  I   I1        1.0  0.23177155519790588  0.23177150309932687  0.7682284609061266  1.0000
  I   I2        1.0  0.7682284754916314  0.7682284659973498  0.23177145610450406  1.0000
  I   I3        1.0  0.7682284755745327  0.23177155008173272  0.23177153323936775  1.0000
  I   I4        1.0  0.2317714811948421  0.768228435508747  0.7682284730865455  1.0000
  I   I5        1.0  0.23177156276129007  0.7682284260295379  0.23177153595756445  1.0000
  I   I6        1.0  0.7682284732375223  0.23177153646961796  0.7682284153650241  1.0000
