data_image0
_chemical_formula_structural       Co2BBr6
_chemical_formula_sum              "Co2 B1 Br6"
_cell_length_a       7.0131493351046945
_cell_length_b       7.01314932465441
_cell_length_c       7.013149123831105
_cell_angle_alpha    60.00000084497063
_cell_angle_beta     60.000002377007355
_cell_angle_gamma    60.00000184517292

_space_group_name_H-M_alt    "P 1"
_space_group_IT_number       1

loop_
  _space_group_symop_operation_xyz
  'x, y, z'

loop_
  _atom_site_type_symbol
  _atom_site_label
  _atom_site_symmetry_multiplicity
  _atom_site_fract_x
  _atom_site_fract_y
  _atom_site_fract_z
  _atom_site_occupancy
  Co  Co1       1.0  0.24999974616559575  0.24999999173606385  0.2500001902267338  1.0000
  Co  Co2       1.0  0.7500000103332717  0.7499997638992445  0.7499999424985577  1.0000
  B   B1        1.0  4.405544064643792e-08  2.0956259727433618e-08  1.45730770914168e-07  1.0000
  Br  Br1       1.0  0.2261190571734125  0.22611910017347697  0.7738808431145712  1.0000
  Br  Br2       1.0  0.7738809462944087  0.7738808283509816  0.22611914669864017  1.0000
  Br  Br3       1.0  0.7738809382666587  0.2261191852866103  0.22611899051798873  1.0000
  Br  Br4       1.0  0.22611916821015332  0.773880982488488  0.7738808951823775  1.0000
  Br  Br5       1.0  0.22611908383958276  0.7738808916777756  0.22611901276923937  1.0000
  Br  Br6       1.0  0.77388101568608  0.22611923767751244  0.7738808243219584  1.0000
