data_image0
_chemical_formula_structural       Co2BF6
_chemical_formula_sum              "Co2 B1 F6"
_cell_length_a       4.934405958785574
_cell_length_b       4.93440588130135
_cell_length_c       4.934405998348569
_cell_angle_alpha    59.999999566867686
_cell_angle_beta     59.999999824630315
_cell_angle_gamma    60.000000161211254

_space_group_name_H-M_alt    "P 1"
_space_group_IT_number       1

loop_
  _space_group_symop_operation_xyz
  'x, y, z'

loop_
  _atom_site_type_symbol
  _atom_site_label
  _atom_site_symmetry_multiplicity
  _atom_site_fract_x
  _atom_site_fract_y
  _atom_site_fract_z
  _atom_site_occupancy
  Co  Co1       1.0  0.2500000441863685  0.2499999147095843  0.2499999263037644  1.0000
  Co  Co2       1.0  0.7499999144753821  0.7500000543851709  0.7500000692382863  1.0000
  B   B1        1.0  1.7208053242712412e-08  0.9999999975179489  3.114214018191553e-08  1.0000
  F   F1        1.0  0.22737940637904563  0.2273794410819422  0.7726206037083098  1.0000
  F   F2        1.0  0.7726206080192621  0.7726205503512757  0.2273794298065137  1.0000
  F   F3        1.0  0.7726205566027904  0.22737942931681182  0.22737941942966036  1.0000
  F   F4        1.0  0.2273794409889617  0.7726205844548678  0.7726205505216185  1.0000
  F   F5        1.0  0.2273794625026533  0.7726205675748301  0.22737941666830505  1.0000
  F   F6        1.0  0.7726205655104039  0.22737944619684988  0.7726205765774624  1.0000
