data_image0
_chemical_formula_structural       Co2BCl6
_chemical_formula_sum              "Co2 B1 Cl6"
_cell_length_a       6.435354958664978
_cell_length_b       6.435354932807452
_cell_length_c       6.435355084644806
_cell_angle_alpha    60.00000041946566
_cell_angle_beta     59.999999943384275
_cell_angle_gamma    59.9999980723687

_space_group_name_H-M_alt    "P 1"
_space_group_IT_number       1

loop_
  _space_group_symop_operation_xyz
  'x, y, z'

loop_
  _atom_site_type_symbol
  _atom_site_label
  _atom_site_symmetry_multiplicity
  _atom_site_fract_x
  _atom_site_fract_y
  _atom_site_fract_z
  _atom_site_occupancy
  Co  Co1       1.0  0.24999990799574517  0.25000002831927315  0.24999983285626612  1.0000
  Co  Co2       1.0  0.7499997964686206  0.7499999536404436  0.7500002490037282  1.0000
  B   B1        1.0  0.9999998396381098  0.9999998781983754  2.9181158899930645e-07  1.0000
  Cl  Cl1       1.0  0.22710959860255897  0.2271095459039843  0.7728904518536798  1.0000
  Cl  Cl2       1.0  0.772890650096653  0.7728905635668015  0.22710933453517138  1.0000
  Cl  Cl3       1.0  0.7728905880981471  0.2271094862742429  0.22710942824688313  1.0000
  Cl  Cl4       1.0  0.22710952321996664  0.7728905508768287  0.7728904800854469  1.0000
  Cl  Cl5       1.0  0.227109631945192  0.7728904894799756  0.22710940101678528  1.0000
  Cl  Cl6       1.0  0.772890475694139  0.2271095210269894  0.772890517815242  1.0000
