data_image0
_chemical_formula_structural       Co2GaF6
_chemical_formula_sum              "Co2 Ga1 F6"
_cell_length_a       5.193762232211334
_cell_length_b       5.193762153215557
_cell_length_c       5.193762166625401
_cell_angle_alpha    59.99999942151658
_cell_angle_beta     60.00000013933945
_cell_angle_gamma    60.000000093784564

_space_group_name_H-M_alt    "P 1"
_space_group_IT_number       1

loop_
  _space_group_symop_operation_xyz
  'x, y, z'

loop_
  _atom_site_type_symbol
  _atom_site_label
  _atom_site_symmetry_multiplicity
  _atom_site_fract_x
  _atom_site_fract_y
  _atom_site_fract_z
  _atom_site_occupancy
  Co  Co1       1.0  0.2500000433367139  0.2500000081043615  0.2500000414979785  1.0000
  Co  Co2       1.0  0.7499999957639665  0.7499999134820383  0.7500000987777798  1.0000
  Ga  Ga1       1.0  5.748836499075746e-09  9.432429609164222e-09  0.9999999693047279  1.0000
  F   F1        1.0  0.2513889792977898  0.25138901833377425  0.7486110138459887  1.0000
  F   F2        1.0  0.7486109825710768  0.7486110282323161  0.25138896777877  1.0000
  F   F3        1.0  0.7486109321517996  0.25138903469849055  0.2513889561823913  1.0000
  F   F4        1.0  0.2513890390146338  0.7486109906446335  0.7486110025242683  1.0000
  F   F5        1.0  0.25138901533653285  0.7486109858265368  0.25138897480159955  1.0000
  F   F6        1.0  0.7486110131179569  0.25138902772605076  0.7486109842609391  1.0000
