data_image0
_chemical_formula_structural       Co2GaI6
_chemical_formula_sum              "Co2 Ga1 I6"
_cell_length_a       7.566613703285937
_cell_length_b       7.566613719165238
_cell_length_c       7.566613609967994
_cell_angle_alpha    60.00000014523641
_cell_angle_beta     59.99999991475538
_cell_angle_gamma    59.999999976062874

_space_group_name_H-M_alt    "P 1"
_space_group_IT_number       1

loop_
  _space_group_symop_operation_xyz
  'x, y, z'

loop_
  _atom_site_type_symbol
  _atom_site_label
  _atom_site_symmetry_multiplicity
  _atom_site_fract_x
  _atom_site_fract_y
  _atom_site_fract_z
  _atom_site_occupancy
  Co  Co1       1.0  0.2500000218455958  0.2500000051667144  0.24999999220531136  1.0000
  Co  Co2       1.0  0.7500000038628126  0.7500000219746108  0.749999968532618  1.0000
  Ga  Ga1       1.0  0.9999999970404772  0.9999999951441494  0.9999999708678075  1.0000
  I   I1        1.0  0.256257148952601  0.25625712871102485  0.7437428582523699  1.0000
  I   I2        1.0  0.7437428671684412  0.7437428676765795  0.25625713983684045  1.0000
  I   I3        1.0  0.7437428521171118  0.25625711881593827  0.2562571566475691  1.0000
  I   I4        1.0  0.25625710421040077  0.7437428921392182  0.7437428785921769  1.0000
  I   I5        1.0  0.2562571272577323  0.7437428623125181  0.2562571413143655  1.0000
  I   I6        1.0  0.7437428761312803  0.25625710817721625  0.7437428945921268  1.0000
