data_image0
_chemical_formula_structural       Co2GaBr6
_chemical_formula_sum              "Co2 Ga1 Br6"
_cell_length_a       6.95456365442458
_cell_length_b       6.954563736039819
_cell_length_c       6.954563782328214
_cell_angle_alpha    60.00000044294488
_cell_angle_beta     60.00000042659095
_cell_angle_gamma    60.000001130332436

_space_group_name_H-M_alt    "P 1"
_space_group_IT_number       1

loop_
  _space_group_symop_operation_xyz
  'x, y, z'

loop_
  _atom_site_type_symbol
  _atom_site_label
  _atom_site_symmetry_multiplicity
  _atom_site_fract_x
  _atom_site_fract_y
  _atom_site_fract_z
  _atom_site_occupancy
  Co  Co1       1.0  0.24999991902972357  0.24999995079873832  0.250000134270324  1.0000
  Co  Co2       1.0  0.7499999705316932  0.7500001236004429  0.7499998441485642  1.0000
  Ga  Ga1       1.0  4.425969139838122e-08  0.9999999718229381  8.542249145432325e-08  1.0000
  Br  Br1       1.0  0.2549883141465489  0.2549882172792491  0.745011747290002  1.0000
  Br  Br2       1.0  0.7450117232723613  0.7450117074292884  0.2549883240713631  1.0000
  Br  Br3       1.0  0.7450117870163506  0.25498821644905056  0.2549883100799816  1.0000
  Br  Br4       1.0  0.2549883419059278  0.745011727631218  0.7450116353865042  1.0000
  Br  Br5       1.0  0.25498815967529476  0.7450118156783978  0.2549882249812132  1.0000
  Br  Br6       1.0  0.7450117384727393  0.2549882728093147  0.7450116975250552  1.0000
