data_image0
_chemical_formula_structural       Co2GaCl6
_chemical_formula_sum              "Co2 Ga1 Cl6"
_cell_length_a       6.517138911325804
_cell_length_b       6.517138889032156
_cell_length_c       6.51713885362704
_cell_angle_alpha    59.99999948704109
_cell_angle_beta     59.999999927538255
_cell_angle_gamma    60.00000074150608

_space_group_name_H-M_alt    "P 1"
_space_group_IT_number       1

loop_
  _space_group_symop_operation_xyz
  'x, y, z'

loop_
  _atom_site_type_symbol
  _atom_site_label
  _atom_site_symmetry_multiplicity
  _atom_site_fract_x
  _atom_site_fract_y
  _atom_site_fract_z
  _atom_site_occupancy
  Co  Co1       1.0  0.25000001936579797  0.24999992795012094  0.24999994197357955  1.0000
  Co  Co2       1.0  0.7499999954366987  0.7500000037246844  0.7499998700671784  1.0000
  Ga  Ga1       1.0  2.4160205803222665e-08  3.382681954721974e-08  0.9999999249740169  1.0000
  Cl  Cl1       1.0  0.252757240548089  0.2527572088973392  0.7472427987848139  1.0000
  Cl  Cl2       1.0  0.7472427520256265  0.7472427735176926  0.2527572736606265  1.0000
  Cl  Cl3       1.0  0.7472427441428374  0.2527572352692922  0.25275727818626786  1.0000
  Cl  Cl4       1.0  0.25275724340105776  0.7472427941274324  0.7472428070403809  1.0000
  Cl  Cl5       1.0  0.25275720862982787  0.7472427710178822  0.2527572768451883  1.0000
  Cl  Cl6       1.0  0.7472427630754291  0.2527572527410389  0.7472428452047478  1.0000
