data_image0
_chemical_formula_structural       Co2IrI6
_chemical_formula_sum              "Co2 Ir1 I6"
_cell_length_a       7.469013222525726
_cell_length_b       7.469013238133253
_cell_length_c       7.469013313997095
_cell_angle_alpha    59.999999768199594
_cell_angle_beta     59.99999956750489
_cell_angle_gamma    60.00000027126006

_space_group_name_H-M_alt    "P 1"
_space_group_IT_number       1

loop_
  _space_group_symop_operation_xyz
  'x, y, z'

loop_
  _atom_site_type_symbol
  _atom_site_label
  _atom_site_symmetry_multiplicity
  _atom_site_fract_x
  _atom_site_fract_y
  _atom_site_fract_z
  _atom_site_occupancy
  Co  Co1       1.0  0.25000001451031734  0.250000011253385  0.24999998498741527  1.0000
  Co  Co2       1.0  0.7499999904529477  0.7499999796478117  0.7500000714840711  1.0000
  Ir  Ir1       1.0  2.9202303670196115e-08  0.9999999819625525  3.458351986283231e-08  1.0000
  I   I1        1.0  0.25157469691507295  0.25157470404691473  0.7484252951133109  1.0000
  I   I2        1.0  0.7484252934939304  0.7484252934133537  0.2515746743129554  1.0000
  I   I3        1.0  0.748425280540763  0.2515747421946564  0.2515747059785941  1.0000
  I   I4        1.0  0.2515747105862997  0.7484252716632916  0.7484252722950464  1.0000
  I   I5        1.0  0.2515747196493586  0.7484253005408493  0.25157468766226515  1.0000
  I   I6        1.0  0.7484252647471623  0.2515747149568668  0.7484252730737884  1.0000
