data_image0
_chemical_formula_structural       Co2IrBr6
_chemical_formula_sum              "Co2 Ir1 Br6"
_cell_length_a       7.046216924634402
_cell_length_b       7.046217027061784
_cell_length_c       7.0462169211328645
_cell_angle_alpha    59.99999888307654
_cell_angle_beta     59.99999980977462
_cell_angle_gamma    60.00000036600777

_space_group_name_H-M_alt    "P 1"
_space_group_IT_number       1

loop_
  _space_group_symop_operation_xyz
  'x, y, z'

loop_
  _atom_site_type_symbol
  _atom_site_label
  _atom_site_symmetry_multiplicity
  _atom_site_fract_x
  _atom_site_fract_y
  _atom_site_fract_z
  _atom_site_occupancy
  Co  Co1       1.0  0.25000000553703494  0.24999994870211129  0.2500000051676843  1.0000
  Co  Co2       1.0  0.7500000444669722  0.7500000181841208  0.7499999283090351  1.0000
  Ir  Ir1       1.0  0.99999999544726  3.8239507747439755e-08  7.283037246847093e-09  1.0000
  Br  Br1       1.0  0.24738717782595251  0.247387143830005  0.752612866829287  1.0000
  Br  Br2       1.0  0.7526127902063211  0.7526128821536466  0.24738717175187253  1.0000
  Br  Br3       1.0  0.7526128171478697  0.24738719754681823  0.2473871905485087  1.0000
  Br  Br4       1.0  0.2473872420269142  0.7526127467433401  0.7526127964745012  1.0000
  Br  Br5       1.0  0.24738714041195664  0.7526128285967454  0.24738722078990225  1.0000
  Br  Br6       1.0  0.7526127854927323  0.2473872008632252  0.7526128144096697  1.0000
