data_image0
_chemical_formula_structural       Co2IrCl6
_chemical_formula_sum              "Co2 Ir1 Cl6"
_cell_length_a       6.596559370743903
_cell_length_b       6.59655919270152
_cell_length_c       6.596559315797084
_cell_angle_alpha    60.00000069701679
_cell_angle_beta     59.99999954976017
_cell_angle_gamma    59.99999953750923

_space_group_name_H-M_alt    "P 1"
_space_group_IT_number       1

loop_
  _space_group_symop_operation_xyz
  'x, y, z'

loop_
  _atom_site_type_symbol
  _atom_site_label
  _atom_site_symmetry_multiplicity
  _atom_site_fract_x
  _atom_site_fract_y
  _atom_site_fract_z
  _atom_site_occupancy
  Co  Co1       1.0  0.24999998547103694  0.2499998962176329  0.25000007119776396  1.0000
  Co  Co2       1.0  0.7499997925554803  0.7499999281597168  0.7500003576817174  1.0000
  Ir  Ir1       1.0  1.4710516473203395e-08  2.4136344779413803e-08  0.9999999350983155  1.0000
  Cl  Cl1       1.0  0.24764016054432061  0.2476401632297922  0.7523598534949999  1.0000
  Cl  Cl2       1.0  0.7523598873682791  0.7523598282453284  0.24764003551289318  1.0000
  Cl  Cl3       1.0  0.7523598598923839  0.24764019239723326  0.247640066652214  1.0000
  Cl  Cl4       1.0  0.24764014798712025  0.752359940182678  0.7523598051705528  1.0000
  Cl  Cl5       1.0  0.247640278947216  0.7523598997155919  0.2476400173111213  1.0000
  Cl  Cl6       1.0  0.7523598686171336  0.24764012889236894  0.7523598639421486  1.0000
