data_image0
_chemical_formula_structural       Co2MoBr6
_chemical_formula_sum              "Co2 Mo1 Br6"
_cell_length_a       7.141357058853383
_cell_length_b       7.141357160058391
_cell_length_c       7.1413570283522585
_cell_angle_alpha    59.99999977616261
_cell_angle_beta     60.000000555328
_cell_angle_gamma    60.000000246151785

_space_group_name_H-M_alt    "P 1"
_space_group_IT_number       1

loop_
  _space_group_symop_operation_xyz
  'x, y, z'

loop_
  _atom_site_type_symbol
  _atom_site_label
  _atom_site_symmetry_multiplicity
  _atom_site_fract_x
  _atom_site_fract_y
  _atom_site_fract_z
  _atom_site_occupancy
  Co  Co1       1.0  0.250000211210999  0.24999994928113334  0.24999995058261612  1.0000
  Co  Co2       1.0  0.7499999396573305  0.750000232004066  0.7499998834294647  1.0000
  Mo  Mo1       1.0  0.9999999564888323  7.717513316195752e-08  2.097595691603928e-08  1.0000
  Br  Br1       1.0  0.24934982221188798  0.24934977585640097  0.7506501962044674  1.0000
  Br  Br2       1.0  0.7506501676538754  0.7506501996284418  0.2493498436137808  1.0000
  Br  Br3       1.0  0.7506501140230234  0.2493497324898407  0.24934985358652517  1.0000
  Br  Br4       1.0  0.24934985002249885  0.7506501555298519  0.7506501420532453  1.0000
  Br  Br5       1.0  0.24934982033405595  0.750650126753151  0.2493498293778292  1.0000
  Br  Br6       1.0  0.7506501223160003  0.2493497526915257  0.7506502694657091  1.0000
