data_image0
_chemical_formula_structural       Co2MoI6
_chemical_formula_sum              "Co2 Mo1 I6"
_cell_length_a       7.656566024763371
_cell_length_b       7.656565854718222
_cell_length_c       7.65656595912211
_cell_angle_alpha    59.999999209809985
_cell_angle_beta     59.999999713189275
_cell_angle_gamma    60.00000035769067

_space_group_name_H-M_alt    "P 1"
_space_group_IT_number       1

loop_
  _space_group_symop_operation_xyz
  'x, y, z'

loop_
  _atom_site_type_symbol
  _atom_site_label
  _atom_site_symmetry_multiplicity
  _atom_site_fract_x
  _atom_site_fract_y
  _atom_site_fract_z
  _atom_site_occupancy
  Co  Co1       1.0  0.24999998561808842  0.25000002012036887  0.24999998371504234  1.0000
  Co  Co2       1.0  0.7500000279658662  0.7499999691838624  0.7499999650961544  1.0000
  Mo  Mo1       1.0  0.9999999938603492  3.199201570980301e-08  6.664845751648291e-09  1.0000
  I   I1        1.0  0.25414455043957745  0.2541445913792177  0.7458554339886736  1.0000
  I   I2        1.0  0.7458554242835427  0.7458554059230169  0.25414459163916053  1.0000
  I   I3        1.0  0.7458554181731388  0.2541445983046231  0.25414459016498825  1.0000
  I   I4        1.0  0.25414460898387786  0.7458553909996083  0.7458553975720765  1.0000
  I   I5        1.0  0.2541446087000598  0.7458553822324538  0.254144628612413  1.0000
  I   I6        1.0  0.7458553786212048  0.2541446134701801  0.7458554006586292  1.0000
