data_image0
_chemical_formula_structural       Co2MoCl6
_chemical_formula_sum              "Co2 Mo1 Cl6"
_cell_length_a       6.675292895169076
_cell_length_b       6.6752928097958995
_cell_length_c       6.675292722770729
_cell_angle_alpha    60.00000070651663
_cell_angle_beta     60.00000104318452
_cell_angle_gamma    60.00000190616901

_space_group_name_H-M_alt    "P 1"
_space_group_IT_number       1

loop_
  _space_group_symop_operation_xyz
  'x, y, z'

loop_
  _atom_site_type_symbol
  _atom_site_label
  _atom_site_symmetry_multiplicity
  _atom_site_fract_x
  _atom_site_fract_y
  _atom_site_fract_z
  _atom_site_occupancy
  Co  Co1       1.0  0.25000027064526026  0.2499999682628524  0.24999992915326788  1.0000
  Co  Co2       1.0  0.7500000275061821  0.7500000992713295  0.7499999131522501  1.0000
  Mo  Mo1       1.0  2.1264400569217932e-08  3.6694869005209296e-09  0.9999999755485631  1.0000
  Cl  Cl1       1.0  0.25039919518837533  0.2503992297918037  0.7496007655022011  1.0000
  Cl  Cl2       1.0  0.7496006893460178  0.7496008175601945  0.25039919782698744  1.0000
  Cl  Cl3       1.0  0.7496006846599258  0.2503991739762726  0.2503992859150901  1.0000
  Cl  Cl4       1.0  0.25039914280865716  0.7496008421850894  0.7496008024376504  1.0000
  Cl  Cl5       1.0  0.25039918706041303  0.7496007896108162  0.2503992062506852  1.0000
  Cl  Cl6       1.0  0.7496007798964863  0.2503990779363432  0.7496009181242925  1.0000
