data_image0
_chemical_formula_structural       Co2NF6
_chemical_formula_sum              "Co2 N1 F6"
_cell_length_a       4.715362016354728
_cell_length_b       4.7153631847167
_cell_length_c       4.715364316595789
_cell_angle_alpha    59.99999551990829
_cell_angle_beta     59.99998933189615
_cell_angle_gamma    59.999991537982424

_space_group_name_H-M_alt    "P 1"
_space_group_IT_number       1

loop_
  _space_group_symop_operation_xyz
  'x, y, z'

loop_
  _atom_site_type_symbol
  _atom_site_label
  _atom_site_symmetry_multiplicity
  _atom_site_fract_x
  _atom_site_fract_y
  _atom_site_fract_z
  _atom_site_occupancy
  Co  Co1       1.0  0.24999988287674924  0.2500001429052785  0.24999998737472992  1.0000
  Co  Co2       1.0  0.7499999490440611  0.7500002988482989  0.7499998217121607  1.0000
  N   N1        1.0  0.9999999685645606  0.9999998077960963  2.7087418351709643e-07  1.0000
  F   F1        1.0  0.24074566086180904  0.24074559456863417  0.7592543680455338  1.0000
  F   F2        1.0  0.7592545360119292  0.7592544575823896  0.24074552971234334  1.0000
  F   F3        1.0  0.7592545181352814  0.24074549279353147  0.24074558981530297  1.0000
  F   F4        1.0  0.24074553173800786  0.759254434684701  0.7592544883144501  1.0000
  F   F5        1.0  0.24074560937105383  0.7592544172677633  0.24074542775992055  1.0000
  F   F6        1.0  0.7592543607780459  0.2407456244938801  0.7592544867600647  1.0000
