data_image0
_chemical_formula_structural       Co2NF6
_chemical_formula_sum              "Co2 N1 F6"
_cell_length_a       4.71525133145008
_cell_length_b       4.715251317417788
_cell_length_c       4.71525137699511
_cell_angle_alpha    59.99999969239868
_cell_angle_beta     59.999998856681906
_cell_angle_gamma    59.99999909632521

_space_group_name_H-M_alt    "P 1"
_space_group_IT_number       1

loop_
  _space_group_symop_operation_xyz
  'x, y, z'

loop_
  _atom_site_type_symbol
  _atom_site_label
  _atom_site_symmetry_multiplicity
  _atom_site_fract_x
  _atom_site_fract_y
  _atom_site_fract_z
  _atom_site_occupancy
  Co  Co1       1.0  0.2500000299351634  0.2500000135836248  0.24999998145284866  1.0000
  Co  Co2       1.0  0.7500000310582605  0.7499999965948763  0.7499999852062715  1.0000
  N   N1        1.0  2.9437333025532628e-08  0.9999999116880032  0.9999999955048884  1.0000
  F   F1        1.0  0.24073159464990776  0.24073160944327268  0.7592683824472619  1.0000
  F   F2        1.0  0.7592683948808374  0.7592684241119337  0.24073158916784615  1.0000
  F   F3        1.0  0.7592684265035552  0.24073158193661837  0.24073159191448434  1.0000
  F   F4        1.0  0.2407315082863945  0.7592684542160004  0.7592684799995353  1.0000
  F   F5        1.0  0.24073154317714496  0.7592684285763919  0.2407315608991846  1.0000
  F   F6        1.0  0.759268460923718  0.24073156861505118  0.7592684343374124  1.0000
