data_image0
_chemical_formula_structural       Co2NCl6
_chemical_formula_sum              "Co2 N1 Cl6"
_cell_length_a       6.417955835572572
_cell_length_b       6.417955917781983
_cell_length_c       6.417955929290786
_cell_angle_alpha    60.00000024607796
_cell_angle_beta     60.00000048519343
_cell_angle_gamma    60.00000010197718

_space_group_name_H-M_alt    "P 1"
_space_group_IT_number       1

loop_
  _space_group_symop_operation_xyz
  'x, y, z'

loop_
  _atom_site_type_symbol
  _atom_site_label
  _atom_site_symmetry_multiplicity
  _atom_site_fract_x
  _atom_site_fract_y
  _atom_site_fract_z
  _atom_site_occupancy
  Co  Co1       1.0  0.25000008319190814  0.24999998198038573  0.24999996442203404  1.0000
  Co  Co2       1.0  0.7500002026319439  0.7500000489898908  0.7499999026087091  1.0000
  N   N1        1.0  0.999999984499733  0.9999999007678864  1.3838887163243952e-07  1.0000
  Cl  Cl1       1.0  0.24202828370783644  0.2420283418027426  0.7579716709873192  1.0000
  Cl  Cl2       1.0  0.7579717200638647  0.7579716987090844  0.2420282637410684  1.0000
  Cl  Cl3       1.0  0.757971664783931  0.24202825796083421  0.24202833418622927  1.0000
  Cl  Cl4       1.0  0.24202823309235863  0.7579717062185981  0.7579716916560606  1.0000
  Cl  Cl5       1.0  0.2420281970926038  0.7579717559361298  0.24202830866901684  1.0000
  Cl  Cl6       1.0  0.757971625689259  0.24202830938372644  0.7579717150571738  1.0000
