data_image0
_chemical_formula_structural       Co2NO6
_chemical_formula_sum              "Co2 N1 O6"
_cell_length_a       4.659735685121791
_cell_length_b       4.659735727131372
_cell_length_c       4.65973571539937
_cell_angle_alpha    59.999999474645975
_cell_angle_beta     59.99999932817247
_cell_angle_gamma    59.99999968854798

_space_group_name_H-M_alt    "P 1"
_space_group_IT_number       1

loop_
  _space_group_symop_operation_xyz
  'x, y, z'

loop_
  _atom_site_type_symbol
  _atom_site_label
  _atom_site_symmetry_multiplicity
  _atom_site_fract_x
  _atom_site_fract_y
  _atom_site_fract_z
  _atom_site_occupancy
  Co  Co1       1.0  0.2500000765804155  0.2500004786295059  0.2499992144090271  1.0000
  Co  Co2       1.0  0.7499998370947977  0.7500008445081972  0.7499997039989679  1.0000
  N   N1        1.0  0.9999983227177465  4.444551613570232e-06  0.9999955968807552  1.0000
  O   O1        1.0  0.24143955410631746  0.24143974926204106  0.7585601520688489  1.0000
  O   O2        1.0  0.758558193064551  0.7585584908129654  0.24144149198677797  1.0000
  O   O3        1.0  0.7585593576711709  0.24144069893282064  0.2414404060132681  1.0000
  O   O4        1.0  0.2414403656895024  0.7585595150382509  0.7585592393929188  1.0000
  O   O5        1.0  0.24144281146200558  0.7585573887442911  0.24144251185416363  1.0000
  O   O6        1.0  0.7585614652819644  0.24143842798558104  0.7585616287017157  1.0000
