data_image0
_chemical_formula_structural       Co2NCl6
_chemical_formula_sum              "Co2 N1 Cl6"
_cell_length_a       6.417470361752445
_cell_length_b       6.417470005877039
_cell_length_c       6.417469772544373
_cell_angle_alpha    60.000001685821545
_cell_angle_beta     59.9999990846116
_cell_angle_gamma    60.000002881756934

_space_group_name_H-M_alt    "P 1"
_space_group_IT_number       1

loop_
  _space_group_symop_operation_xyz
  'x, y, z'

loop_
  _atom_site_type_symbol
  _atom_site_label
  _atom_site_symmetry_multiplicity
  _atom_site_fract_x
  _atom_site_fract_y
  _atom_site_fract_z
  _atom_site_occupancy
  Co  Co1       1.0  0.2499986918696277  0.2500003830815505  0.2500002228132374  1.0000
  Co  Co2       1.0  0.7500005008251784  0.7499995385093179  0.7499974660990915  1.0000
  N   N1        1.0  9.000251952867397e-07  0.9999995400625736  1.4924690226743352e-06  1.0000
  Cl  Cl1       1.0  0.2420205588162416  0.2420209488907048  0.7579793515979077  1.0000
  Cl  Cl2       1.0  0.7579793350285109  0.7579788772775485  0.2420217882666235  1.0000
  Cl  Cl3       1.0  0.7579797773263078  0.2420203530103427  0.24202115801523055  1.0000
  Cl  Cl4       1.0  0.24202128916538587  0.7579790590233499  0.7579789683867364  1.0000
  Cl  Cl5       1.0  0.24201997515167506  0.7579794569008236  0.24202102425626534  1.0000
  Cl  Cl6       1.0  0.7579789904615943  0.2420218368687484  0.7579785307633103  1.0000
