data_image0
_chemical_formula_structural       Co2PCl6
_chemical_formula_sum              "Co2 P1 Cl6"
_cell_length_a       6.654929249618009
_cell_length_b       6.654929007542439
_cell_length_c       6.654929375500204
_cell_angle_alpha    59.9999971655412
_cell_angle_beta     59.99999899923199
_cell_angle_gamma    59.999999496439564

_space_group_name_H-M_alt    "P 1"
_space_group_IT_number       1

loop_
  _space_group_symop_operation_xyz
  'x, y, z'

loop_
  _atom_site_type_symbol
  _atom_site_label
  _atom_site_symmetry_multiplicity
  _atom_site_fract_x
  _atom_site_fract_y
  _atom_site_fract_z
  _atom_site_occupancy
  Co  Co1       1.0  0.2500001435675546  0.24999979627655158  0.24999997220987932  1.0000
  Co  Co2       1.0  0.7499997007370444  0.7500000900058786  0.7500001023259251  1.0000
  P   P1        1.0  6.06234463884612e-08  5.521074012927548e-09  0.9999999564092208  1.0000
  Cl  Cl1       1.0  0.24376577867912586  0.24376537189114353  0.7562344754404011  1.0000
  Cl  Cl2       1.0  0.7562342863507244  0.756234586165236  0.24376552046485164  1.0000
  Cl  Cl3       1.0  0.7562343966555312  0.24376568051829384  0.24376559950244406  1.0000
  Cl  Cl4       1.0  0.24376558938031606  0.7562344468509816  0.7562343677724621  1.0000
  Cl  Cl5       1.0  0.2437656707952191  0.7562343801918848  0.24376554854579946  1.0000
  Cl  Cl6       1.0  0.7562343738854469  0.24376564411736693  0.7562344529578744  1.0000
