data_image0
_chemical_formula_structural       Co2PF6
_chemical_formula_sum              "Co2 P1 F6"
_cell_length_a       5.436421378187505
_cell_length_b       5.436420026747772
_cell_length_c       5.436419656233193
_cell_angle_alpha    59.999992341021006
_cell_angle_beta     59.999996557777024
_cell_angle_gamma    59.99999828993017

_space_group_name_H-M_alt    "P 1"
_space_group_IT_number       1

loop_
  _space_group_symop_operation_xyz
  'x, y, z'

loop_
  _atom_site_type_symbol
  _atom_site_label
  _atom_site_symmetry_multiplicity
  _atom_site_fract_x
  _atom_site_fract_y
  _atom_site_fract_z
  _atom_site_occupancy
  Co  Co1       1.0  0.249999972680609  0.24999919107455443  0.25000253110853293  1.0000
  Co  Co2       1.0  0.7499989878422382  0.7500021352493063  0.7499992142692565  1.0000
  P   P1        1.0  6.256449828419042e-08  0.9999998377946742  0.9999998143713406  1.0000
  F   F1        1.0  0.21843267442113865  0.2184321873594244  0.7815672195917828  1.0000
  F   F2        1.0  0.7815676426008071  0.7815673952572304  0.21843227844530164  1.0000
  F   F3        1.0  0.7815676555653138  0.21843206515149002  0.21843239303905845  1.0000
  F   F4        1.0  0.21843273965841573  0.7815675377408369  0.7815670870298691  1.0000
  F   F5        1.0  0.21843243991405098  0.7815672402366599  0.21843235127731353  1.0000
  F   F6        1.0  0.7815678646215346  0.2184323288628845  0.7815671156148063  1.0000
