data_image0
_chemical_formula_structural       Co2PI6
_chemical_formula_sum              "Co2 P1 I6"
_cell_length_a       7.5631382662800375
_cell_length_b       7.563138264805112
_cell_length_c       7.563138235493959
_cell_angle_alpha    60.00000002881942
_cell_angle_beta     60.00000011942649
_cell_angle_gamma    60.000000328649435

_space_group_name_H-M_alt    "P 1"
_space_group_IT_number       1

loop_
  _space_group_symop_operation_xyz
  'x, y, z'

loop_
  _atom_site_type_symbol
  _atom_site_label
  _atom_site_symmetry_multiplicity
  _atom_site_fract_x
  _atom_site_fract_y
  _atom_site_fract_z
  _atom_site_occupancy
  Co  Co1       1.0  0.24999995904319933  0.25000006094659144  0.2500000006640819  1.0000
  Co  Co2       1.0  0.7500000130446649  0.7499999674648048  0.7499999769342764  1.0000
  P   P1        1.0  7.803075219938611e-09  1.7812967451374773e-08  4.380610663944951e-09  1.0000
  I   I1        1.0  0.25678479088964706  0.25678479140428384  0.7432152012931958  1.0000
  I   I2        1.0  0.7432152397862034  0.7432151803294889  0.25678480311623325  1.0000
  I   I3        1.0  0.7432151881573053  0.2567848111181055  0.2567847793358206  1.0000
  I   I4        1.0  0.25678480191286207  0.7432151816673559  0.7432152269173905  1.0000
  I   I5        1.0  0.2567847928388878  0.743215172471226  0.2567847986534992  1.0000
  I   I6        1.0  0.7432152008245622  0.25678481869487474  0.7432152039683461  1.0000
