data_image0
_chemical_formula_structural       Co2PBr6
_chemical_formula_sum              "Co2 P1 Br6"
_cell_length_a       7.031966087120043
_cell_length_b       7.031965969814042
_cell_length_c       7.031966105896722
_cell_angle_alpha    59.99999805394185
_cell_angle_beta     59.99999896588639
_cell_angle_gamma    59.99999860810577

_space_group_name_H-M_alt    "P 1"
_space_group_IT_number       1

loop_
  _space_group_symop_operation_xyz
  'x, y, z'

loop_
  _atom_site_type_symbol
  _atom_site_label
  _atom_site_symmetry_multiplicity
  _atom_site_fract_x
  _atom_site_fract_y
  _atom_site_fract_z
  _atom_site_occupancy
  Co  Co1       1.0  0.25000006990833873  0.24999992127267076  0.24999977504771617  1.0000
  Co  Co2       1.0  0.7499999480659822  0.7500000808041437  0.7499996359340171  1.0000
  P   P1        1.0  0.9999999949741708  5.225046185225983e-09  0.9999999999003915  1.0000
  Br  Br1       1.0  0.2512716663025666  0.2512716622913327  0.7487283988482933  1.0000
  Br  Br2       1.0  0.748728311083773  0.7487283728774322  0.25127178095909064  1.0000
  Br  Br3       1.0  0.7487283552859747  0.25127160429151507  0.25127181608898447  1.0000
  Br  Br4       1.0  0.251271704372012  0.748728307217823  0.7487284228083797  1.0000
  Br  Br5       1.0  0.25127161756563743  0.7487283946633739  0.251271718727572  1.0000
  Br  Br6       1.0  0.7487283381749205  0.2512716561805299  0.7487284470002047  1.0000
