data_image0
_chemical_formula_structural       Co2RhF6
_chemical_formula_sum              "Co2 Rh1 F6"
_cell_length_a       5.406469161172993
_cell_length_b       5.406468774766179
_cell_length_c       5.406469027068686
_cell_angle_alpha    59.999999702418
_cell_angle_beta     59.99999923223466
_cell_angle_gamma    59.99999979488209

_space_group_name_H-M_alt    "P 1"
_space_group_IT_number       1

loop_
  _space_group_symop_operation_xyz
  'x, y, z'

loop_
  _atom_site_type_symbol
  _atom_site_label
  _atom_site_symmetry_multiplicity
  _atom_site_fract_x
  _atom_site_fract_y
  _atom_site_fract_z
  _atom_site_occupancy
  Co  Co1       1.0  0.2500000890433093  0.24999988447404925  0.24999999344479085  1.0000
  Co  Co2       1.0  0.7499999295624055  0.7500000702433038  0.7500000479864541  1.0000
  Rh  Rh1       1.0  3.882880889758774e-09  2.038799213780446e-08  1.930837643233149e-08  1.0000
  F   F1        1.0  0.25627403988336145  0.25627386178688283  0.7437260065027679  1.0000
  F   F2        1.0  0.7437259724223565  0.7437261246451213  0.256273920491168  1.0000
  F   F3        1.0  0.7437260154279155  0.2562740087904692  0.25627392089811013  1.0000
  F   F4        1.0  0.2562739070012063  0.7437260614588342  0.743726123802911  1.0000
  F   F5        1.0  0.25627395388543056  0.7437260403205742  0.2562739611431983  1.0000
  F   F6        1.0  0.7437260963682502  0.25627393478477006  0.7437260339240714  1.0000
