data_image0
_chemical_formula_structural       Co2RhCl6
_chemical_formula_sum              "Co2 Rh1 Cl6"
_cell_length_a       6.5440918971724065
_cell_length_b       6.544091814679541
_cell_length_c       6.544091891132647
_cell_angle_alpha    59.99999912555198
_cell_angle_beta     59.99999956336304
_cell_angle_gamma    59.999998771632605

_space_group_name_H-M_alt    "P 1"
_space_group_IT_number       1

loop_
  _space_group_symop_operation_xyz
  'x, y, z'

loop_
  _atom_site_type_symbol
  _atom_site_label
  _atom_site_symmetry_multiplicity
  _atom_site_fract_x
  _atom_site_fract_y
  _atom_site_fract_z
  _atom_site_occupancy
  Co  Co1       1.0  0.25000017612592745  0.2500001219133594  0.24999994459516842  1.0000
  Co  Co2       1.0  0.7500001169392299  0.7499998267401139  0.7500001179927793  1.0000
  Rh  Rh1       1.0  0.9999999822663984  0.9999999737986128  1.2798919132306818e-08  1.0000
  Cl  Cl1       1.0  0.24892047148809351  0.24892065469526822  0.7510794135450478  1.0000
  Cl  Cl2       1.0  0.7510794589262303  0.7510794661387532  0.24892049367031546  1.0000
  Cl  Cl3       1.0  0.7510793647651054  0.24892058162042952  0.24892050319601508  1.0000
  Cl  Cl4       1.0  0.24892053490674595  0.7510793932344341  0.7510794877958762  1.0000
  Cl  Cl5       1.0  0.2489204957173615  0.7510794437855915  0.24892052183926056  1.0000
  Cl  Cl6       1.0  0.7510794131867291  0.2489205404269103  0.7510794965319935  1.0000
