data_image0
_chemical_formula_structural       Co2RhBr6
_chemical_formula_sum              "Co2 Rh1 Br6"
_cell_length_a       6.9851044080688345
_cell_length_b       6.985104286783421
_cell_length_c       6.9851043653824885
_cell_angle_alpha    60.00000040830535
_cell_angle_beta     60.000000186468384
_cell_angle_gamma    59.99999961135909

_space_group_name_H-M_alt    "P 1"
_space_group_IT_number       1

loop_
  _space_group_symop_operation_xyz
  'x, y, z'

loop_
  _atom_site_type_symbol
  _atom_site_label
  _atom_site_symmetry_multiplicity
  _atom_site_fract_x
  _atom_site_fract_y
  _atom_site_fract_z
  _atom_site_occupancy
  Co  Co1       1.0  0.24999998868416812  0.25000010111799037  0.249999954727103  1.0000
  Co  Co2       1.0  0.7500000573278464  0.7500000245686782  0.7499999994532  1.0000
  Rh  Rh1       1.0  0.999999999249401  0.9999999526591014  3.549869125770134e-08  1.0000
  Br  Br1       1.0  0.2476280137285333  0.24762800568619098  0.7523719909534431  1.0000
  Br  Br2       1.0  0.7523720402338492  0.7523719920047136  0.24762794594219406  1.0000
  Br  Br3       1.0  0.752371980204517  0.24762799099150673  0.24762801770876777  1.0000
  Br  Br4       1.0  0.24762795592151038  0.7523719733854327  0.7523720434370357  1.0000
  Br  Br5       1.0  0.247627974898937  0.7523719811629623  0.2476279982490979  1.0000
  Br  Br6       1.0  0.752371992251896  0.2476279744471436  0.7523720116824201  1.0000
