data_image0
_chemical_formula_structural       Co2RuF6
_chemical_formula_sum              "Co2 Ru1 F6"
_cell_length_a       5.390639642560488
_cell_length_b       5.390640005952869
_cell_length_c       5.390639492431107
_cell_angle_alpha    60.000000758437125
_cell_angle_beta     60.00000005905044
_cell_angle_gamma    60.00000123510701

_space_group_name_H-M_alt    "P 1"
_space_group_IT_number       1

loop_
  _space_group_symop_operation_xyz
  'x, y, z'

loop_
  _atom_site_type_symbol
  _atom_site_label
  _atom_site_symmetry_multiplicity
  _atom_site_fract_x
  _atom_site_fract_y
  _atom_site_fract_z
  _atom_site_occupancy
  Co  Co1       1.0  0.25000006410263803  0.24999989846942047  0.2499999891501908  1.0000
  Co  Co2       1.0  0.7499999283978743  0.7500000180300059  0.7500000289930222  1.0000
  Ru  Ru1       1.0  0.9999999943088933  3.6351746022260124e-08  0.9999999846696798  1.0000
  F   F1        1.0  0.2561447718390745  0.2561447402220696  0.7438552186666625  1.0000
  F   F2        1.0  0.7438551832924899  0.7438553012364837  0.25614475382639185  1.0000
  F   F3        1.0  0.7438553030583249  0.25614478999500917  0.25614474012147737  1.0000
  F   F4        1.0  0.25614475844057183  0.743855215111796  0.7438552771316862  1.0000
  F   F5        1.0  0.2561448541727828  0.743855242655974  0.25614468436050913  1.0000
  F   F6        1.0  0.7438551450768037  0.25614476926678487  0.7438553142326461  1.0000
