data_image0
_chemical_formula_structural       Co2RhI6
_chemical_formula_sum              "Co2 Rh1 I6"
_cell_length_a       7.468174266079066
_cell_length_b       7.468174274427257
_cell_length_c       7.4681742876760975
_cell_angle_alpha    59.999999730199214
_cell_angle_beta     59.999999418566915
_cell_angle_gamma    60.00000004379145

_space_group_name_H-M_alt    "P 1"
_space_group_IT_number       1

loop_
  _space_group_symop_operation_xyz
  'x, y, z'

loop_
  _atom_site_type_symbol
  _atom_site_label
  _atom_site_symmetry_multiplicity
  _atom_site_fract_x
  _atom_site_fract_y
  _atom_site_fract_z
  _atom_site_occupancy
  Co  Co1       1.0  0.2499999680659146  0.249999956440314  0.2500000479674238  1.0000
  Co  Co2       1.0  0.7500000014155936  0.7500000415159219  0.7499999770594873  1.0000
  Rh  Rh1       1.0  0.9999999741842023  0.9999999754007172  2.4442794666005554e-09  1.0000
  I   I1        1.0  0.2505869012718766  0.2505869048903757  0.7494130972492926  1.0000
  I   I2        1.0  0.7494131380360987  0.7494131340646649  0.2505868536187675  1.0000
  I   I3        1.0  0.7494131115346382  0.25058689828360275  0.250586919088817  1.0000
  I   I4        1.0  0.25058688868252427  0.7494131095123462  0.7494131017185948  1.0000
  I   I5        1.0  0.2505868995903585  0.7494130933909982  0.2505869205085805  1.0000
  I   I6        1.0  0.7494131176506752  0.25058688652576383  0.7494130789461819  1.0000
