data_image0
_chemical_formula_structural       Co2RuBr6
_chemical_formula_sum              "Co2 Ru1 Br6"
_cell_length_a       7.0727479743603565
_cell_length_b       7.072747902909864
_cell_length_c       7.072747902153101
_cell_angle_alpha    60.00000093264908
_cell_angle_beta     60.0000008379807
_cell_angle_gamma    59.99999955632062

_space_group_name_H-M_alt    "P 1"
_space_group_IT_number       1

loop_
  _space_group_symop_operation_xyz
  'x, y, z'

loop_
  _atom_site_type_symbol
  _atom_site_label
  _atom_site_symmetry_multiplicity
  _atom_site_fract_x
  _atom_site_fract_y
  _atom_site_fract_z
  _atom_site_occupancy
  Co  Co1       1.0  0.2499999385353419  0.24999982740485902  0.25000011250891724  1.0000
  Co  Co2       1.0  0.7499999252250318  0.7500002406726135  0.7499996447486311  1.0000
  Ru  Ru1       1.0  1.037284447038887e-08  0.9999999982683604  0.9999999772989885  1.0000
  Br  Br1       1.0  0.2469355266978837  0.24693538075035318  0.7530644977393782  1.0000
  Br  Br2       1.0  0.7530644980991209  0.7530645470643326  0.24693558139248908  1.0000
  Br  Br3       1.0  0.7530645866435931  0.2469353631095879  0.24693555930134783  1.0000
  Br  Br4       1.0  0.2469354651974692  0.7530646305073937  0.7530645441012246  1.0000
  Br  Br5       1.0  0.2469354364828458  0.7530645620626428  0.24693552382066614  1.0000
  Br  Br6       1.0  0.7530646165946853  0.24693545233401104  0.7530645558489375  1.0000
