data_image0
_chemical_formula_structural       Co2RuCl6
_chemical_formula_sum              "Co2 Ru1 Cl6"
_cell_length_a       6.582480489318937
_cell_length_b       6.582480438036517
_cell_length_c       6.582480450178245
_cell_angle_alpha    60.000000130967145
_cell_angle_beta     59.99999987728914
_cell_angle_gamma    59.999999380052905

_space_group_name_H-M_alt    "P 1"
_space_group_IT_number       1

loop_
  _space_group_symop_operation_xyz
  'x, y, z'

loop_
  _atom_site_type_symbol
  _atom_site_label
  _atom_site_symmetry_multiplicity
  _atom_site_fract_x
  _atom_site_fract_y
  _atom_site_fract_z
  _atom_site_occupancy
  Co  Co1       1.0  0.24999995103705447  0.2499999701992649  0.25000002621448175  1.0000
  Co  Co2       1.0  0.750000168490523  0.7500002064352611  0.7499997380937964  1.0000
  Ru  Ru1       1.0  3.118652302104458e-08  0.9999999590665137  4.8929821960254724e-08  1.0000
  Cl  Cl1       1.0  0.24938886076020395  0.2493887809881372  0.7506111818969534  1.0000
  Cl  Cl2       1.0  0.7506111724254452  0.7506111705122156  0.24938886272247587  1.0000
  Cl  Cl3       1.0  0.7506111863775148  0.2493887770940024  0.24938891319385323  1.0000
  Cl  Cl4       1.0  0.2493887303922907  0.7506112078973854  0.7506111987141114  1.0000
  Cl  Cl5       1.0  0.24938872535941042  0.7506111857348308  0.24938888207146198  1.0000
  Cl  Cl6       1.0  0.7506111745250872  0.2493887341351015  0.7506111508243362  1.0000
