data_image0
_chemical_formula_structural       Co2RuI6
_chemical_formula_sum              "Co2 Ru1 I6"
_cell_length_a       7.519996124299733
_cell_length_b       7.519996161919535
_cell_length_c       7.5199961367822405
_cell_angle_alpha    60.00000028863097
_cell_angle_beta     60.0000000893536
_cell_angle_gamma    59.99999988710066

_space_group_name_H-M_alt    "P 1"
_space_group_IT_number       1

loop_
  _space_group_symop_operation_xyz
  'x, y, z'

loop_
  _atom_site_type_symbol
  _atom_site_label
  _atom_site_symmetry_multiplicity
  _atom_site_fract_x
  _atom_site_fract_y
  _atom_site_fract_z
  _atom_site_occupancy
  Co  Co1       1.0  0.2499999707979941  0.24999998793132408  0.2500000360859326  1.0000
  Co  Co2       1.0  0.7500000225459353  0.750000038711914  0.7499999119993931  1.0000
  Ru  Ru1       1.0  0.9999999792160952  1.6286509254578893e-08  0.999999967674212  1.0000
  I   I1        1.0  0.251322200491515  0.2513222268290147  0.7486777887096154  1.0000
  I   I2        1.0  0.7486778240282715  0.7486777753844593  0.25132221584312  1.0000
  I   I3        1.0  0.7486777933611126  0.251322183745659  0.25132223900018075  1.0000
  I   I4        1.0  0.2513222163624703  0.7486777891520987  0.7486778048957575  1.0000
  I   I5        1.0  0.2513221974736261  0.7486777607322607  0.25132224192869757  1.0000
  I   I6        1.0  0.7486777957159771  0.2513222203087517  0.7486777955242997  1.0000
