data_image0
_chemical_formula_structural       Co2SbBr6
_chemical_formula_sum              "Co2 Sb1 Br6"
_cell_length_a       7.176519301267925
_cell_length_b       7.176519148152016
_cell_length_c       7.176519280446378
_cell_angle_alpha    60.00000074304446
_cell_angle_beta     60.00000089611275
_cell_angle_gamma    59.99999887002861

_space_group_name_H-M_alt    "P 1"
_space_group_IT_number       1

loop_
  _space_group_symop_operation_xyz
  'x, y, z'

loop_
  _atom_site_type_symbol
  _atom_site_label
  _atom_site_symmetry_multiplicity
  _atom_site_fract_x
  _atom_site_fract_y
  _atom_site_fract_z
  _atom_site_occupancy
  Co  Co1       1.0  0.2500000228973986  0.24999993652606747  0.2500000271118266  1.0000
  Co  Co2       1.0  0.7499999662320729  0.7500000638616282  0.7500000639480235  1.0000
  Sb  Sb1       1.0  0.9999999355257303  3.413200352262155e-08  0.9999999664009721  1.0000
  Br  Br1       1.0  0.2551708583331169  0.2551708267450485  0.7448291336819836  1.0000
  Br  Br2       1.0  0.74482914035274  0.7448291787624459  0.25517082045049  1.0000
  Br  Br3       1.0  0.7448291923429097  0.25517081140593034  0.25517078207543464  1.0000
  Br  Br4       1.0  0.255170812324421  0.7448291616761611  0.7448291880658697  1.0000
  Br  Br5       1.0  0.2551709218782469  0.7448291590603461  0.25517079986980645  1.0000
  Br  Br6       1.0  0.7448291523496614  0.25517082255474616  0.7448292190109986  1.0000
