data_image0
_chemical_formula_structural       Co2SbI6
_chemical_formula_sum              "Co2 Sb1 I6"
_cell_length_a       7.795577322570137
_cell_length_b       7.795577283949894
_cell_length_c       7.795577308499417
_cell_angle_alpha    60.00000024695531
_cell_angle_beta     59.99999988599436
_cell_angle_gamma    59.99999974463816

_space_group_name_H-M_alt    "P 1"
_space_group_IT_number       1

loop_
  _space_group_symop_operation_xyz
  'x, y, z'

loop_
  _atom_site_type_symbol
  _atom_site_label
  _atom_site_symmetry_multiplicity
  _atom_site_fract_x
  _atom_site_fract_y
  _atom_site_fract_z
  _atom_site_occupancy
  Co  Co1       1.0  0.24999998194233583  0.24999998712368213  0.2500000370642882  1.0000
  Co  Co2       1.0  0.7499999720089716  0.7500000383537972  0.7500000057338049  1.0000
  Sb  Sb1       1.0  0.9999999823305655  0.9999999685784688  0.9999999860621238  1.0000
  I   I1        1.0  0.26478899056796656  0.264788944623549  0.7352110406484388  1.0000
  I   I2        1.0  0.735211061159619  0.7352110541456284  0.264788924283971  1.0000
  I   I3        1.0  0.7352110442392731  0.26478894990630064  0.2647889816027209  1.0000
  I   I4        1.0  0.264788946054685  0.7352110598604129  0.7352110303549713  1.0000
  I   I5        1.0  0.2647889628667442  0.7352110341129642  0.2647889666582354  1.0000
  I   I6        1.0  0.7352110583686561  0.2647889583719072  0.7352110307729848  1.0000
