data_image0
_chemical_formula_structural       Co2SbCl6
_chemical_formula_sum              "Co2 Sb1 Cl6"
_cell_length_a       6.786680897165651
_cell_length_b       6.786680837537189
_cell_length_c       6.786680746198391
_cell_angle_alpha    59.99999933813261
_cell_angle_beta     60.00000067669375
_cell_angle_gamma    59.99999976635598

_space_group_name_H-M_alt    "P 1"
_space_group_IT_number       1

loop_
  _space_group_symop_operation_xyz
  'x, y, z'

loop_
  _atom_site_type_symbol
  _atom_site_label
  _atom_site_symmetry_multiplicity
  _atom_site_fract_x
  _atom_site_fract_y
  _atom_site_fract_z
  _atom_site_occupancy
  Co  Co1       1.0  0.2499999097454484  0.24999994683181012  0.250000079365597  1.0000
  Co  Co2       1.0  0.7499998955274083  0.749999923508421  0.7499998261172652  1.0000
  Sb  Sb1       1.0  2.292644093385578e-08  0.9999999873675892  0.9999999830651902  1.0000
  Cl  Cl1       1.0  0.2506240723732416  0.2506240304986131  0.7493759454418196  1.0000
  Cl  Cl2       1.0  0.7493759601145233  0.7493759697749842  0.25062415130896604  1.0000
  Cl  Cl3       1.0  0.7493760009014373  0.2506240108464046  0.25062406117815494  1.0000
  Cl  Cl4       1.0  0.25062414247064785  0.7493760038642341  0.7493759684915265  1.0000
  Cl  Cl5       1.0  0.2506239800802638  0.7493760172306302  0.25062405707931734  1.0000
  Cl  Cl6       1.0  0.7493760148021857  0.2506241111717081  0.749375938417729  1.0000
