data_image0
_chemical_formula_structural       Co2SbF6
_chemical_formula_sum              "Co2 Sb1 F6"
_cell_length_a       5.727233303431836
_cell_length_b       5.727232167762231
_cell_length_c       5.727232256934202
_cell_angle_alpha    59.999996487765735
_cell_angle_beta     59.999998556777456
_cell_angle_gamma    59.99999012912305

_space_group_name_H-M_alt    "P 1"
_space_group_IT_number       1

loop_
  _space_group_symop_operation_xyz
  'x, y, z'

loop_
  _atom_site_type_symbol
  _atom_site_label
  _atom_site_symmetry_multiplicity
  _atom_site_fract_x
  _atom_site_fract_y
  _atom_site_fract_z
  _atom_site_occupancy
  Co  Co1       1.0  0.24999774081262227  0.24999940737526996  0.25000139239570324  1.0000
  Co  Co2       1.0  0.7499992017356911  0.7499991010320405  0.7500008930063831  1.0000
  Sb  Sb1       1.0  3.5807930712734147e-07  1.4755363472277948e-07  0.9999997140086678  1.0000
  F   F1        1.0  0.25318726326155644  0.2531870529835318  0.746812857271299  1.0000
  F   F2        1.0  0.7468134642986224  0.7468131469444461  0.25318673002328224  1.0000
  F   F3        1.0  0.7468137270753843  0.25318732592176596  0.2531864950151855  1.0000
  F   F4        1.0  0.25318717730890494  0.7468132931441165  0.7468127262026495  1.0000
  F   F5        1.0  0.25318735307898055  0.7468133130570062  0.253186656308582  1.0000
  F   F6        1.0  0.7468137392378453  0.25318717770134186  0.7468125630334496  1.0000
