data_image0
_chemical_formula_structural       Co2TaCl6
_chemical_formula_sum              "Co2 Ta1 Cl6"
_cell_length_a       6.755005037744337
_cell_length_b       6.755005618250142
_cell_length_c       6.755005309171103
_cell_angle_alpha    59.99999974794114
_cell_angle_beta     59.999999733837186
_cell_angle_gamma    59.99999959881447

_space_group_name_H-M_alt    "P 1"
_space_group_IT_number       1

loop_
  _space_group_symop_operation_xyz
  'x, y, z'

loop_
  _atom_site_type_symbol
  _atom_site_label
  _atom_site_symmetry_multiplicity
  _atom_site_fract_x
  _atom_site_fract_y
  _atom_site_fract_z
  _atom_site_occupancy
  Co  Co1       1.0  0.25000019225702813  0.24999999951250532  0.24999976443322078  1.0000
  Co  Co2       1.0  0.750000031887267  0.7499999767804095  0.7499999481964381  1.0000
  Ta  Ta1       1.0  0.9999999910560217  0.9999999909345375  5.785738375583294e-08  1.0000
  Cl  Cl1       1.0  0.24859302744727627  0.24859310041948518  0.7514069511535301  1.0000
  Cl  Cl2       1.0  0.7514069148178304  0.7514069266400139  0.24859311241344198  1.0000
  Cl  Cl3       1.0  0.7514069208874872  0.2485930009500878  0.2485930729763847  1.0000
  Cl  Cl4       1.0  0.24859307323145213  0.7514069064453182  0.7514070274564872  1.0000
  Cl  Cl5       1.0  0.24859300987498573  0.7514069983053421  0.24859305014406444  1.0000
  Cl  Cl6       1.0  0.7514068325871868  0.24859312303495826  0.7514070295074256  1.0000
