data_image0
_chemical_formula_structural       Co2TaI6
_chemical_formula_sum              "Co2 Ta1 I6"
_cell_length_a       7.858651392210418
_cell_length_b       7.858651530996593
_cell_length_c       7.858651594502127
_cell_angle_alpha    60.000000369930795
_cell_angle_beta     60.00000023793817
_cell_angle_gamma    60.000000084209596

_space_group_name_H-M_alt    "P 1"
_space_group_IT_number       1

loop_
  _space_group_symop_operation_xyz
  'x, y, z'

loop_
  _atom_site_type_symbol
  _atom_site_label
  _atom_site_symmetry_multiplicity
  _atom_site_fract_x
  _atom_site_fract_y
  _atom_site_fract_z
  _atom_site_occupancy
  Co  Co1       1.0  0.2500000243240734  0.24999998262270218  0.2500000014112753  1.0000
  Co  Co2       1.0  0.7500000309547815  0.7499999681281772  0.7500000532869977  1.0000
  Ta  Ta1       1.0  2.435481393230626e-08  3.272780591825171e-08  1.981304173988054e-08  1.0000
  I   I1        1.0  0.24683307305835622  0.2468330468858044  0.753166928678775  1.0000
  I   I2        1.0  0.7531669048498464  0.7531669288005461  0.2468330669807318  1.0000
  I   I3        1.0  0.7531669674188634  0.24683303114884325  0.2468330276671337  1.0000
  I   I4        1.0  0.24683305336749578  0.7531669305113046  0.7531669522939135  1.0000
  I   I5        1.0  0.2468330343071644  0.7531669710166221  0.24683304037343903  1.0000
  I   I6        1.0  0.7531668898721581  0.24683309973621254  0.7531669168025047  1.0000
