data_image0
_chemical_formula_structural       Co2TaBr6
_chemical_formula_sum              "Co2 Ta1 Br6"
_cell_length_a       7.260225217329073
_cell_length_b       7.2602251370758255
_cell_length_c       7.260225331850796
_cell_angle_alpha    59.99999943735925
_cell_angle_beta     59.999999401523
_cell_angle_gamma    60.00000006373522

_space_group_name_H-M_alt    "P 1"
_space_group_IT_number       1

loop_
  _space_group_symop_operation_xyz
  'x, y, z'

loop_
  _atom_site_type_symbol
  _atom_site_label
  _atom_site_symmetry_multiplicity
  _atom_site_fract_x
  _atom_site_fract_y
  _atom_site_fract_z
  _atom_site_occupancy
  Co  Co1       1.0  0.2500000046154566  0.2500002477902883  0.24999996848816525  1.0000
  Co  Co2       1.0  0.7499998172679446  0.7500001259566418  0.750000279403993  1.0000
  Ta  Ta1       1.0  4.4469152450027826e-08  0.999999947705353  0.9999999749880251  1.0000
  Br  Br1       1.0  0.24587365613507564  0.2458735171942801  0.7541263556920267  1.0000
  Br  Br2       1.0  0.7541264167746372  0.7541263420407986  0.2458735088073734  1.0000
  Br  Br3       1.0  0.7541263633155677  0.2458736463204263  0.24587359602636763  1.0000
  Br  Br4       1.0  0.2458735619691388  0.7541263647378212  0.7541264109975622  1.0000
  Br  Br5       1.0  0.2458736890825729  0.7541263137982891  0.24587354034193812  1.0000
  Br  Br6       1.0  0.7541264552374192  0.24587349820291546  0.7541263588997619  1.0000
