data_image0
_chemical_formula_structural       Cr2AsO6
_chemical_formula_sum              "Cr2 As1 O6"
_cell_length_a       5.099531909992526
_cell_length_b       5.09953194877655
_cell_length_c       5.099532001140551
_cell_angle_alpha    59.99999987075562
_cell_angle_beta     59.99999912302797
_cell_angle_gamma    60.000000793292074

_space_group_name_H-M_alt    "P 1"
_space_group_IT_number       1

loop_
  _space_group_symop_operation_xyz
  'x, y, z'

loop_
  _atom_site_type_symbol
  _atom_site_label
  _atom_site_symmetry_multiplicity
  _atom_site_fract_x
  _atom_site_fract_y
  _atom_site_fract_z
  _atom_site_occupancy
  Cr  Cr1       1.0  0.2500001397269934  0.24999977505426357  0.2500002737490925  1.0000
  Cr  Cr2       1.0  0.7500001365832009  0.7500001729561565  0.7499999287896013  1.0000
  As  As1       1.0  0.9999999857508347  0.9999999951966381  3.305783476756411e-08  1.0000
  O   O1        1.0  0.24969711702214245  0.24969698485975464  0.7503030094832256  1.0000
  O   O2        1.0  0.7503027501512467  0.7503031240632834  0.24969709361763717  1.0000
  O   O3        1.0  0.7503028469802833  0.24969706102709976  0.24969705013476903  1.0000
  O   O4        1.0  0.24969689485458682  0.750303050297617  0.7503028202898753  1.0000
  O   O5        1.0  0.24969704380818503  0.7503027843780482  0.2496970468202347  1.0000
  O   O6        1.0  0.7503031071203999  0.24969700992478866  0.7503027363882411  1.0000
