data_image0
_chemical_formula_structural       Cr2AsSe6
_chemical_formula_sum              "Cr2 As1 Se6"
_cell_length_a       6.4485414196749
_cell_length_b       6.44854162767812
_cell_length_c       6.448541733466108
_cell_angle_alpha    59.99999869149511
_cell_angle_beta     59.99999994404222
_cell_angle_gamma    59.99999886540738

_space_group_name_H-M_alt    "P 1"
_space_group_IT_number       1

loop_
  _space_group_symop_operation_xyz
  'x, y, z'

loop_
  _atom_site_type_symbol
  _atom_site_label
  _atom_site_symmetry_multiplicity
  _atom_site_fract_x
  _atom_site_fract_y
  _atom_site_fract_z
  _atom_site_occupancy
  Cr  Cr1       1.0  0.24999985451494627  0.25000010789274585  0.2500003666060167  1.0000
  Cr  Cr2       1.0  0.7499996876792413  0.7500002306145712  0.7500002375796266  1.0000
  As  As1       1.0  2.9066058562290073e-08  9.496293294127539e-09  0.9999999776173479  1.0000
  Se  Se1       1.0  0.2815951654743841  0.2815948843569712  0.7184047994394291  1.0000
  Se  Se2       1.0  0.7184049270697999  0.7184049204586512  0.28159504896126053  1.0000
  Se  Se3       1.0  0.7184050104499157  0.2815950895804063  0.2815949682400954  1.0000
  Se  Se4       1.0  0.281595127651448  0.7184049868292106  0.718404820832251  1.0000
  Se  Se5       1.0  0.28159514195649527  0.7184048374468168  0.2815949185475663  1.0000
  Se  Se6       1.0  0.7184050508820706  0.2815949350814069  0.7184048570811782  1.0000
