data_image0
_chemical_formula_structural       Cr2AsF6
_chemical_formula_sum              "Cr2 As1 F6"
_cell_length_a       5.483808316329479
_cell_length_b       5.483808011887275
_cell_length_c       5.4838083183890385
_cell_angle_alpha    59.999997955197294
_cell_angle_beta     59.999997805307956
_cell_angle_gamma    59.999999242713244

_space_group_name_H-M_alt    "P 1"
_space_group_IT_number       1

loop_
  _space_group_symop_operation_xyz
  'x, y, z'

loop_
  _atom_site_type_symbol
  _atom_site_label
  _atom_site_symmetry_multiplicity
  _atom_site_fract_x
  _atom_site_fract_y
  _atom_site_fract_z
  _atom_site_occupancy
  Cr  Cr1       1.0  0.25000008405336144  0.2499999294637697  0.24999995060050204  1.0000
  Cr  Cr2       1.0  0.749999992138983  0.7500000630975355  0.7500000176962208  1.0000
  As  As1       1.0  0.9999999728600348  2.4567223496509375e-08  2.863962492366757e-08  1.0000
  F   F1        1.0  0.24990716679687142  0.24990712867021211  0.750092838950883  1.0000
  F   F2        1.0  0.750092837142659  0.7500929353593792  0.2499071206203534  1.0000
  F   F3        1.0  0.7500928366654543  0.2499071002130962  0.24990717115590289  1.0000
  F   F4        1.0  0.24990706452402456  0.750092867780982  0.7500928823374671  1.0000
  F   F5        1.0  0.24990718068278142  0.750092887101003  0.2499071004471884  1.0000
  F   F6        1.0  0.7500928898093311  0.24990710992707021  0.7500928867017687  1.0000
