data_image0
_chemical_formula_structural       Cr2AsBr6
_chemical_formula_sum              "Cr2 As1 Br6"
_cell_length_a       7.181675861283248
_cell_length_b       7.181675492706488
_cell_length_c       7.181675603974778
_cell_angle_alpha    59.99999786444495
_cell_angle_beta     59.99999873923813
_cell_angle_gamma    59.99999560106788

_space_group_name_H-M_alt    "P 1"
_space_group_IT_number       1

loop_
  _space_group_symop_operation_xyz
  'x, y, z'

loop_
  _atom_site_type_symbol
  _atom_site_label
  _atom_site_symmetry_multiplicity
  _atom_site_fract_x
  _atom_site_fract_y
  _atom_site_fract_z
  _atom_site_occupancy
  Cr  Cr1       1.0  0.2499998206858436  0.24999989073064155  0.2500001767077223  1.0000
  Cr  Cr2       1.0  0.7500000065893396  0.7500000934195121  0.7500000890164347  1.0000
  As  As1       1.0  2.7885051014943353e-08  2.7285998123486504e-08  0.9999999362112242  1.0000
  Br  Br1       1.0  0.25463286946895514  0.25463273649648105  0.7453671928107956  1.0000
  Br  Br2       1.0  0.7453672294676001  0.7453671947870457  0.2546327309797225  1.0000
  Br  Br3       1.0  0.7453672215985575  0.25463283865764846  0.254632754401724  1.0000
  Br  Br4       1.0  0.2546327714125592  0.7453672512257471  0.7453671736850983  1.0000
  Br  Br5       1.0  0.25463275194858015  0.7453672301385394  0.2546327798290598  1.0000
  Br  Br6       1.0  0.745367315756236  0.25463273695786104  0.7453671583800834  1.0000
