data_image0
_chemical_formula_structural       Cr2AsBr6
_chemical_formula_sum              "Cr2 As1 Br6"
_cell_length_a       7.1821944511919815
_cell_length_b       7.182194796385004
_cell_length_c       7.1821943746319645
_cell_angle_alpha    59.999998832899415
_cell_angle_beta     60.000001553553965
_cell_angle_gamma    60.000000653152824

_space_group_name_H-M_alt    "P 1"
_space_group_IT_number       1

loop_
  _space_group_symop_operation_xyz
  'x, y, z'

loop_
  _atom_site_type_symbol
  _atom_site_label
  _atom_site_symmetry_multiplicity
  _atom_site_fract_x
  _atom_site_fract_y
  _atom_site_fract_z
  _atom_site_occupancy
  Cr  Cr1       1.0  0.2500000767318497  0.2499999087886866  0.250000037423207  1.0000
  Cr  Cr2       1.0  0.7499998892403781  0.7499999292909962  0.7500001158451204  1.0000
  As  As1       1.0  0.999999951068792  6.479956289009795e-08  0.999999890425575  1.0000
  Br  Br1       1.0  0.25465173407094327  0.2546517844409363  0.7453482252871751  1.0000
  Br  Br2       1.0  0.7453483166341622  0.7453483878680544  0.25465163078312775  1.0000
  Br  Br3       1.0  0.7453482636197349  0.25465165880009444  0.25465165957442387  1.0000
  Br  Br4       1.0  0.2546516053816672  0.7453484026675451  0.7453483413760753  1.0000
  Br  Br5       1.0  0.254651794536558  0.7453483045296762  0.25465166108307796  1.0000
  Br  Br6       1.0  0.7453483756002188  0.25465156253928206  0.7453484132013057  1.0000
