data_image0
_chemical_formula_structural       Cr2AsS6
_chemical_formula_sum              "Cr2 As1 S6"
_cell_length_a       6.439824254130377
_cell_length_b       6.439824113754291
_cell_length_c       6.439824252912701
_cell_angle_alpha    59.99999820477969
_cell_angle_beta     59.99999836260812
_cell_angle_gamma    59.99999836607089

_space_group_name_H-M_alt    "P 1"
_space_group_IT_number       1

loop_
  _space_group_symop_operation_xyz
  'x, y, z'

loop_
  _atom_site_type_symbol
  _atom_site_label
  _atom_site_symmetry_multiplicity
  _atom_site_fract_x
  _atom_site_fract_y
  _atom_site_fract_z
  _atom_site_occupancy
  Cr  Cr1       1.0  0.25000008863686063  0.25000005668699454  0.24999981870149324  1.0000
  Cr  Cr2       1.0  0.7499999560371167  0.7500001529445147  0.749999871159111  1.0000
  As  As1       1.0  4.9680566726494806e-08  0.9999999961963406  0.9999999584274969  1.0000
  S   S1        1.0  0.25514320303920196  0.2551430329765135  0.7448569741159798  1.0000
  S   S2        1.0  0.7448567635387302  0.744857072054359  0.2551430648639767  1.0000
  S   S3        1.0  0.7448569665623528  0.25514292928286175  0.25514319356919357  1.0000
  S   S4        1.0  0.2551430713280671  0.7448567896765748  0.744857019871451  1.0000
  S   S5        1.0  0.25514298865431284  0.7448568630005508  0.25514316029397216  1.0000
  S   S6        1.0  0.7448568932892731  0.2551431355278569  0.7448569292221071  1.0000
