data_image0
_chemical_formula_structural       Cr2AsF6
_chemical_formula_sum              "Cr2 As1 F6"
_cell_length_a       5.48417763019175
_cell_length_b       5.484177670366062
_cell_length_c       5.484177447221748
_cell_angle_alpha    59.999997860771
_cell_angle_beta     59.999998619961374
_cell_angle_gamma    59.999998591148795

_space_group_name_H-M_alt    "P 1"
_space_group_IT_number       1

loop_
  _space_group_symop_operation_xyz
  'x, y, z'

loop_
  _atom_site_type_symbol
  _atom_site_label
  _atom_site_symmetry_multiplicity
  _atom_site_fract_x
  _atom_site_fract_y
  _atom_site_fract_z
  _atom_site_occupancy
  Cr  Cr1       1.0  0.24999994447159385  0.250000068229623  0.2500000017712127  1.0000
  Cr  Cr2       1.0  0.7499999980536072  0.749999925534688  0.750000058924465  1.0000
  As  As1       1.0  1.327168062120167e-08  0.9999999665014996  0.9999999681745779  1.0000
  F   F1        1.0  0.24989514613950123  0.24989528548737389  0.7501048335935266  1.0000
  F   F2        1.0  0.7501048133575223  0.750104701577237  0.24989521284895208  1.0000
  F   F3        1.0  0.7501047871661941  0.2498952113186535  0.24989524872587313  1.0000
  F   F4        1.0  0.24989529419512357  0.7501047891453583  0.7501047100270528  1.0000
  F   F5        1.0  0.2498952012433323  0.7501048086800746  0.2498952829827897  1.0000
  F   F6        1.0  0.7501048031700409  0.24989525208123847  0.7501047460919931  1.0000
