data_image0
_chemical_formula_structural       Cr2AsCl6
_chemical_formula_sum              "Cr2 As1 Cl6"
_cell_length_a       6.6850112902638115
_cell_length_b       6.68501126833285
_cell_length_c       6.685011288293223
_cell_angle_alpha    59.99999910242988
_cell_angle_beta     60.00000101788706
_cell_angle_gamma    60.00000038735429

_space_group_name_H-M_alt    "P 1"
_space_group_IT_number       1

loop_
  _space_group_symop_operation_xyz
  'x, y, z'

loop_
  _atom_site_type_symbol
  _atom_site_label
  _atom_site_symmetry_multiplicity
  _atom_site_fract_x
  _atom_site_fract_y
  _atom_site_fract_z
  _atom_site_occupancy
  Cr  Cr1       1.0  0.24999994419110932  0.250000212063221  0.24999996353280962  1.0000
  Cr  Cr2       1.0  0.7500000487582908  0.749999987634756  0.7499999646744467  1.0000
  As  As1       1.0  0.999999956835532  0.9999999688547077  1.4716623242248754e-08  1.0000
  Cl  Cl1       1.0  0.2513699270714316  0.25136991330713737  0.748630047554269  1.0000
  Cl  Cl2       1.0  0.7486301919229436  0.748630017075667  0.2513698715103643  1.0000
  Cl  Cl3       1.0  0.748630059130022  0.2513698344610878  0.2513699344762374  1.0000
  Cl  Cl4       1.0  0.25136986549995166  0.7486300830971824  0.7486301255799569  1.0000
  Cl  Cl5       1.0  0.2513698911527011  0.7486300583490809  0.25136994011922276  1.0000
  Cl  Cl6       1.0  0.7486301110649421  0.2513699269960016  0.7486301355068743  1.0000
