data_image0
_chemical_formula_structural       Cr2AsI6
_chemical_formula_sum              "Cr2 As1 I6"
_cell_length_a       7.82388821553091
_cell_length_b       7.823888178334863
_cell_length_c       7.823888179988459
_cell_angle_alpha    60.000000351921834
_cell_angle_beta     60.00000007811574
_cell_angle_gamma    60.00000003939857

_space_group_name_H-M_alt    "P 1"
_space_group_IT_number       1

loop_
  _space_group_symop_operation_xyz
  'x, y, z'

loop_
  _atom_site_type_symbol
  _atom_site_label
  _atom_site_symmetry_multiplicity
  _atom_site_fract_x
  _atom_site_fract_y
  _atom_site_fract_z
  _atom_site_occupancy
  Cr  Cr1       1.0  0.24999996124389023  0.2500000502416373  0.2500000024685811  1.0000
  Cr  Cr2       1.0  0.7500000047552636  0.7499999957511456  0.7500000601686622  1.0000
  As  As1       1.0  0.9999999979281715  0.9999999796499094  4.820275070375785e-09  1.0000
  I   I1        1.0  0.25661830470879055  0.256618257194292  0.7433817349437051  1.0000
  I   I2        1.0  0.7433817127973181  0.7433817449675266  0.25661828039888906  1.0000
  I   I3        1.0  0.7433817389683882  0.2566182729654823  0.2566182656764797  1.0000
  I   I4        1.0  0.2566182805507435  0.7433817010192877  0.743381711622652  1.0000
  I   I5        1.0  0.2566182838446132  0.7433817364754509  0.25661824900967023  1.0000
  I   I6        1.0  0.7433817179487742  0.2566182641209757  0.7433816829461253  1.0000
