data_image0
_chemical_formula_structural       Cr2AsI6
_chemical_formula_sum              "Cr2 As1 I6"
_cell_length_a       7.824257455297228
_cell_length_b       7.82425757328839
_cell_length_c       7.824257481874979
_cell_angle_alpha    60.000000281460956
_cell_angle_beta     60.00000012400631
_cell_angle_gamma    60.00000079702536

_space_group_name_H-M_alt    "P 1"
_space_group_IT_number       1

loop_
  _space_group_symop_operation_xyz
  'x, y, z'

loop_
  _atom_site_type_symbol
  _atom_site_label
  _atom_site_symmetry_multiplicity
  _atom_site_fract_x
  _atom_site_fract_y
  _atom_site_fract_z
  _atom_site_occupancy
  Cr  Cr1       1.0  0.2500000044906588  0.2500000032756725  0.2499999936890372  1.0000
  Cr  Cr2       1.0  0.7499999967318108  0.7499999847819347  0.7500000441362618  1.0000
  As  As1       1.0  3.90561438031884e-09  1.5653177618841353e-09  0.9999999614783905  1.0000
  I   I1        1.0  0.2566017091207548  0.2566017154489852  0.7433982800617619  1.0000
  I   I2        1.0  0.7433982905363969  0.7433982773045752  0.25660169357246876  1.0000
  I   I3        1.0  0.7433982547000082  0.2566017259139932  0.256601750178983  1.0000
  I   I4        1.0  0.2566016998775755  0.743398309103144  0.7433982721520752  1.0000
  I   I5        1.0  0.25660174067164265  0.7433982850724167  0.2566017238018272  1.0000
  I   I6        1.0  0.7433983000545815  0.2566016951586025  0.7433982815698935  1.0000
