data_image0
_chemical_formula_structural       Cr2AsCl6
_chemical_formula_sum              "Cr2 As1 Cl6"
_cell_length_a       6.685080692142351
_cell_length_b       6.685080499049234
_cell_length_c       6.685080485156435
_cell_angle_alpha    60.0000004694176
_cell_angle_beta     60.00000121423041
_cell_angle_gamma    59.999999041478254

_space_group_name_H-M_alt    "P 1"
_space_group_IT_number       1

loop_
  _space_group_symop_operation_xyz
  'x, y, z'

loop_
  _atom_site_type_symbol
  _atom_site_label
  _atom_site_symmetry_multiplicity
  _atom_site_fract_x
  _atom_site_fract_y
  _atom_site_fract_z
  _atom_site_occupancy
  Cr  Cr1       1.0  0.2500001200284092  0.2499999611692264  0.24999984345379445  1.0000
  Cr  Cr2       1.0  0.7499999947878694  0.7500001088507002  0.7500000909833553  1.0000
  As  As1       1.0  0.9999999539741293  0.9999999981679433  0.9999999700777048  1.0000
  Cl  Cl1       1.0  0.2513659157413897  0.251365992425458  0.74863411358142  1.0000
  Cl  Cl2       1.0  0.74863404995409  0.7486340171365881  0.2513659376120157  1.0000
  Cl  Cl3       1.0  0.7486340691023764  0.25136589286561045  0.25136591706731826  1.0000
  Cl  Cl4       1.0  0.2513659238284501  0.7486341075361501  0.7486340921794843  1.0000
  Cl  Cl5       1.0  0.2513659629233595  0.7486341221230391  0.25136584584874755  1.0000
  Cl  Cl6       1.0  0.7486340027212762  0.2513657995002691  0.7486341924964833  1.0000
