data_image0
_chemical_formula_structural       Cr2BiCl6
_chemical_formula_sum              "Cr2 Bi1 Cl6"
_cell_length_a       6.958488447892569
_cell_length_b       6.958488603572431
_cell_length_c       6.958488664220706
_cell_angle_alpha    59.99999919607732
_cell_angle_beta     59.999999826812875
_cell_angle_gamma    60.00000105651125

_space_group_name_H-M_alt    "P 1"
_space_group_IT_number       1

loop_
  _space_group_symop_operation_xyz
  'x, y, z'

loop_
  _atom_site_type_symbol
  _atom_site_label
  _atom_site_symmetry_multiplicity
  _atom_site_fract_x
  _atom_site_fract_y
  _atom_site_fract_z
  _atom_site_occupancy
  Cr  Cr1       1.0  0.25000002819387035  0.24999989907055561  0.25000005107707673  1.0000
  Cr  Cr2       1.0  0.749999976161703  0.7499999876237302  0.7500000234336217  1.0000
  Bi  Bi1       1.0  1.3401625353979366e-09  4.5761900955853544e-08  0.9999999922569984  1.0000
  Cl  Cl1       1.0  0.26248948979760117  0.26248946682352786  0.7375105002001601  1.0000
  Cl  Cl2       1.0  0.7375104454463616  0.7375105923579234  0.2624894751986688  1.0000
  Cl  Cl3       1.0  0.7375105381873066  0.26248948203622  0.2624894588059508  1.0000
  Cl  Cl4       1.0  0.2624894923478118  0.7375105401836967  0.7375105147328481  1.0000
  Cl  Cl5       1.0  0.2624894808667422  0.7375105374550205  0.2624894505243595  1.0000
  Cl  Cl6       1.0  0.7375105405171803  0.26248944252314116  0.7375105386512593  1.0000
