data_image0
_chemical_formula_structural       Cr2BF6
_chemical_formula_sum              "Cr2 B1 F6"
_cell_length_a       5.11790264218164
_cell_length_b       5.117902611714872
_cell_length_c       5.117902583447417
_cell_angle_alpha    60.00000056816344
_cell_angle_beta     60.00000037663274
_cell_angle_gamma    59.999999863995356

_space_group_name_H-M_alt    "P 1"
_space_group_IT_number       1

loop_
  _space_group_symop_operation_xyz
  'x, y, z'

loop_
  _atom_site_type_symbol
  _atom_site_label
  _atom_site_symmetry_multiplicity
  _atom_site_fract_x
  _atom_site_fract_y
  _atom_site_fract_z
  _atom_site_occupancy
  Cr  Cr1       1.0  0.25000005288830895  0.249999960434649  0.2499999390144151  1.0000
  Cr  Cr2       1.0  0.7499999144010557  0.7499999913847151  0.7500001322833266  1.0000
  B   B1        1.0  3.7147106728851636e-09  2.393060212318315e-09  2.0393219710074906e-08  1.0000
  F   F1        1.0  0.22372567205528124  0.22372565582801754  0.77627429890683  1.0000
  F   F2        1.0  0.7762743546694547  0.776274334280308  0.22372565318743026  1.0000
  F   F3        1.0  0.7762743279488858  0.22372570725026014  0.22372567722412556  1.0000
  F   F4        1.0  0.22372562641714802  0.7762743307192683  0.776274322289542  1.0000
  F   F5        1.0  0.22372571470852165  0.776274316333279  0.22372566333960678  1.0000
  F   F6        1.0  0.7762743333699306  0.2237256977056479  0.7762743071449285  1.0000
