data_image0
_chemical_formula_structural       Cr2BBr6
_chemical_formula_sum              "Cr2 B1 Br6"
_cell_length_a       6.894158095402081
_cell_length_b       6.894158078699833
_cell_length_c       6.89415813936046
_cell_angle_alpha    60.000000286775844
_cell_angle_beta     60.0000006364399
_cell_angle_gamma    60.000000437835446

_space_group_name_H-M_alt    "P 1"
_space_group_IT_number       1

loop_
  _space_group_symop_operation_xyz
  'x, y, z'

loop_
  _atom_site_type_symbol
  _atom_site_label
  _atom_site_symmetry_multiplicity
  _atom_site_fract_x
  _atom_site_fract_y
  _atom_site_fract_z
  _atom_site_occupancy
  Cr  Cr1       1.0  0.24999992100421814  0.25000009129862644  0.25000000819172685  1.0000
  Cr  Cr2       1.0  0.7499999466128542  0.7500000145273696  0.7500000102412121  1.0000
  B   B1        1.0  0.9999999505105986  2.2383857712866486e-07  1.7261659429878634e-08  1.0000
  Br  Br1       1.0  0.23253076187336078  0.23253071245325785  0.76746924657749  1.0000
  Br  Br2       1.0  0.7674692355440056  0.7674691446632087  0.23253078634446028  1.0000
  Br  Br3       1.0  0.7674692043727196  0.23253079288530382  0.23253069022357162  1.0000
  Br  Br4       1.0  0.23253083180235104  0.7674691690444646  0.7674692143432426  1.0000
  Br  Br5       1.0  0.23253084008153416  0.7674691104052999  0.23253081695578776  1.0000
  Br  Br6       1.0  0.7674693049299752  0.23253073605218755  0.7674692171227459  1.0000
