data_image0
_chemical_formula_structural       Cr2BI6
_chemical_formula_sum              "Cr2 B1 I6"
_cell_length_a       7.427903768875078
_cell_length_b       7.427903502863392
_cell_length_c       7.427903727006138
_cell_angle_alpha    59.9999960279505
_cell_angle_beta     59.99999740111475
_cell_angle_gamma    60.000000512931585

_space_group_name_H-M_alt    "P 1"
_space_group_IT_number       1

loop_
  _space_group_symop_operation_xyz
  'x, y, z'

loop_
  _atom_site_type_symbol
  _atom_site_label
  _atom_site_symmetry_multiplicity
  _atom_site_fract_x
  _atom_site_fract_y
  _atom_site_fract_z
  _atom_site_occupancy
  Cr  Cr1       1.0  0.25000002556964446  0.25000015775831413  0.24999988082784516  1.0000
  Cr  Cr2       1.0  0.7500000395967829  0.7499999736754109  0.7500000010398036  1.0000
  B   B1        1.0  0.9999999490448772  3.627455251010286e-08  0.9999999481041919  1.0000
  I   I1        1.0  0.2366936240066003  0.2366935694301518  0.7633064741590696  1.0000
  I   I2        1.0  0.7633063950301198  0.7633063179747576  0.23669363221806336  1.0000
  I   I3        1.0  0.7633063737205403  0.23669364439214935  0.23669363052880038  1.0000
  I   I4        1.0  0.23669365621139712  0.7633063782179144  0.7633063489471494  1.0000
  I   I5        1.0  0.23669359356174371  0.7633062700629668  0.23669369894495104  1.0000
  I   I6        1.0  0.7633063498357419  0.23669364372343357  0.763306394365359  1.0000
