data_image0
_chemical_formula_structural       Cr2BiI6
_chemical_formula_sum              "Cr2 Bi1 I6"
_cell_length_a       8.056074306448307
_cell_length_b       8.056074297254595
_cell_length_c       8.05607433649132
_cell_angle_alpha    59.99999982000423
_cell_angle_beta     60.00000001905667
_cell_angle_gamma    60.00000040895777

_space_group_name_H-M_alt    "P 1"
_space_group_IT_number       1

loop_
  _space_group_symop_operation_xyz
  'x, y, z'

loop_
  _atom_site_type_symbol
  _atom_site_label
  _atom_site_symmetry_multiplicity
  _atom_site_fract_x
  _atom_site_fract_y
  _atom_site_fract_z
  _atom_site_occupancy
  Cr  Cr1       1.0  0.24999997550325287  0.25000000421109475  0.25000002052439374  1.0000
  Cr  Cr2       1.0  0.7500000184167097  0.7500000035116344  0.7499999494264667  1.0000
  Bi  Bi1       1.0  2.665446517747991e-08  0.9999999802364246  6.4849501245739615e-09  1.0000
  I   I1        1.0  0.26611738156242526  0.26611736705192973  0.7338826251355093  1.0000
  I   I2        1.0  0.7338826526646429  0.7338826315491493  0.26611737266810137  1.0000
  I   I3        1.0  0.7338826125635728  0.2661173684366471  0.26611738233754234  1.0000
  I   I4        1.0  0.26611737182984474  0.7338826377658071  0.7338826353409067  1.0000
  I   I5        1.0  0.26611733099499824  0.7338826335568436  0.2661173750959152  1.0000
  I   I6        1.0  0.7338826308849669  0.26611737568616056  0.7338826250103989  1.0000
