data_image0
_chemical_formula_structural       Cr2BiBr6
_chemical_formula_sum              "Cr2 Bi1 Br6"
_cell_length_a       7.381481046648951
_cell_length_b       7.381481058862792
_cell_length_c       7.381481296970301
_cell_angle_alpha    59.99999830281299
_cell_angle_beta     59.99999834400013
_cell_angle_gamma    60.00000029270785

_space_group_name_H-M_alt    "P 1"
_space_group_IT_number       1

loop_
  _space_group_symop_operation_xyz
  'x, y, z'

loop_
  _atom_site_type_symbol
  _atom_site_label
  _atom_site_symmetry_multiplicity
  _atom_site_fract_x
  _atom_site_fract_y
  _atom_site_fract_z
  _atom_site_occupancy
  Cr  Cr1       1.0  0.24999996134133937  0.24999998742867863  0.2500000466509893  1.0000
  Cr  Cr2       1.0  0.7499999853713637  0.7500000618388136  0.7500000151175562  1.0000
  Bi  Bi1       1.0  1.2704351488335189e-08  0.9999999900447226  0.9999999945612381  1.0000
  Br  Br1       1.0  0.26528994605365747  0.26528987289522216  0.734710080473183  1.0000
  Br  Br2       1.0  0.7347100411904481  0.7347101017076891  0.26528992656064543  1.0000
  Br  Br3       1.0  0.7347100980333154  0.26528995118143844  0.265289900478325  1.0000
  Br  Br4       1.0  0.2652899365660371  0.7347100831531392  0.7347100584310127  1.0000
  Br  Br5       1.0  0.2652899119036357  0.7347100473968313  0.26528993425723574  1.0000
  Br  Br6       1.0  0.7347101250517339  0.2652898907033962  0.7347100566891112  1.0000
