data_image0
_chemical_formula_structural       Cr2BiF6
_chemical_formula_sum              "Cr2 Bi1 F6"
_cell_length_a       5.997230440706473
_cell_length_b       5.997229701664725
_cell_length_c       5.997230066809543
_cell_angle_alpha    59.999999308356344
_cell_angle_beta     60.00000178602152
_cell_angle_gamma    60.000002502709265

_space_group_name_H-M_alt    "P 1"
_space_group_IT_number       1

loop_
  _space_group_symop_operation_xyz
  'x, y, z'

loop_
  _atom_site_type_symbol
  _atom_site_label
  _atom_site_symmetry_multiplicity
  _atom_site_fract_x
  _atom_site_fract_y
  _atom_site_fract_z
  _atom_site_occupancy
  Cr  Cr1       1.0  0.25000005735233116  0.25000013811607963  0.2499998736606956  1.0000
  Cr  Cr2       1.0  0.7499998815069558  0.7499998997177615  0.7500001069441622  1.0000
  Bi  Bi1       1.0  0.9999999848104341  2.2464026282072695e-08  0.9999999279978757  1.0000
  F   F1        1.0  0.2560783637003487  0.25607834066089685  0.7439216353689723  1.0000
  F   F2        1.0  0.7439216545871272  0.7439216379496024  0.2560783951611732  1.0000
  F   F3        1.0  0.7439216864063705  0.25607833558009035  0.2560783394316089  1.0000
  F   F4        1.0  0.25607844295312826  0.7439215062040615  0.7439217223174983  1.0000
  F   F5        1.0  0.2560783531756414  0.7439216352075279  0.25607830043256014  1.0000
  F   F6        1.0  0.7439216437556382  0.2560784536809267  0.7439216756320884  1.0000
