data_image0
_chemical_formula_structural       Cr2BCl6
_chemical_formula_sum              "Cr2 B1 Cl6"
_cell_length_a       6.517398653396595
_cell_length_b       6.517398659345869
_cell_length_c       6.517398548143768
_cell_angle_alpha    60.00000116674442
_cell_angle_beta     60.00000139188663
_cell_angle_gamma    60.00000097667069

_space_group_name_H-M_alt    "P 1"
_space_group_IT_number       1

loop_
  _space_group_symop_operation_xyz
  'x, y, z'

loop_
  _atom_site_type_symbol
  _atom_site_label
  _atom_site_symmetry_multiplicity
  _atom_site_fract_x
  _atom_site_fract_y
  _atom_site_fract_z
  _atom_site_occupancy
  Cr  Cr1       1.0  0.2500000611396274  0.2500000911642607  0.24999977561501172  1.0000
  Cr  Cr2       1.0  0.749999942664642  0.7500001081238179  0.7499999518541315  1.0000
  B   B1        1.0  1.5640288674967396e-07  0.9999995095306797  0.9999994550927126  1.0000
  Cl  Cl1       1.0  0.22547719554644696  0.22547727158079356  0.7745228183084257  1.0000
  Cl  Cl2       1.0  0.7745229048979567  0.7745228769690807  0.22547709641632385  1.0000
  Cl  Cl3       1.0  0.7745225840934047  0.22547726211014207  0.22547749622151667  1.0000
  Cl  Cl4       1.0  0.22547699582147077  0.7745229916745293  0.7745231048692096  1.0000
  Cl  Cl5       1.0  0.22547723149251192  0.7745227115844476  0.22547727027453676  1.0000
  Cl  Cl6       1.0  0.7745229128734828  0.22547717763682282  0.7745230268031795  1.0000
