data_image0
_chemical_formula_structural       Cr2CoBr6
_chemical_formula_sum              "Cr2 Co1 Br6"
_cell_length_a       6.926127823844929
_cell_length_b       6.926127746549037
_cell_length_c       6.926127725720482
_cell_angle_alpha    60.00000107320272
_cell_angle_beta     60.00000047870948
_cell_angle_gamma    60.000000619216486

_space_group_name_H-M_alt    "P 1"
_space_group_IT_number       1

loop_
  _space_group_symop_operation_xyz
  'x, y, z'

loop_
  _atom_site_type_symbol
  _atom_site_label
  _atom_site_symmetry_multiplicity
  _atom_site_fract_x
  _atom_site_fract_y
  _atom_site_fract_z
  _atom_site_occupancy
  Cr  Cr1       1.0  0.24999998618382485  0.25000003230674983  0.25000006005946995  1.0000
  Cr  Cr2       1.0  0.749999984116673  0.7499999802126676  0.7500000135097957  1.0000
  Co  Co1       1.0  3.021125062373828e-08  0.9999999893902196  0.9999999439974024  1.0000
  Br  Br1       1.0  0.24742123314196074  0.24742117163131402  0.7525787928517642  1.0000
  Br  Br2       1.0  0.7525787425645579  0.7525788196685427  0.247421222209094  1.0000
  Br  Br3       1.0  0.752578811276576  0.24742120352374591  0.2474211401745524  1.0000
  Br  Br4       1.0  0.2474212095445572  0.7525787824712209  0.7525788492062107  1.0000
  Br  Br5       1.0  0.2474212083811467  0.7525788158168307  0.24742114926138994  1.0000
  Br  Br6       1.0  0.7525787895706119  0.2474212037757727  0.7525788405304751  1.0000
