data_image0
_chemical_formula_structural       Cr2CoCl6
_chemical_formula_sum              "Cr2 Co1 Cl6"
_cell_length_a       6.4643440438246
_cell_length_b       6.46434385771112
_cell_length_c       6.464344015697788
_cell_angle_alpha    59.999998880648214
_cell_angle_beta     59.99999894636579
_cell_angle_gamma    59.999999227387946

_space_group_name_H-M_alt    "P 1"
_space_group_IT_number       1

loop_
  _space_group_symop_operation_xyz
  'x, y, z'

loop_
  _atom_site_type_symbol
  _atom_site_label
  _atom_site_symmetry_multiplicity
  _atom_site_fract_x
  _atom_site_fract_y
  _atom_site_fract_z
  _atom_site_occupancy
  Cr  Cr1       1.0  0.2500000378606418  0.2500000553832057  0.2499999585955329  1.0000
  Cr  Cr2       1.0  0.7500000976203142  0.7499997853318141  0.7499999860003066  1.0000
  Co  Co1       1.0  1.2541007503042854e-08  0.9999999355830584  1.2494259902545203e-07  1.0000
  Cl  Cl1       1.0  0.24594762234069117  0.24594779067578332  0.7540523470435507  1.0000
  Cl  Cl2       1.0  0.7540523879006853  0.7540522167654383  0.24594771758118936  1.0000
  Cl  Cl3       1.0  0.754052245129434  0.2459477474785716  0.24594770704191332  1.0000
  Cl  Cl4       1.0  0.2459477084375947  0.7540523281688233  0.7540522141385981  1.0000
  Cl  Cl5       1.0  0.24594771159955903  0.7540523049248469  0.24594763196980182  1.0000
  Cl  Cl6       1.0  0.7540521799343372  0.24594783892872138  0.7540523031406106  1.0000
