data_image0
_chemical_formula_structural       Cr2CoF6
_chemical_formula_sum              "Cr2 Co1 F6"
_cell_length_a       5.349834290680124
_cell_length_b       5.349834295917249
_cell_length_c       5.349834415833213
_cell_angle_alpha    59.999999665315215
_cell_angle_beta     59.99999973430343
_cell_angle_gamma    60.000000296013724

_space_group_name_H-M_alt    "P 1"
_space_group_IT_number       1

loop_
  _space_group_symop_operation_xyz
  'x, y, z'

loop_
  _atom_site_type_symbol
  _atom_site_label
  _atom_site_symmetry_multiplicity
  _atom_site_fract_x
  _atom_site_fract_y
  _atom_site_fract_z
  _atom_site_occupancy
  Cr  Cr1       1.0  0.2499997662382282  0.2499995537650165  0.2500004038006583  1.0000
  Cr  Cr2       1.0  0.7499999703422768  0.750000000543543  0.749999751744273  1.0000
  Co  Co1       1.0  6.4526933277970924e-09  3.8918332224691455e-08  0.999999966099187  1.0000
  F   F1        1.0  0.24462014985475883  0.2446203181449173  0.7553798077240754  1.0000
  F   F2        1.0  0.7553798785564219  0.7553797787309823  0.24462026895007927  1.0000
  F   F3        1.0  0.7553797948355144  0.24462016920844346  0.24462025851359137  1.0000
  F   F4        1.0  0.24462029725734674  0.7553800215293162  0.7553796234973561  1.0000
  F   F5        1.0  0.24462026518953153  0.755379928582169  0.24462019372727478  1.0000
  F   F6        1.0  0.7553798723828195  0.24462021636931774  0.7553797351674827  1.0000
