data_image0
_chemical_formula_structural       Cr2CoI6
_chemical_formula_sum              "Cr2 Co1 I6"
_cell_length_a       7.4777879808082925
_cell_length_b       7.477788007325013
_cell_length_c       7.477788068916812
_cell_angle_alpha    59.999999756106845
_cell_angle_beta     60.000000132991126
_cell_angle_gamma    59.99999996626504

_space_group_name_H-M_alt    "P 1"
_space_group_IT_number       1

loop_
  _space_group_symop_operation_xyz
  'x, y, z'

loop_
  _atom_site_type_symbol
  _atom_site_label
  _atom_site_symmetry_multiplicity
  _atom_site_fract_x
  _atom_site_fract_y
  _atom_site_fract_z
  _atom_site_occupancy
  Cr  Cr1       1.0  0.2500000106931858  0.25000004317720403  0.24999991333203428  1.0000
  Cr  Cr2       1.0  0.7499999476665548  0.7500000214339207  0.7500000676032856  1.0000
  Co  Co1       1.0  2.2351722779896015e-08  0.9999999885350934  0.9999999771717719  1.0000
  I   I1        1.0  0.2476256239373645  0.24762557338509192  0.752374427923988  1.0000
  I   I2        1.0  0.7523743948031145  0.7523743749391227  0.24762559300006257  1.0000
  I   I3        1.0  0.7523743870896779  0.24762561315244555  0.2476256267492363  1.0000
  I   I4        1.0  0.24762560418213617  0.7523743990476774  0.7523744067289511  1.0000
  I   I5        1.0  0.24762562078980924  0.7523743736757549  0.24762560903025715  1.0000
  I   I6        1.0  0.7523743931147369  0.2476256123188674  0.7523743767544421  1.0000
