data_image0
_chemical_formula_structural       Cr2CF6
_chemical_formula_sum              "Cr2 C1 F6"
_cell_length_a       4.79921145817469
_cell_length_b       4.799211364153013
_cell_length_c       4.799211493780898
_cell_angle_alpha    59.99999992221729
_cell_angle_beta     60.00000084685567
_cell_angle_gamma    60.00000117405698

_space_group_name_H-M_alt    "P 1"
_space_group_IT_number       1

loop_
  _space_group_symop_operation_xyz
  'x, y, z'

loop_
  _atom_site_type_symbol
  _atom_site_label
  _atom_site_symmetry_multiplicity
  _atom_site_fract_x
  _atom_site_fract_y
  _atom_site_fract_z
  _atom_site_occupancy
  Cr  Cr1       1.0  0.24999995523034488  0.2500001141184347  0.2499999945825529  1.0000
  Cr  Cr2       1.0  0.7500000216030811  0.7499999467997857  0.7499999993856127  1.0000
  C   C1        1.0  0.9999999531430374  1.786379653048234e-08  0.9999999311495579  1.0000
  F   F1        1.0  0.2210492387430639  0.22104902232932783  0.7789509010348916  1.0000
  F   F2        1.0  0.7789508574699463  0.7789509186462534  0.22104922240269037  1.0000
  F   F3        1.0  0.7789509059744073  0.22104894806612888  0.22104920613085452  1.0000
  F   F4        1.0  0.22104911443855718  0.7789508882786358  0.7789509595976181  1.0000
  F   F5        1.0  0.22104914516939897  0.7789509364618108  0.221049076583674  1.0000
  F   F6        1.0  0.7789508127785815  0.22104923163919482  0.7789507544663118  1.0000
