data_image0
_chemical_formula_structural       Cr2CBr6
_chemical_formula_sum              "Cr2 C1 Br6"
_cell_length_a       6.946561570592771
_cell_length_b       6.946561443661016
_cell_length_c       6.9465615950023665
_cell_angle_alpha    59.999999437331056
_cell_angle_beta     59.99999979161101
_cell_angle_gamma    60.00000039052065

_space_group_name_H-M_alt    "P 1"
_space_group_IT_number       1

loop_
  _space_group_symop_operation_xyz
  'x, y, z'

loop_
  _atom_site_type_symbol
  _atom_site_label
  _atom_site_symmetry_multiplicity
  _atom_site_fract_x
  _atom_site_fract_y
  _atom_site_fract_z
  _atom_site_occupancy
  Cr  Cr1       1.0  0.25000001303348757  0.24999986632232163  0.25000004065241993  1.0000
  Cr  Cr2       1.0  0.7500001490890188  0.7499999621645667  0.749999942946626  1.0000
  C   C1        1.0  1.0981902770227243e-08  0.9999999471071458  6.702143152472474e-08  1.0000
  Br  Br1       1.0  0.24719342791356516  0.24719369162514998  0.7528064252379734  1.0000
  Br  Br2       1.0  0.7528065506167211  0.7528064083783887  0.2471935028823687  1.0000
  Br  Br3       1.0  0.7528063837931956  0.2471935364248541  0.24719360283916247  1.0000
  Br  Br4       1.0  0.24719361084121266  0.7528064454513101  0.7528064367543728  1.0000
  Br  Br5       1.0  0.24719353399726324  0.7528065078409236  0.2471935300289938  1.0000
  Br  Br6       1.0  0.7528063120216277  0.24719362566142142  0.7528064533558876  1.0000
