data_image0
_chemical_formula_structural       Cr2CI6
_chemical_formula_sum              "Cr2 C1 I6"
_cell_length_a       7.458172104559945
_cell_length_b       7.45817199575917
_cell_length_c       7.458171968918811
_cell_angle_alpha    60.000000465807766
_cell_angle_beta     59.99999992054585
_cell_angle_gamma    60.000000481812634

_space_group_name_H-M_alt    "P 1"
_space_group_IT_number       1

loop_
  _space_group_symop_operation_xyz
  'x, y, z'

loop_
  _atom_site_type_symbol
  _atom_site_label
  _atom_site_symmetry_multiplicity
  _atom_site_fract_x
  _atom_site_fract_y
  _atom_site_fract_z
  _atom_site_occupancy
  Cr  Cr1       1.0  0.25000003808527255  0.24999994688542523  0.2500000250564447  1.0000
  Cr  Cr2       1.0  0.7499999593194936  0.7500000360723079  0.7499999932521695  1.0000
  C   C1        1.0  4.383628295071651e-08  0.999999947451151  1.2401149481772934e-08  1.0000
  I   I1        1.0  0.2509055544793485  0.25090551953744233  0.7490944598210215  1.0000
  I   I2        1.0  0.7490944555769353  0.749094476557503  0.25090552816268274  1.0000
  I   I3        1.0  0.7490944469794015  0.250905543750519  0.25090554147251876  1.0000
  I   I4        1.0  0.25090552926522725  0.7490944933982151  0.7490944764103973  1.0000
  I   I5        1.0  0.250905526023258  0.7490944901577108  0.250905495074139  1.0000
  I   I6        1.0  0.7490944481257522  0.25090554863317444  0.7490944600173877  1.0000
