data_image0
_chemical_formula_structural       Cr2FeBr6
_chemical_formula_sum              "Cr2 Fe1 Br6"
_cell_length_a       6.98393930171232
_cell_length_b       6.983939273668203
_cell_length_c       6.983939301359509
_cell_angle_alpha    60.000001377841855
_cell_angle_beta     60.000001069755875
_cell_angle_gamma    60.00000120480002

_space_group_name_H-M_alt    "P 1"
_space_group_IT_number       1

loop_
  _space_group_symop_operation_xyz
  'x, y, z'

loop_
  _atom_site_type_symbol
  _atom_site_label
  _atom_site_symmetry_multiplicity
  _atom_site_fract_x
  _atom_site_fract_y
  _atom_site_fract_z
  _atom_site_occupancy
  Cr  Cr1       1.0  0.24999998932359324  0.24999995219506185  0.25000005119470436  1.0000
  Cr  Cr2       1.0  0.7500000005508809  0.7500000266901157  0.7499999892399066  1.0000
  Fe  Fe1       1.0  1.9255834441714454e-08  1.753658832055206e-09  0.9999999637218336  1.0000
  Br  Br1       1.0  0.22997819912849482  0.22997821019911113  0.770021750937541  1.0000
  Br  Br2       1.0  0.770021765810786  0.7700218335714514  0.22997821224770837  1.0000
  Br  Br3       1.0  0.7700218019747398  0.2299782372016948  0.22997819352918064  1.0000
  Br  Br4       1.0  0.22997819973975908  0.7700217855249597  0.7700218033142568  1.0000
  Br  Br5       1.0  0.229978218943137  0.770021774959055  0.22997821796585616  1.0000
  Br  Br6       1.0  0.7700217908720184  0.2299781986651451  0.7700218008103366  1.0000
