data_image0
_chemical_formula_structural       Cr2FeCl6
_chemical_formula_sum              "Cr2 Fe1 Cl6"
_cell_length_a       6.5463682691435
_cell_length_b       6.546368246326117
_cell_length_c       6.546368374187516
_cell_angle_alpha    60.00000005379816
_cell_angle_beta     59.999999223768185
_cell_angle_gamma    60.00000057465685

_space_group_name_H-M_alt    "P 1"
_space_group_IT_number       1

loop_
  _space_group_symop_operation_xyz
  'x, y, z'

loop_
  _atom_site_type_symbol
  _atom_site_label
  _atom_site_symmetry_multiplicity
  _atom_site_fract_x
  _atom_site_fract_y
  _atom_site_fract_z
  _atom_site_occupancy
  Cr  Cr1       1.0  0.2499997380519309  0.2499999058779708  0.2500003275114208  1.0000
  Cr  Cr2       1.0  0.7499998937414168  0.750000123614185  0.7499998867729623  1.0000
  Fe  Fe1       1.0  1.6000271047536582e-08  0.9999999625824636  1.6818890485733847e-08  1.0000
  Cl  Cl1       1.0  0.2401461968659407  0.24014613480091182  0.7598538679581451  1.0000
  Cl  Cl2       1.0  0.7598538824912695  0.7598537955347759  0.24014619503600712  1.0000
  Cl  Cl3       1.0  0.7598538198042601  0.24014619295345946  0.24014616507615702  1.0000
  Cl  Cl4       1.0  0.24014624638338292  0.7598539038902652  0.7598537265397614  1.0000
  Cl  Cl5       1.0  0.24014621312533646  0.7598538487711242  0.24014617782616743  1.0000
  Cl  Cl6       1.0  0.7598539877072148  0.24014612459473025  0.7598536471036507  1.0000
