data_image0
_chemical_formula_structural       Cr2FeF6
_chemical_formula_sum              "Cr2 Fe1 F6"
_cell_length_a       5.560888283451854
_cell_length_b       5.560888740911935
_cell_length_c       5.560888030784447
_cell_angle_alpha    60.00000042635469
_cell_angle_beta     59.99999974291795
_cell_angle_gamma    60.000000986734456

_space_group_name_H-M_alt    "P 1"
_space_group_IT_number       1

loop_
  _space_group_symop_operation_xyz
  'x, y, z'

loop_
  _atom_site_type_symbol
  _atom_site_label
  _atom_site_symmetry_multiplicity
  _atom_site_fract_x
  _atom_site_fract_y
  _atom_site_fract_z
  _atom_site_occupancy
  Cr  Cr1       1.0  0.25000005842971074  0.2500000185428474  0.2499999788151969  1.0000
  Cr  Cr2       1.0  0.7500000985283553  0.749999725264569  0.7500002389130427  1.0000
  Fe  Fe1       1.0  0.9999999743698547  0.9999999647611781  0.9999999908724584  1.0000
  F   F1        1.0  0.24676886768669093  0.24676900989820097  0.7532311999577092  1.0000
  F   F2        1.0  0.753231081073839  0.753231053261059  0.24676884710383853  1.0000
  F   F3        1.0  0.7532309983561498  0.24676904902844102  0.24676882543865228  1.0000
  F   F4        1.0  0.24676892749840532  0.7532311264545759  0.7532309844986904  1.0000
  F   F5        1.0  0.24676893098679825  0.7532310744138473  0.2467689429305471  1.0000
  F   F6        1.0  0.7532310498851988  0.24676901076968114  0.7532309691666956  1.0000
