data_image0
_chemical_formula_structural       Cr2GaI6
_chemical_formula_sum              "Cr2 Ga1 I6"
_cell_length_a       7.690824386724199
_cell_length_b       7.690824324422148
_cell_length_c       7.69082441365606
_cell_angle_alpha    59.999999719838776
_cell_angle_beta     60.0000001384057
_cell_angle_gamma    60.000001062238674

_space_group_name_H-M_alt    "P 1"
_space_group_IT_number       1

loop_
  _space_group_symop_operation_xyz
  'x, y, z'

loop_
  _atom_site_type_symbol
  _atom_site_label
  _atom_site_symmetry_multiplicity
  _atom_site_fract_x
  _atom_site_fract_y
  _atom_site_fract_z
  _atom_site_occupancy
  Cr  Cr1       1.0  0.25000000379848636  0.25000002575848457  0.24999999411165458  1.0000
  Cr  Cr2       1.0  0.7499999506135292  0.749999957839796  0.7500000555404979  1.0000
  Ga  Ga1       1.0  0.9999999904763994  0.9999999745203931  7.099597933704186e-09  1.0000
  I   I1        1.0  0.25396184611545497  0.253961843606962  0.7460381436480715  1.0000
  I   I2        1.0  0.7460381716129688  0.746038152731123  0.25396185497346746  1.0000
  I   I3        1.0  0.7460381478276334  0.25396186361967665  0.2539618585283096  1.0000
  I   I4        1.0  0.25396187925786645  0.7460381406807854  0.7460381288330012  1.0000
  I   I5        1.0  0.25396187237541945  0.7460381485377169  0.25396183763235053  1.0000
  I   I6        1.0  0.7460381364955019  0.2539618923896797  0.7460381236195232  1.0000
