data_image0
_chemical_formula_structural       Cr2GaF6
_chemical_formula_sum              "Cr2 Ga1 F6"
_cell_length_a       5.481096063181987
_cell_length_b       5.481096476799413
_cell_length_c       5.481096106596876
_cell_angle_alpha    59.99999957541708
_cell_angle_beta     60.00000112785761
_cell_angle_gamma    60.000001361419685

_space_group_name_H-M_alt    "P 1"
_space_group_IT_number       1

loop_
  _space_group_symop_operation_xyz
  'x, y, z'

loop_
  _atom_site_type_symbol
  _atom_site_label
  _atom_site_symmetry_multiplicity
  _atom_site_fract_x
  _atom_site_fract_y
  _atom_site_fract_z
  _atom_site_occupancy
  Cr  Cr1       1.0  0.25000015168364864  0.250000052538667  0.24999981278913655  1.0000
  Cr  Cr2       1.0  0.7499998988649424  0.7499999743879056  0.7500001820872382  1.0000
  Ga  Ga1       1.0  6.320089005239361e-09  2.03578284693819e-16  0.9999999913665977  1.0000
  F   F1        1.0  0.24383983924955813  0.2438396721181284  0.756160284560976  1.0000
  F   F2        1.0  0.7561601580365098  0.7561603123531587  0.24383970891408333  1.0000
  F   F3        1.0  0.7561601747285805  0.24383984286679702  0.2438397683905947  1.0000
  F   F4        1.0  0.2438397869992338  0.7561601281975572  0.7561602495670576  1.0000
  F   F5        1.0  0.2438398577482049  0.7561602357098196  0.2438397731656732  1.0000
  F   F6        1.0  0.7561601781813031  0.24383978451328794  0.756160194058471  1.0000
