data_image0
_chemical_formula_structural       Cr2GaBr6
_chemical_formula_sum              "Cr2 Ga1 Br6"
_cell_length_a       7.028943241428809
_cell_length_b       7.028943232221589
_cell_length_c       7.02894319082458
_cell_angle_alpha    60.000000014656564
_cell_angle_beta     60.0000002276672
_cell_angle_gamma    60.00000079787845

_space_group_name_H-M_alt    "P 1"
_space_group_IT_number       1

loop_
  _space_group_symop_operation_xyz
  'x, y, z'

loop_
  _atom_site_type_symbol
  _atom_site_label
  _atom_site_symmetry_multiplicity
  _atom_site_fract_x
  _atom_site_fract_y
  _atom_site_fract_z
  _atom_site_occupancy
  Cr  Cr1       1.0  0.24999999813282078  0.2500000059060657  0.25000001392260673  1.0000
  Cr  Cr2       1.0  0.750000098841737  0.749999881808579  0.7499999593354525  1.0000
  Ga  Ga1       1.0  0.999999996033979  6.969724037201967e-09  0.9999999899620146  1.0000
  Br  Br1       1.0  0.2527042006385698  0.25270429445276754  0.7472957576636614  1.0000
  Br  Br2       1.0  0.7472957479020719  0.7472957675049772  0.25270425248392  1.0000
  Br  Br3       1.0  0.7472957573139951  0.2527042992892402  0.25270421236880114  1.0000
  Br  Br4       1.0  0.2527042020456429  0.7472957696382287  0.7472957646987074  1.0000
  Br  Br5       1.0  0.25270424345221965  0.7472957096437045  0.2527042919419963  1.0000
  Br  Br6       1.0  0.7472957515190534  0.252704272162214  0.7472957549838283  1.0000
