data_image0
_chemical_formula_structural       Cr2GaI6
_chemical_formula_sum              "Cr2 Ga1 I6"
_cell_length_a       7.690824631187179
_cell_length_b       7.690824629689897
_cell_length_c       7.6908246687502375
_cell_angle_alpha    59.99999970235831
_cell_angle_beta     60.0000002412704
_cell_angle_gamma    60.00000071667882

_space_group_name_H-M_alt    "P 1"
_space_group_IT_number       1

loop_
  _space_group_symop_operation_xyz
  'x, y, z'

loop_
  _atom_site_type_symbol
  _atom_site_label
  _atom_site_symmetry_multiplicity
  _atom_site_fract_x
  _atom_site_fract_y
  _atom_site_fract_z
  _atom_site_occupancy
  Cr  Cr1       1.0  0.2500000078102282  0.2500000020040253  0.25000000414193213  1.0000
  Cr  Cr2       1.0  0.7499999865332065  0.7499999725700929  0.7500000449950254  1.0000
  Ga  Ga1       1.0  0.9999999918867246  0.9999999792978204  0.9999999897029646  1.0000
  I   I1        1.0  0.2539618473776647  0.2539618387772533  0.7460381589096514  1.0000
  I   I2        1.0  0.7460381609779447  0.746038188348552  0.2539618166376041  1.0000
  I   I3        1.0  0.7460381421258112  0.25396186165224344  0.253961842946087  1.0000
  I   I4        1.0  0.25396184936572164  0.7460381575111849  0.7460381593171528  1.0000
  I   I5        1.0  0.25396186260450776  0.7460381478360522  0.25396182723263844  1.0000
  I   I6        1.0  0.7460381517723281  0.2539618522176722  0.746038156239543  1.0000
