data_image0
_chemical_formula_structural       Cr2GaBr6
_chemical_formula_sum              "Cr2 Ga1 Br6"
_cell_length_a       7.028943021425196
_cell_length_b       7.02894291295349
_cell_length_c       7.028942983189536
_cell_angle_alpha    59.99999939347673
_cell_angle_beta     59.99999958619281
_cell_angle_gamma    60.00000061134773

_space_group_name_H-M_alt    "P 1"
_space_group_IT_number       1

loop_
  _space_group_symop_operation_xyz
  'x, y, z'

loop_
  _atom_site_type_symbol
  _atom_site_label
  _atom_site_symmetry_multiplicity
  _atom_site_fract_x
  _atom_site_fract_y
  _atom_site_fract_z
  _atom_site_occupancy
  Cr  Cr1       1.0  0.25000001573750336  0.24999998062206977  0.2500000184450393  1.0000
  Cr  Cr2       1.0  0.7500000613341641  0.7499999192146053  0.7499999671253064  1.0000
  Ga  Ga1       1.0  0.999999994208994  0.9999999878029823  0.9999999720040974  1.0000
  Br  Br1       1.0  0.25270419955097384  0.25270428730598404  0.7472957544567289  1.0000
  Br  Br2       1.0  0.7472957613615567  0.7472957885162307  0.25270423534495196  1.0000
  Br  Br3       1.0  0.7472957626383974  0.2527042840160761  0.25270422187410335  1.0000
  Br  Br4       1.0  0.25270419093999824  0.7472957743818277  0.7472957902656233  1.0000
  Br  Br5       1.0  0.25270422894920586  0.7472957382284402  0.2527042684910777  1.0000
  Br  Br6       1.0  0.7472957764693211  0.2527042435024956  0.7472957845158477  1.0000
