data_image0
_chemical_formula_structural       Cr2GeBr6
_chemical_formula_sum              "Cr2 Ge1 Br6"
_cell_length_a       7.082296060783516
_cell_length_b       7.082295986939286
_cell_length_c       7.0822962965841665
_cell_angle_alpha    60.00000036111561
_cell_angle_beta     60.00000065990644
_cell_angle_gamma    60.00000049966239

_space_group_name_H-M_alt    "P 1"
_space_group_IT_number       1

loop_
  _space_group_symop_operation_xyz
  'x, y, z'

loop_
  _atom_site_type_symbol
  _atom_site_label
  _atom_site_symmetry_multiplicity
  _atom_site_fract_x
  _atom_site_fract_y
  _atom_site_fract_z
  _atom_site_occupancy
  Cr  Cr1       1.0  0.24999994758019567  0.25000006341720926  0.249999967597688  1.0000
  Cr  Cr2       1.0  0.7500000962812908  0.7499999187507682  0.7499997564562847  1.0000
  Ge  Ge1       1.0  0.9999999821474861  2.4210268079405215e-08  3.3532380059438486e-08  1.0000
  Br  Br1       1.0  0.24867594349391559  0.24867590703230447  0.7513240946337798  1.0000
  Br  Br2       1.0  0.7513240636425148  0.7513240630305439  0.24867600400419843  1.0000
  Br  Br3       1.0  0.7513240839226969  0.24867592994010967  0.2486759567447385  1.0000
  Br  Br4       1.0  0.24867594574269053  0.7513240556864819  0.7513241101391472  1.0000
  Br  Br5       1.0  0.24867586251062201  0.7513240487330248  0.24867601528936484  1.0000
  Br  Br6       1.0  0.7513240731338188  0.24867599396062562  0.7513240587756931  1.0000
