data_image0
_chemical_formula_structural       Cr2GeCl6
_chemical_formula_sum              "Cr2 Ge1 Cl6"
_cell_length_a       6.711067885737477
_cell_length_b       6.711067913832
_cell_length_c       6.711067839361548
_cell_angle_alpha    60.000000010983534
_cell_angle_beta     59.99999963309782
_cell_angle_gamma    59.99999947489403

_space_group_name_H-M_alt    "P 1"
_space_group_IT_number       1

loop_
  _space_group_symop_operation_xyz
  'x, y, z'

loop_
  _atom_site_type_symbol
  _atom_site_label
  _atom_site_symmetry_multiplicity
  _atom_site_fract_x
  _atom_site_fract_y
  _atom_site_fract_z
  _atom_site_occupancy
  Cr  Cr1       1.0  0.24999995733380928  0.24999999206204315  0.25000002951204076  1.0000
  Cr  Cr2       1.0  0.7500000135790342  0.7499998301891112  0.750000189090833  1.0000
  Ge  Ge1       1.0  0.9999999847919773  4.5624068033207074e-08  0.9999999579706124  1.0000
  Cl  Cl1       1.0  0.2425547731752885  0.24255480397071627  0.7574452157380746  1.0000
  Cl  Cl2       1.0  0.757445257015838  0.7574452482257401  0.2425547524576218  1.0000
  Cl  Cl3       1.0  0.757445208026907  0.242554856035243  0.24255470471502275  1.0000
  Cl  Cl4       1.0  0.24255475758090453  0.7574452144108411  0.7574451897925881  1.0000
  Cl  Cl5       1.0  0.24255480360537388  0.7574451733565528  0.2425547983692252  1.0000
  Cl  Cl6       1.0  0.7574452469555497  0.24255483321583568  0.7574451660627726  1.0000
