data_image0
_chemical_formula_structural       Cr2GaCl6
_chemical_formula_sum              "Cr2 Ga1 Cl6"
_cell_length_a       6.637377553399348
_cell_length_b       6.63737756482663
_cell_length_c       6.637377521891668
_cell_angle_alpha    59.999999737853486
_cell_angle_beta     59.99999993351756
_cell_angle_gamma    59.99999972474287

_space_group_name_H-M_alt    "P 1"
_space_group_IT_number       1

loop_
  _space_group_symop_operation_xyz
  'x, y, z'

loop_
  _atom_site_type_symbol
  _atom_site_label
  _atom_site_symmetry_multiplicity
  _atom_site_fract_x
  _atom_site_fract_y
  _atom_site_fract_z
  _atom_site_occupancy
  Cr  Cr1       1.0  0.24999981569388047  0.2500000069432003  0.2500000872170763  1.0000
  Cr  Cr2       1.0  0.7500000835111335  0.7500000060678075  0.7499999071254236  1.0000
  Ga  Ga1       1.0  0.9999999841498006  0.9999999797025354  7.527498117343364e-09  1.0000
  Cl  Cl1       1.0  0.24980493066305934  0.24980490174672132  0.750195065616446  1.0000
  Cl  Cl2       1.0  0.7501951153787427  0.7501951352521987  0.2498048990586113  1.0000
  Cl  Cl3       1.0  0.7501951612830144  0.24980487982658056  0.24980491207232125  1.0000
  Cl  Cl4       1.0  0.2498048918955181  0.7501950261614312  0.7501951401523507  1.0000
  Cl  Cl5       1.0  0.2498048383838149  0.7501951170104174  0.24980496753425752  1.0000
  Cl  Cl6       1.0  0.7501951831786359  0.24980495689298368  0.7501950014745686  1.0000
