data_image0
_chemical_formula_structural       Cr2GaCl6
_chemical_formula_sum              "Cr2 Ga1 Cl6"
_cell_length_a       6.637378132970981
_cell_length_b       6.637378033643246
_cell_length_c       6.637378080161292
_cell_angle_alpha    59.99999951263825
_cell_angle_beta     59.999998997461745
_cell_angle_gamma    59.99999891860794

_space_group_name_H-M_alt    "P 1"
_space_group_IT_number       1

loop_
  _space_group_symop_operation_xyz
  'x, y, z'

loop_
  _atom_site_type_symbol
  _atom_site_label
  _atom_site_symmetry_multiplicity
  _atom_site_fract_x
  _atom_site_fract_y
  _atom_site_fract_z
  _atom_site_occupancy
  Cr  Cr1       1.0  0.24999988421218927  0.24999996150660983  0.25000003206889626  1.0000
  Cr  Cr2       1.0  0.7500000850272891  0.7500000173759512  0.74999997027164  1.0000
  Ga  Ga1       1.0  2.057784095457775e-08  0.9999999852382084  2.5717736326419156e-08  1.0000
  Cl  Cl1       1.0  0.24980486532997645  0.24980491859035425  0.7501951413024109  1.0000
  Cl  Cl2       1.0  0.7501951215868173  0.750195106422805  0.2498048442003583  1.0000
  Cl  Cl3       1.0  0.750195136479139  0.2498048695877552  0.24980489870058412  1.0000
  Cl  Cl4       1.0  0.24980487287882633  0.7501951037591338  0.7501951089478291  1.0000
  Cl  Cl5       1.0  0.24980480965315832  0.7501951507911094  0.24980492533221413  1.0000
  Cl  Cl6       1.0  0.750195197419356  0.24980488160294562  0.7501950554419609  1.0000
