data_image0
_chemical_formula_structural       Cr2GeI6
_chemical_formula_sum              "Cr2 Ge1 I6"
_cell_length_a       7.753030367233971
_cell_length_b       7.753030261587822
_cell_length_c       7.7530303272666155
_cell_angle_alpha    60.000000196131204
_cell_angle_beta     59.999999940364255
_cell_angle_gamma    59.999999750928076

_space_group_name_H-M_alt    "P 1"
_space_group_IT_number       1

loop_
  _space_group_symop_operation_xyz
  'x, y, z'

loop_
  _atom_site_type_symbol
  _atom_site_label
  _atom_site_symmetry_multiplicity
  _atom_site_fract_x
  _atom_site_fract_y
  _atom_site_fract_z
  _atom_site_occupancy
  Cr  Cr1       1.0  0.24999998896596298  0.2500000272437836  0.24999997899347418  1.0000
  Cr  Cr2       1.0  0.7500000365232999  0.7499999711524703  0.7499999922822496  1.0000
  Ge  Ge1       1.0  1.7707057649429987e-08  0.9999999826233187  6.283902958474426e-09  1.0000
  I   I1        1.0  0.2603915938928743  0.26039164278435284  0.7396083850780756  1.0000
  I   I2        1.0  0.7396083788365936  0.7396083887855653  0.26039161275835093  1.0000
  I   I3        1.0  0.7396084125726696  0.2603916090806125  0.26039161005483996  1.0000
  I   I4        1.0  0.26039158558165837  0.7396083908953398  0.7396083857068663  1.0000
  I   I5        1.0  0.26039160066260575  0.7396083847313086  0.2603916346127886  1.0000
  I   I6        1.0  0.7396083869010573  0.2603915978679623  0.7396083906104096  1.0000
