data_image0
_chemical_formula_structural       Cr2GeF6
_chemical_formula_sum              "Cr2 Ge1 F6"
_cell_length_a       5.5718716573709415
_cell_length_b       5.571872119464147
_cell_length_c       5.571872076470486
_cell_angle_alpha    60.00000060790779
_cell_angle_beta     59.99999844641684
_cell_angle_gamma    60.00000118596376

_space_group_name_H-M_alt    "P 1"
_space_group_IT_number       1

loop_
  _space_group_symop_operation_xyz
  'x, y, z'

loop_
  _atom_site_type_symbol
  _atom_site_label
  _atom_site_symmetry_multiplicity
  _atom_site_fract_x
  _atom_site_fract_y
  _atom_site_fract_z
  _atom_site_occupancy
  Cr  Cr1       1.0  0.24999989051614777  0.2500001260592416  0.24999986344588448  1.0000
  Cr  Cr2       1.0  0.7500000979227253  0.7499998264583905  0.7499998647881945  1.0000
  Ge  Ge1       1.0  7.535236818142523e-09  3.956552987532187e-08  1.772838216107089e-08  1.0000
  F   F1        1.0  0.23287428549206834  0.2328743647753416  0.7671256903283117  1.0000
  F   F2        1.0  0.7671256942586114  0.7671256448925003  0.23287441569403908  1.0000
  F   F3        1.0  0.7671257586422782  0.23287429731063305  0.23287434307958504  1.0000
  F   F4        1.0  0.23287434756638917  0.7671256376223189  0.7671256706762474  1.0000
  F   F5        1.0  0.23287432723157367  0.7671256835329835  0.23287435794002104  1.0000
  F   F6        1.0  0.7671256065281657  0.2328743832850685  0.7671257442974238  1.0000
