data_image0
_chemical_formula_structural       Cr2GaF6
_chemical_formula_sum              "Cr2 Ga1 F6"
_cell_length_a       5.481096156937022
_cell_length_b       5.481096529807234
_cell_length_c       5.4810962772332585
_cell_angle_alpha    59.999998997767996
_cell_angle_beta     60.000000350885216
_cell_angle_gamma    60.00000045074266

_space_group_name_H-M_alt    "P 1"
_space_group_IT_number       1

loop_
  _space_group_symop_operation_xyz
  'x, y, z'

loop_
  _atom_site_type_symbol
  _atom_site_label
  _atom_site_symmetry_multiplicity
  _atom_site_fract_x
  _atom_site_fract_y
  _atom_site_fract_z
  _atom_site_occupancy
  Cr  Cr1       1.0  0.2500000356914582  0.2500000993130238  0.24999979682613202  1.0000
  Cr  Cr2       1.0  0.749999814908236  0.7500000052210235  0.7500001955916549  1.0000
  Ga  Ga1       1.0  2.0216267345255734e-08  0.9999999709516446  3.5431737832513315e-08  1.0000
  F   F1        1.0  0.24383987566421622  0.24383961748377225  0.7561602731527302  1.0000
  F   F2        1.0  0.7561601174059085  0.7561603440429926  0.24383970493786633  1.0000
  F   F3        1.0  0.7561602819832642  0.24383981668285862  0.24383976700918392  1.0000
  F   F4        1.0  0.24383981903954705  0.7561601180300372  0.7561602672079896  1.0000
  F   F5        1.0  0.2438398525798649  0.7561602219337342  0.24383975601101993  1.0000
  F   F6        1.0  0.7561601853040718  0.2438398200346252  0.7561602123609955  1.0000
