data_image0
_chemical_formula_structural       Cr2HfCl6
_chemical_formula_sum              "Cr2 Hf1 Cl6"
_cell_length_a       6.93682959052084
_cell_length_b       6.936829293908551
_cell_length_c       6.936829629478356
_cell_angle_alpha    59.99999929587806
_cell_angle_beta     59.99999980448997
_cell_angle_gamma    59.99999822694695

_space_group_name_H-M_alt    "P 1"
_space_group_IT_number       1

loop_
  _space_group_symop_operation_xyz
  'x, y, z'

loop_
  _atom_site_type_symbol
  _atom_site_label
  _atom_site_symmetry_multiplicity
  _atom_site_fract_x
  _atom_site_fract_y
  _atom_site_fract_z
  _atom_site_occupancy
  Cr  Cr1       1.0  0.2500000592686278  0.2500001306284788  0.24999989595189617  1.0000
  Cr  Cr2       1.0  0.7500001363672614  0.7499999169474467  0.7499998436917586  1.0000
  Hf  Hf1       1.0  0.9999999993105025  7.0622743336715155e-09  0.9999999377088012  1.0000
  Cl  Cl1       1.0  0.24878915035169102  0.24878923807583855  0.7512107729300905  1.0000
  Cl  Cl2       1.0  0.751210816934862  0.7512106505989048  0.24878935495222246  1.0000
  Cl  Cl3       1.0  0.7512107828662855  0.24878916630891704  0.248789240190203  1.0000
  Cl  Cl4       1.0  0.24878912617382318  0.7512108671424629  0.7512108401022723  1.0000
  Cl  Cl5       1.0  0.2487891191027053  0.7512108885036365  0.248789228829988  1.0000
  Cl  Cl6       1.0  0.7512108095259588  0.24878913611989986  0.7512108777969081  1.0000
