data_image0
_chemical_formula_structural       Cr2HfF6
_chemical_formula_sum              "Cr2 Hf1 F6"
_cell_length_a       6.072357086373517
_cell_length_b       6.072354859695092
_cell_length_c       6.072356016825132
_cell_angle_alpha    60.000000284290465
_cell_angle_beta     60.00000117743204
_cell_angle_gamma    60.000002531217326

_space_group_name_H-M_alt    "P 1"
_space_group_IT_number       1

loop_
  _space_group_symop_operation_xyz
  'x, y, z'

loop_
  _atom_site_type_symbol
  _atom_site_label
  _atom_site_symmetry_multiplicity
  _atom_site_fract_x
  _atom_site_fract_y
  _atom_site_fract_z
  _atom_site_occupancy
  Cr  Cr1       1.0  0.2499999904242544  0.24999998092461828  0.24999999190125058  1.0000
  Cr  Cr2       1.0  0.7499999443013429  0.7500001606011247  0.7499999132119839  1.0000
  Hf  Hf1       1.0  0.9999999683456355  0.9999999979830788  2.671648744041316e-08  1.0000
  F   F1        1.0  0.23476090004029773  0.23476087019104133  0.7652391336683254  1.0000
  F   F2        1.0  0.7652391095221865  0.7652390696428021  0.23476093862126043  1.0000
  F   F3        1.0  0.7652391515128133  0.23476084294276453  0.2347610041606142  1.0000
  F   F4        1.0  0.23476085199891386  0.7652391150433522  0.7652390785462871  1.0000
  F   F5        1.0  0.2347608258953398  0.7652391366993243  0.23476094163024924  1.0000
  F   F6        1.0  0.7652392226772934  0.2347608515405801  0.7652390606023162  1.0000
