data_image0
_chemical_formula_structural       Cr2HfBr6
_chemical_formula_sum              "Cr2 Hf1 Br6"
_cell_length_a       7.34818591518092
_cell_length_b       7.348185782688776
_cell_length_c       7.348186192767859
_cell_angle_alpha    59.999997394726144
_cell_angle_beta     59.999998790612935
_cell_angle_gamma    59.99999991021134

_space_group_name_H-M_alt    "P 1"
_space_group_IT_number       1

loop_
  _space_group_symop_operation_xyz
  'x, y, z'

loop_
  _atom_site_type_symbol
  _atom_site_label
  _atom_site_symmetry_multiplicity
  _atom_site_fract_x
  _atom_site_fract_y
  _atom_site_fract_z
  _atom_site_occupancy
  Cr  Cr1       1.0  0.24999997882783315  0.2500000194403885  0.2500000176910548  1.0000
  Cr  Cr2       1.0  0.7499999808016261  0.7499999866517333  0.7500001143796196  1.0000
  Hf  Hf1       1.0  0.9999999953021274  0.9999999716655734  0.999999967524468  1.0000
  Br  Br1       1.0  0.24975135889412825  0.24975132879137485  0.7502486448973882  1.0000
  Br  Br2       1.0  0.7502486743055877  0.7502486923013286  0.24975129455194145  1.0000
  Br  Br3       1.0  0.7502486653483216  0.24975135903431223  0.24975131236944403  1.0000
  Br  Br4       1.0  0.24975135464557804  0.7502486403908879  0.7502486676515063  1.0000
  Br  Br5       1.0  0.2497513335525821  0.7502486747756613  0.24975132281627388  1.0000
  Br  Br6       1.0  0.7502486713781263  0.24975131798261468  0.7502486558218137  1.0000
