data_image0
_chemical_formula_structural       Cr2HfI6
_chemical_formula_sum              "Cr2 Hf1 I6"
_cell_length_a       8.085469789638632
_cell_length_b       8.085469603324357
_cell_length_c       8.08546940354757
_cell_angle_alpha    60.00000067043441
_cell_angle_beta     60.00000150842748
_cell_angle_gamma    59.99999850167177

_space_group_name_H-M_alt    "P 1"
_space_group_IT_number       1

loop_
  _space_group_symop_operation_xyz
  'x, y, z'

loop_
  _atom_site_type_symbol
  _atom_site_label
  _atom_site_symmetry_multiplicity
  _atom_site_fract_x
  _atom_site_fract_y
  _atom_site_fract_z
  _atom_site_occupancy
  Cr  Cr1       1.0  0.25000003606164867  0.2499999527258144  0.2500000000277189  1.0000
  Cr  Cr2       1.0  0.7500000208939306  0.7500000172259828  0.7500000198597904  1.0000
  Hf  Hf1       1.0  5.063257927229083e-08  4.089819458890137e-08  0.9999998998160038  1.0000
  I   I1        1.0  0.24749542246344383  0.24749538748232386  0.7525045818125955  1.0000
  I   I2        1.0  0.7525044953459658  0.7525044900698493  0.2474954709831103  1.0000
  I   I3        1.0  0.7525046001549972  0.24749543564113147  0.24749541036413703  1.0000
  I   I4        1.0  0.24749535466656838  0.7525046479167662  0.752504652022005  1.0000
  I   I5        1.0  0.24749538100471438  0.7525046471072139  0.24749534218357125  1.0000
  I   I6        1.0  0.7525046448341957  0.24749538191975523  0.7525045969382115  1.0000
