data_image0
_chemical_formula_structural       Cr2IrI6
_chemical_formula_sum              "Cr2 Ir1 I6"
_cell_length_a       7.563537471352037
_cell_length_b       7.5635374028306455
_cell_length_c       7.563537533681155
_cell_angle_alpha    60.000000198730504
_cell_angle_beta     59.99999954170574
_cell_angle_gamma    59.999999596823166

_space_group_name_H-M_alt    "P 1"
_space_group_IT_number       1

loop_
  _space_group_symop_operation_xyz
  'x, y, z'

loop_
  _atom_site_type_symbol
  _atom_site_label
  _atom_site_symmetry_multiplicity
  _atom_site_fract_x
  _atom_site_fract_y
  _atom_site_fract_z
  _atom_site_occupancy
  Cr  Cr1       1.0  0.2499999748197764  0.24999998478329166  0.25000003890980205  1.0000
  Cr  Cr2       1.0  0.7499999896270952  0.7500000061666815  0.7500000066739462  1.0000
  Ir  Ir1       1.0  2.6831756168653276e-08  3.400477969956192e-08  0.9999999828030588  1.0000
  I   I1        1.0  0.2489404120645394  0.24894040057349728  0.7510595995840216  1.0000
  I   I2        1.0  0.7510595932636966  0.7510595547524205  0.24894040370709228  1.0000
  I   I3        1.0  0.7510596035557111  0.2489403917722973  0.24894038608819002  1.0000
  I   I4        1.0  0.24894038557977224  0.7510596121318773  0.7510596181978966  1.0000
  I   I5        1.0  0.24894040308852394  0.7510596219642902  0.24894037485627157  1.0000
  I   I6        1.0  0.7510596128019971  0.24894039327481074  0.7510595905528431  1.0000
