data_image0
_chemical_formula_structural       Cr2IrCl6
_chemical_formula_sum              "Cr2 Ir1 Cl6"
_cell_length_a       6.731713423704901
_cell_length_b       6.731713452750992
_cell_length_c       6.731713462834319
_cell_angle_alpha    59.99999969113385
_cell_angle_beta     60.000000978201214
_cell_angle_gamma    59.99999946660002

_space_group_name_H-M_alt    "P 1"
_space_group_IT_number       1

loop_
  _space_group_symop_operation_xyz
  'x, y, z'

loop_
  _atom_site_type_symbol
  _atom_site_label
  _atom_site_symmetry_multiplicity
  _atom_site_fract_x
  _atom_site_fract_y
  _atom_site_fract_z
  _atom_site_occupancy
  Cr  Cr1       1.0  0.25000009948484064  0.2499998443842543  0.25000006968512717  1.0000
  Cr  Cr2       1.0  0.749999952005364  0.7499999807167376  0.7499999490416388  1.0000
  Ir  Ir1       1.0  0.9999999776830599  3.0929217398358144e-08  2.986049653200548e-08  1.0000
  Cl  Cl1       1.0  0.2449936482959209  0.24499353025147128  0.7550063718836652  1.0000
  Cl  Cl2       1.0  0.7550063595116528  0.7550064567730712  0.244993626345793  1.0000
  Cl  Cl3       1.0  0.7550064485567165  0.24499358862179846  0.2449935598533423  1.0000
  Cl  Cl4       1.0  0.24499360138750678  0.7550064675386414  0.7550063931383842  1.0000
  Cl  Cl5       1.0  0.24499354286911218  0.7550064603774865  0.24499358913431835  1.0000
  Cl  Cl6       1.0  0.75500637102716  0.24499365400265807  0.7550063938584946  1.0000
