data_image0
_chemical_formula_structural       Cr2IrBr6
_chemical_formula_sum              "Cr2 Ir1 Br6"
_cell_length_a       7.07729253428346
_cell_length_b       7.0772924856757635
_cell_length_c       7.077292435580752
_cell_angle_alpha    59.99999996413119
_cell_angle_beta     59.999999694950404
_cell_angle_gamma    59.999999548855094

_space_group_name_H-M_alt    "P 1"
_space_group_IT_number       1

loop_
  _space_group_symop_operation_xyz
  'x, y, z'

loop_
  _atom_site_type_symbol
  _atom_site_label
  _atom_site_symmetry_multiplicity
  _atom_site_fract_x
  _atom_site_fract_y
  _atom_site_fract_z
  _atom_site_occupancy
  Cr  Cr1       1.0  0.25000002705996927  0.2499999841945039  0.24999998707493293  1.0000
  Cr  Cr2       1.0  0.7499999753096699  0.7499999716193139  0.7499999890993501  1.0000
  Ir  Ir1       1.0  0.9999999973957185  2.2496856527099746e-08  0.9999999801629244  1.0000
  Br  Br1       1.0  0.2467283876127112  0.24672840645136598  0.7532716115506368  1.0000
  Br  Br2       1.0  0.7532716116577931  0.7532715978172195  0.24672842389807437  1.0000
  Br  Br3       1.0  0.753271590727772  0.24672840841083798  0.24672839037111918  1.0000
  Br  Br4       1.0  0.24672843369189906  0.7532715889356377  0.7532716020527894  1.0000
  Br  Br5       1.0  0.2467283939027804  0.753271597671837  0.24672840029225263  1.0000
  Br  Br6       1.0  0.7532715859700015  0.24672842563255015  0.7532716113169331  1.0000
