data_image0
_chemical_formula_structural       Cr2IrBr6
_chemical_formula_sum              "Cr2 Ir1 Br6"
_cell_length_a       7.077387556980514
_cell_length_b       7.0773875268520205
_cell_length_c       7.077387464983937
_cell_angle_alpha    60.00000045371108
_cell_angle_beta     59.99999982774238
_cell_angle_gamma    59.99999871293954

_space_group_name_H-M_alt    "P 1"
_space_group_IT_number       1

loop_
  _space_group_symop_operation_xyz
  'x, y, z'

loop_
  _atom_site_type_symbol
  _atom_site_label
  _atom_site_symmetry_multiplicity
  _atom_site_fract_x
  _atom_site_fract_y
  _atom_site_fract_z
  _atom_site_occupancy
  Cr  Cr1       1.0  0.24999995274885978  0.2500000034867853  0.2500000814599585  1.0000
  Cr  Cr2       1.0  0.7500000011118946  0.7500000762195119  0.7499999422545331  1.0000
  Ir  Ir1       1.0  7.498851894354632e-09  0.9999999775034455  0.9999999976081959  1.0000
  Br  Br1       1.0  0.2467256939205508  0.24672565980791875  0.7532742947693273  1.0000
  Br  Br2       1.0  0.7532743084593311  0.7532743281816556  0.2467256714187189  1.0000
  Br  Br3       1.0  0.7532743151018036  0.2467257060109748  0.24672565962257625  1.0000
  Br  Br4       1.0  0.24672565047660333  0.7532743581207846  0.7532743603685548  1.0000
  Br  Br5       1.0  0.24672567771915443  0.753274266036944  0.24672567439030668  1.0000
  Br  Br6       1.0  0.7532743878636692  0.24672563023590777  0.753274315945285  1.0000
