data_image0
_chemical_formula_structural       Cr2IrCl6
_chemical_formula_sum              "Cr2 Ir1 Cl6"
_cell_length_a       6.731855477841979
_cell_length_b       6.731855311511689
_cell_length_c       6.731855410849521
_cell_angle_alpha    59.99999949701848
_cell_angle_beta     59.999999223495244
_cell_angle_gamma    59.99999956164804

_space_group_name_H-M_alt    "P 1"
_space_group_IT_number       1

loop_
  _space_group_symop_operation_xyz
  'x, y, z'

loop_
  _atom_site_type_symbol
  _atom_site_label
  _atom_site_symmetry_multiplicity
  _atom_site_fract_x
  _atom_site_fract_y
  _atom_site_fract_z
  _atom_site_occupancy
  Cr  Cr1       1.0  0.2500001159606646  0.25000003895462625  0.249999938930561  1.0000
  Cr  Cr2       1.0  0.7499999889399988  0.750000020439525  0.7499999300933189  1.0000
  Ir  Ir1       1.0  0.9999999747732193  3.6386546555817125e-09  1.8812158169402898e-09  1.0000
  Cl  Cl1       1.0  0.2449889112886845  0.24498894741753194  0.755011035765566  1.0000
  Cl  Cl2       1.0  0.755011037539507  0.7550110810480531  0.24498897429402025  1.0000
  Cl  Cl3       1.0  0.7550110865236271  0.24498894296765997  0.24498896247750715  1.0000
  Cl  Cl4       1.0  0.24498897747201073  0.75501101272483  0.7550110828329362  1.0000
  Cl  Cl5       1.0  0.24498891723470853  0.755011025234319  0.24498898196931207  1.0000
  Cl  Cl6       1.0  0.7550109966309821  0.24498891772287845  0.7550111106078374  1.0000
