data_image0
_chemical_formula_structural       Cr2MoF6
_chemical_formula_sum              "Cr2 Mo1 F6"
_cell_length_a       5.742923385246435
_cell_length_b       5.742922239794777
_cell_length_c       5.742923599514168
_cell_angle_alpha    60.00000497336889
_cell_angle_beta     60.000002994351036
_cell_angle_gamma    60.00000161859987

_space_group_name_H-M_alt    "P 1"
_space_group_IT_number       1

loop_
  _space_group_symop_operation_xyz
  'x, y, z'

loop_
  _atom_site_type_symbol
  _atom_site_label
  _atom_site_symmetry_multiplicity
  _atom_site_fract_x
  _atom_site_fract_y
  _atom_site_fract_z
  _atom_site_occupancy
  Cr  Cr1       1.0  0.250000146326376  0.24999989213743568  0.24999991374145017  1.0000
  Cr  Cr2       1.0  0.7499999574928651  0.7500000773440983  0.7499996247870054  1.0000
  Mo  Mo1       1.0  0.9999999087261979  1.4715050986944902e-07  0.999999992956938  1.0000
  F   F1        1.0  0.24997341988791355  0.24997323718372919  0.7500266706447909  1.0000
  F   F2        1.0  0.7500268273181893  0.7500266640541633  0.24997337010680104  1.0000
  F   F3        1.0  0.7500265722787495  0.2499732286300445  0.2499735393710373  1.0000
  F   F4        1.0  0.24997330033674836  0.7500267045970963  0.7500267928290875  1.0000
  F   F5        1.0  0.2499732446691251  0.7500267594230053  0.24997324905114324  1.0000
  F   F6        1.0  0.7500265923399905  0.2499733891983252  0.7500267372879101  1.0000
