data_image0
_chemical_formula_structural       Cr2MnCl6
_chemical_formula_sum              "Cr2 Mn1 Cl6"
_cell_length_a       6.591837159104178
_cell_length_b       6.591837082818823
_cell_length_c       6.591837164474944
_cell_angle_alpha    59.99999956011678
_cell_angle_beta     60.00000035284507
_cell_angle_gamma    59.99999853545945

_space_group_name_H-M_alt    "P 1"
_space_group_IT_number       1

loop_
  _space_group_symop_operation_xyz
  'x, y, z'

loop_
  _atom_site_type_symbol
  _atom_site_label
  _atom_site_symmetry_multiplicity
  _atom_site_fract_x
  _atom_site_fract_y
  _atom_site_fract_z
  _atom_site_occupancy
  Cr  Cr1       1.0  0.24999998912698118  0.2500000005810043  0.25000002973971286  1.0000
  Cr  Cr2       1.0  0.7500001514170437  0.749999996169095  0.7499997587806335  1.0000
  Mn  Mn1       1.0  5.246335581797001e-08  0.9999999739883911  0.9999999685697936  1.0000
  Cl  Cl1       1.0  0.24477133079136826  0.24477144540027415  0.7552285633273028  1.0000
  Cl  Cl2       1.0  0.7552286398365177  0.7552285513498271  0.24477145578577694  1.0000
  Cl  Cl3       1.0  0.7552285427872907  0.24477141154935467  0.24477150025535  1.0000
  Cl  Cl4       1.0  0.24477139995278277  0.7552287003950119  0.7552286496626962  1.0000
  Cl  Cl5       1.0  0.24477133737979526  0.7552285879655406  0.24477135539878916  1.0000
  Cl  Cl6       1.0  0.7552285568285159  0.24477134375554094  0.7552287116831713  1.0000
