data_image0
_chemical_formula_structural       Cr2MoBr6
_chemical_formula_sum              "Cr2 Mo1 Br6"
_cell_length_a       7.155877426311627
_cell_length_b       7.155877391683231
_cell_length_c       7.155877364833844
_cell_angle_alpha    59.99999958972017
_cell_angle_beta     59.99999902664508
_cell_angle_gamma    60.000000247646646

_space_group_name_H-M_alt    "P 1"
_space_group_IT_number       1

loop_
  _space_group_symop_operation_xyz
  'x, y, z'

loop_
  _atom_site_type_symbol
  _atom_site_label
  _atom_site_symmetry_multiplicity
  _atom_site_fract_x
  _atom_site_fract_y
  _atom_site_fract_z
  _atom_site_occupancy
  Cr  Cr1       1.0  0.2500000110367142  0.24999999722421215  0.2500000396595141  1.0000
  Cr  Cr2       1.0  0.7499999984574429  0.7500000036532973  0.750000004543821  1.0000
  Mo  Mo1       1.0  3.878876253334435e-09  2.2249799036230904e-08  0.9999999687687774  1.0000
  Br  Br1       1.0  0.25129232022878495  0.2512923282325691  0.7487076395492429  1.0000
  Br  Br2       1.0  0.7487076942041747  0.7487076675103717  0.2512923223022672  1.0000
  Br  Br3       1.0  0.7487075999090941  0.2512923410342911  0.2512923683599848  1.0000
  Br  Br4       1.0  0.2512923250074257  0.7487076666893098  0.7487076685931855  1.0000
  Br  Br5       1.0  0.2512923845567323  0.7487076279739531  0.2512923073357686  1.0000
  Br  Br6       1.0  0.748707659981661  0.25129234038461973  0.7487076838991673  1.0000
