data_image0
_chemical_formula_structural       Cr2MoI6
_chemical_formula_sum              "Cr2 Mo1 I6"
_cell_length_a       7.757284219326292
_cell_length_b       7.757284234569751
_cell_length_c       7.757284006159594
_cell_angle_alpha    60.000000798134046
_cell_angle_beta     60.00000063905302
_cell_angle_gamma    59.99999898603085

_space_group_name_H-M_alt    "P 1"
_space_group_IT_number       1

loop_
  _space_group_symop_operation_xyz
  'x, y, z'

loop_
  _atom_site_type_symbol
  _atom_site_label
  _atom_site_symmetry_multiplicity
  _atom_site_fract_x
  _atom_site_fract_y
  _atom_site_fract_z
  _atom_site_occupancy
  Cr  Cr1       1.0  0.25000000512983434  0.24999994177253956  0.25000006398274716  1.0000
  Cr  Cr2       1.0  0.7499999920965263  0.7499999800431565  0.7500000411506359  1.0000
  Mo  Mo1       1.0  7.361420003127632e-08  4.2628462982110864e-08  1.1490661294728096e-08  1.0000
  I   I1        1.0  0.25213485554625825  0.2521348631570932  0.7478651609196021  1.0000
  I   I2        1.0  0.747865049720997  0.7478650933929086  0.2521349096597429  1.0000
  I   I3        1.0  0.7478652156927506  0.252134794680767  0.2521347988156466  1.0000
  I   I4        1.0  0.2521348719577011  0.747865172921056  0.7478651247708608  1.0000
  I   I5        1.0  0.2521347893202975  0.7478652239264041  0.2521347912859604  1.0000
  I   I6        1.0  0.7478651442265023  0.2521348889279667  0.7478651032092136  1.0000
