data_image0
_chemical_formula_structural       Cr2MnF6
_chemical_formula_sum              "Cr2 Mn1 F6"
_cell_length_a       5.425625599766911
_cell_length_b       5.425625482299935
_cell_length_c       5.425625636327329
_cell_angle_alpha    59.99999988085251
_cell_angle_beta     59.99999943935496
_cell_angle_gamma    59.99999913395947

_space_group_name_H-M_alt    "P 1"
_space_group_IT_number       1

loop_
  _space_group_symop_operation_xyz
  'x, y, z'

loop_
  _atom_site_type_symbol
  _atom_site_label
  _atom_site_symmetry_multiplicity
  _atom_site_fract_x
  _atom_site_fract_y
  _atom_site_fract_z
  _atom_site_occupancy
  Cr  Cr1       1.0  0.2500001282852757  0.2499997788338287  0.2499998854966994  1.0000
  Cr  Cr2       1.0  0.7500001583921294  0.7499999775843416  0.7499998104291857  1.0000
  Mn  Mn1       1.0  2.88289450925874e-08  0.9999999390519829  6.950959261444467e-08  1.0000
  F   F1        1.0  0.24598495718168178  0.2459853481552117  0.7540149392170753  1.0000
  F   F2        1.0  0.7540149015433135  0.7540147152603867  0.24598529086439588  1.0000
  F   F3        1.0  0.75401474663597  0.24598528924980442  0.24598504057802933  1.0000
  F   F4        1.0  0.24598524087855947  0.7540148283418062  0.75401483998591  1.0000
  F   F5        1.0  0.24598504195340237  0.7540150599913008  0.2459852626557613  1.0000
  F   F6        1.0  0.7540148039578838  0.24598508017365223  0.754014852518144  1.0000
