data_image0
_chemical_formula_structural       Cr2MoBr6
_chemical_formula_sum              "Cr2 Mo1 Br6"
_cell_length_a       7.155946567781025
_cell_length_b       7.1559465178872275
_cell_length_c       7.155946392425069
_cell_angle_alpha    60.00000017107828
_cell_angle_beta     59.99999952112431
_cell_angle_gamma    60.00000121266094

_space_group_name_H-M_alt    "P 1"
_space_group_IT_number       1

loop_
  _space_group_symop_operation_xyz
  'x, y, z'

loop_
  _atom_site_type_symbol
  _atom_site_label
  _atom_site_symmetry_multiplicity
  _atom_site_fract_x
  _atom_site_fract_y
  _atom_site_fract_z
  _atom_site_occupancy
  Cr  Cr1       1.0  0.24999997338670374  0.25000006616000353  0.24999996077776238  1.0000
  Cr  Cr2       1.0  0.7500000351050131  0.7500000375984058  0.7499999444299353  1.0000
  Mo  Mo1       1.0  0.999999997147489  8.55753222158764e-09  2.5096273380159097e-08  1.0000
  Br  Br1       1.0  0.25129075238945037  0.251290745831752  0.7487092571071282  1.0000
  Br  Br2       1.0  0.7487092532526346  0.7487091970450508  0.2512907621072909  1.0000
  Br  Br3       1.0  0.7487092318232943  0.2512907446712062  0.2512907603700485  1.0000
  Br  Br4       1.0  0.2512907887329343  0.7487091776675195  0.7487092882076819  1.0000
  Br  Br5       1.0  0.25129073122759676  0.7487092340291746  0.25129078886343825  1.0000
  Br  Br6       1.0  0.7487092406737736  0.2512907858654182  0.7487092143022002  1.0000
