data_image0
_chemical_formula_structural       Cr2MoCl6
_chemical_formula_sum              "Cr2 Mo1 Cl6"
_cell_length_a       6.817219429747652
_cell_length_b       6.817219254246223
_cell_length_c       6.817219396873112
_cell_angle_alpha    59.999999089153164
_cell_angle_beta     60.00000074500567
_cell_angle_gamma    59.999999713373754

_space_group_name_H-M_alt    "P 1"
_space_group_IT_number       1

loop_
  _space_group_symop_operation_xyz
  'x, y, z'

loop_
  _atom_site_type_symbol
  _atom_site_label
  _atom_site_symmetry_multiplicity
  _atom_site_fract_x
  _atom_site_fract_y
  _atom_site_fract_z
  _atom_site_occupancy
  Cr  Cr1       1.0  0.25000004047079294  0.24999998183847982  0.25000011885245776  1.0000
  Cr  Cr2       1.0  0.750000207984032  0.7499999652774494  0.7499998897321523  1.0000
  Mo  Mo1       1.0  0.9999999502633267  3.2337830152939846e-08  0.9999999925638103  1.0000
  Cl  Cl1       1.0  0.24744678358204275  0.24744686465601942  0.7525531608898255  1.0000
  Cl  Cl2       1.0  0.7525531810834895  0.7525531309666544  0.24744682744992733  1.0000
  Cl  Cl3       1.0  0.752553078277826  0.24744685775550623  0.24744683445075263  1.0000
  Cl  Cl4       1.0  0.24744678891639804  0.7525531863739127  0.7525531607687964  1.0000
  Cl  Cl5       1.0  0.247446742904096  0.7525531833544348  0.24744690374423736  1.0000
  Cl  Cl6       1.0  0.7525532210598411  0.24744681945442357  0.7525530901544629  1.0000
