data_image0
_chemical_formula_structural       Cr2MnI6
_chemical_formula_sum              "Cr2 Mn1 I6"
_cell_length_a       7.578456400538305
_cell_length_b       7.578456290178227
_cell_length_c       7.578456324030839
_cell_angle_alpha    60.000000793823446
_cell_angle_beta     60.000000222068586
_cell_angle_gamma    60.00000111742838

_space_group_name_H-M_alt    "P 1"
_space_group_IT_number       1

loop_
  _space_group_symop_operation_xyz
  'x, y, z'

loop_
  _atom_site_type_symbol
  _atom_site_label
  _atom_site_symmetry_multiplicity
  _atom_site_fract_x
  _atom_site_fract_y
  _atom_site_fract_z
  _atom_site_occupancy
  Cr  Cr1       1.0  0.2500000039041615  0.25000001810935674  0.24999999557304375  1.0000
  Cr  Cr2       1.0  0.7499999757308674  0.7499999702915189  0.7500000335329154  1.0000
  Mn  Mn1       1.0  4.5910565773839266e-08  0.9999999628299877  9.078427021867699e-10  1.0000
  I   I1        1.0  0.24894990059865088  0.24894987381925474  0.751050107222555  1.0000
  I   I2        1.0  0.7510501573742566  0.7510501081172715  0.2489498767099298  1.0000
  I   I3        1.0  0.7510501155999204  0.24894990861655789  0.24894986052147852  1.0000
  I   I4        1.0  0.24894985890956928  0.7510501088738931  0.7510501671587022  1.0000
  I   I5        1.0  0.24894986642671824  0.7510501291595533  0.24894986036069444  1.0000
  I   I6        1.0  0.7510500827033578  0.24894991418829693  0.751050099784467  1.0000
