data_image0
_chemical_formula_structural       Cr2MoCl6
_chemical_formula_sum              "Cr2 Mo1 Cl6"
_cell_length_a       6.81722939005917
_cell_length_b       6.817229243158186
_cell_length_c       6.8172294007908905
_cell_angle_alpha    59.99999851011613
_cell_angle_beta     59.9999989142467
_cell_angle_gamma    59.99999890477454

_space_group_name_H-M_alt    "P 1"
_space_group_IT_number       1

loop_
  _space_group_symop_operation_xyz
  'x, y, z'

loop_
  _atom_site_type_symbol
  _atom_site_label
  _atom_site_symmetry_multiplicity
  _atom_site_fract_x
  _atom_site_fract_y
  _atom_site_fract_z
  _atom_site_occupancy
  Cr  Cr1       1.0  0.24999999396192915  0.24999979037988496  0.250000148454448  1.0000
  Cr  Cr2       1.0  0.7500001000607504  0.7500002209047338  0.7499999144534271  1.0000
  Mo  Mo1       1.0  0.9999999708972055  1.616889139454994e-08  2.9936896811102854e-08  1.0000
  Cl  Cl1       1.0  0.24744660987273318  0.24744650645253047  0.7525534619024514  1.0000
  Cl  Cl2       1.0  0.7525534415144025  0.7525534904597406  0.24744650482528638  1.0000
  Cl  Cl3       1.0  0.7525533753206364  0.24744649603715382  0.24744661791483574  1.0000
  Cl  Cl4       1.0  0.24744653322392685  0.7525534415891817  0.7525533618648632  1.0000
  Cl  Cl5       1.0  0.2474465286382957  0.752553537187802  0.24744656879893917  1.0000
  Cl  Cl6       1.0  0.7525534404191035  0.24744651362077427  0.7525533828080829  1.0000
