data_image0
_chemical_formula_structural       Cr2NCl6
_chemical_formula_sum              "Cr2 N1 Cl6"
_cell_length_a       6.442180615388864
_cell_length_b       6.442180728247658
_cell_length_c       6.442180579226721
_cell_angle_alpha    60.00000008374157
_cell_angle_beta     60.00000006239328
_cell_angle_gamma    59.99999993223745

_space_group_name_H-M_alt    "P 1"
_space_group_IT_number       1

loop_
  _space_group_symop_operation_xyz
  'x, y, z'

loop_
  _atom_site_type_symbol
  _atom_site_label
  _atom_site_symmetry_multiplicity
  _atom_site_fract_x
  _atom_site_fract_y
  _atom_site_fract_z
  _atom_site_occupancy
  Cr  Cr1       1.0  0.24999998342995036  0.2499998095496384  0.2500001424087442  1.0000
  Cr  Cr2       1.0  0.7499999081664284  0.7500000712322009  0.7500001580416863  1.0000
  N   N1        1.0  3.89554132479733e-09  0.9999998269968075  1.1249467628724436e-07  1.0000
  Cl  Cl1       1.0  0.24376845908576159  0.2437684971214878  0.7562315034588603  1.0000
  Cl  Cl2       1.0  0.7562315733091148  0.7562316764349859  0.24376831942373786  1.0000
  Cl  Cl3       1.0  0.7562316202995345  0.2437684281600923  0.24376839058662528  1.0000
  Cl  Cl4       1.0  0.2437684294416579  0.7562316503396816  0.7562315580782537  1.0000
  Cl  Cl5       1.0  0.2437684168164371  0.7562316578620782  0.24376831167238847  1.0000
  Cl  Cl6       1.0  0.7562316047898919  0.24376839212068735  0.7562314914642498  1.0000
