data_image0
_chemical_formula_structural       Cr2NF6
_chemical_formula_sum              "Cr2 N1 F6"
_cell_length_a       4.696294444036426
_cell_length_b       4.6962946718787775
_cell_length_c       4.696294337222574
_cell_angle_alpha    60.00000126360521
_cell_angle_beta     60.0000038933446
_cell_angle_gamma    60.000001536235004

_space_group_name_H-M_alt    "P 1"
_space_group_IT_number       1

loop_
  _space_group_symop_operation_xyz
  'x, y, z'

loop_
  _atom_site_type_symbol
  _atom_site_label
  _atom_site_symmetry_multiplicity
  _atom_site_fract_x
  _atom_site_fract_y
  _atom_site_fract_z
  _atom_site_occupancy
  Cr  Cr1       1.0  0.2500000197067319  0.2499998928189776  0.2500002225067658  1.0000
  Cr  Cr2       1.0  0.7499999511268005  0.7500000983282219  0.7499998238050323  1.0000
  N   N1        1.0  8.692995616685705e-10  0.9999999973921034  2.216268284830108e-08  1.0000
  F   F1        1.0  0.22487477816568624  0.22487467701500702  0.7751252637044421  1.0000
  F   F2        1.0  0.7751253227343747  0.7751252411111028  0.2248746838164721  1.0000
  F   F3        1.0  0.7751252756621202  0.22487473243791414  0.2248747063574153  1.0000
  F   F4        1.0  0.22487472090089614  0.7751252847882475  0.7751252650753763  1.0000
  F   F5        1.0  0.22487471944999  0.7751252590225987  0.2248747589242214  1.0000
  F   F6        1.0  0.7751252619386851  0.22487473734039332  0.7751252688554173  1.0000
