data_image0
_chemical_formula_structural       Cr2NbCl6
_chemical_formula_sum              "Cr2 Nb1 Cl6"
_cell_length_a       6.95292943307591
_cell_length_b       6.952929154895518
_cell_length_c       6.952929474515103
_cell_angle_alpha    60.00000037582215
_cell_angle_beta     60.000000404960915
_cell_angle_gamma    60.00000077012185

_space_group_name_H-M_alt    "P 1"
_space_group_IT_number       1

loop_
  _space_group_symop_operation_xyz
  'x, y, z'

loop_
  _atom_site_type_symbol
  _atom_site_label
  _atom_site_symmetry_multiplicity
  _atom_site_fract_x
  _atom_site_fract_y
  _atom_site_fract_z
  _atom_site_occupancy
  Cr  Cr1       1.0  0.2499999627905015  0.25000008073909513  0.24999983952611807  1.0000
  Cr  Cr2       1.0  0.7499999174964256  0.7500000502159313  0.750000271675905  1.0000
  Nb  Nb1       1.0  3.693923436018328e-08  0.9999999788622355  0.9999999992904784  1.0000
  Cl  Cl1       1.0  0.2446448474964542  0.24464471944069624  0.7553552262546449  1.0000
  Cl  Cl2       1.0  0.7553551870234563  0.7553552776418155  0.24464468204262196  1.0000
  Cl  Cl3       1.0  0.7553552833256384  0.24464476185708176  0.24464477170083307  1.0000
  Cl  Cl4       1.0  0.24464476159624146  0.7553551541973321  0.7553552769012135  1.0000
  Cl  Cl5       1.0  0.24464479689606344  0.7553552183618302  0.24464471543218083  1.0000
  Cl  Cl6       1.0  0.7553552083349788  0.2446447470140333  0.7553552233628439  1.0000
