data_image0
_chemical_formula_structural       Cr2NbF6
_chemical_formula_sum              "Cr2 Nb1 F6"
_cell_length_a       5.498234475336652
_cell_length_b       5.498234969413952
_cell_length_c       5.49823468569851
_cell_angle_alpha    59.99999858819237
_cell_angle_beta     59.9999995213285
_cell_angle_gamma    59.999998532793455

_space_group_name_H-M_alt    "P 1"
_space_group_IT_number       1

loop_
  _space_group_symop_operation_xyz
  'x, y, z'

loop_
  _atom_site_type_symbol
  _atom_site_label
  _atom_site_symmetry_multiplicity
  _atom_site_fract_x
  _atom_site_fract_y
  _atom_site_fract_z
  _atom_site_occupancy
  Cr  Cr1       1.0  0.2499999544762445  0.2500000126615467  0.2499999605818008  1.0000
  Cr  Cr2       1.0  0.7500000686919054  0.7499999199258714  0.7499999927382792  1.0000
  Nb  Nb1       1.0  0.9999999808440443  1.3365142918084135e-08  1.0766404036019698e-09  1.0000
  F   F1        1.0  0.2557601901594807  0.25576024943408415  0.7442398128537044  1.0000
  F   F2        1.0  0.744239767245823  0.7442397544340897  0.255760274114837  1.0000
  F   F3        1.0  0.7442398164754027  0.255760269066401  0.25576016731988643  1.0000
  F   F4        1.0  0.25576015312663747  0.7442397927173933  0.7442397881978998  1.0000
  F   F5        1.0  0.25576023442052404  0.7442398270328651  0.25576022860222064  1.0000
  F   F6        1.0  0.7442397726235281  0.25576021693073364  0.7442398425994832  1.0000
