data_image0
_chemical_formula_structural       Cr2NCl6
_chemical_formula_sum              "Cr2 N1 Cl6"
_cell_length_a       6.442155080671116
_cell_length_b       6.442154934795203
_cell_length_c       6.4421550377842305
_cell_angle_alpha    59.99999992005707
_cell_angle_beta     60.00000065118676
_cell_angle_gamma    60.00000033359207

_space_group_name_H-M_alt    "P 1"
_space_group_IT_number       1

loop_
  _space_group_symop_operation_xyz
  'x, y, z'

loop_
  _atom_site_type_symbol
  _atom_site_label
  _atom_site_symmetry_multiplicity
  _atom_site_fract_x
  _atom_site_fract_y
  _atom_site_fract_z
  _atom_site_occupancy
  Cr  Cr1       1.0  0.2500001063301783  0.2500000003673329  0.24999990502189015  1.0000
  Cr  Cr2       1.0  0.7500001142050374  0.7499998680220848  0.7499997877572886  1.0000
  N   N1        1.0  2.406247107032273e-08  0.9999999600760261  0.999999877539602  1.0000
  Cl  Cl1       1.0  0.24376352402325788  0.24376356368758995  0.7562364720799227  1.0000
  Cl  Cl2       1.0  0.7562364326977992  0.75623651002512  0.24376362093855442  1.0000
  Cl  Cl3       1.0  0.756236390063183  0.24376359883589185  0.24376359911388143  1.0000
  Cl  Cl4       1.0  0.24376350995301313  0.756236440656269  0.7562365642037099  1.0000
  Cl  Cl5       1.0  0.24376350505994387  0.7562364217727062  0.24376364418700255  1.0000
  Cl  Cl6       1.0  0.7562364125542024  0.2437636348297293  0.756236521956059  1.0000
