data_image0
_chemical_formula_structural       Cr2NO6
_chemical_formula_sum              "Cr2 N1 O6"
_cell_length_a       4.848745167237748
_cell_length_b       4.848745486037034
_cell_length_c       4.848746197461252
_cell_angle_alpha    60.00000809784162
_cell_angle_beta     60.000003610253685
_cell_angle_gamma    60.000001208159276

_space_group_name_H-M_alt    "P 1"
_space_group_IT_number       1

loop_
  _space_group_symop_operation_xyz
  'x, y, z'

loop_
  _atom_site_type_symbol
  _atom_site_label
  _atom_site_symmetry_multiplicity
  _atom_site_fract_x
  _atom_site_fract_y
  _atom_site_fract_z
  _atom_site_occupancy
  Cr  Cr1       1.0  0.2500002873834839  0.25000479791974806  0.24999218328057238  1.0000
  Cr  Cr2       1.0  0.7499934687241592  0.7500052247431808  0.750000806325285  1.0000
  N   N1        1.0  1.5996993322294841e-06  0.999995993921674  0.9999979858626576  1.0000
  O   O1        1.0  0.23335537294423583  0.23335298812570343  0.7666468020409416  1.0000
  O   O2        1.0  0.7666485160240528  0.766644718247435  0.2333535592530865  1.0000
  O   O3        1.0  0.7666452819834019  0.23335354610423872  0.2333569166068433  1.0000
  O   O4        1.0  0.23335361525478807  0.7666462542409707  0.7666491400246046  1.0000
  O   O5        1.0  0.23335532980374799  0.766644696996694  0.23335445598458723  1.0000
  O   O6        1.0  0.7666465163172533  0.23335177926316003  0.7666481460693695  1.0000
