data_image0
_chemical_formula_structural       Cr2NiBr6
_chemical_formula_sum              "Cr2 Ni1 Br6"
_cell_length_a       6.895870149142871
_cell_length_b       6.895870204960187
_cell_length_c       6.895870333953339
_cell_angle_alpha    59.999999932607615
_cell_angle_beta     59.99999912355452
_cell_angle_gamma    59.99999987064942

_space_group_name_H-M_alt    "P 1"
_space_group_IT_number       1

loop_
  _space_group_symop_operation_xyz
  'x, y, z'

loop_
  _atom_site_type_symbol
  _atom_site_label
  _atom_site_symmetry_multiplicity
  _atom_site_fract_x
  _atom_site_fract_y
  _atom_site_fract_z
  _atom_site_occupancy
  Cr  Cr1       1.0  0.2500000378928999  0.2499999331281932  0.24999993768100534  1.0000
  Cr  Cr2       1.0  0.7499999816441294  0.7500000498084175  0.7500000844810504  1.0000
  Ni  Ni1       1.0  1.8538295690978752e-08  0.9999999644788884  0.9999999838389722  1.0000
  Br  Br1       1.0  0.24587915005641184  0.24587913032419487  0.7541208602797821  1.0000
  Br  Br2       1.0  0.754120870545653  0.7541208845814158  0.24587908010880852  1.0000
  Br  Br3       1.0  0.7541208297591018  0.24587917088993286  0.24587911839054008  1.0000
  Br  Br4       1.0  0.24587908394602942  0.7541208884170677  0.7541209272031297  1.0000
  Br  Br5       1.0  0.2458791690771757  0.7541208639469146  0.24587911008271993  1.0000
  Br  Br6       1.0  0.7541208518470393  0.24587910478125155  0.7541209054386757  1.0000
