data_image0
_chemical_formula_structural       Cr2NbI6
_chemical_formula_sum              "Cr2 Nb1 I6"
_cell_length_a       7.945281979144365
_cell_length_b       7.945282270921821
_cell_length_c       7.945282036564675
_cell_angle_alpha    60.00000051204572
_cell_angle_beta     60.0000005318896
_cell_angle_gamma    60.000000782459566

_space_group_name_H-M_alt    "P 1"
_space_group_IT_number       1

loop_
  _space_group_symop_operation_xyz
  'x, y, z'

loop_
  _atom_site_type_symbol
  _atom_site_label
  _atom_site_symmetry_multiplicity
  _atom_site_fract_x
  _atom_site_fract_y
  _atom_site_fract_z
  _atom_site_occupancy
  Cr  Cr1       1.0  0.2500000267160692  0.24999998820318944  0.24999997445797495  1.0000
  Cr  Cr2       1.0  0.7500000161141466  0.7499999692339908  0.7500000311124745  1.0000
  Nb  Nb1       1.0  0.9999999808424167  1.3873269295842947e-08  0.9999999585908572  1.0000
  I   I1        1.0  0.24756430683206868  0.24756430208809824  0.7524357040988308  1.0000
  I   I2        1.0  0.7524356608362568  0.7524356846370943  0.24756432440855705  1.0000
  I   I3        1.0  0.7524356773922489  0.2475643309262218  0.24756431773711846  1.0000
  I   I4        1.0  0.24756430605598573  0.7524357174579431  0.7524357022574341  1.0000
  I   I5        1.0  0.24756430410634797  0.7524356984604862  0.24756429576434127  1.0000
  I   I6        1.0  0.7524357172465107  0.24756429288912923  0.7524356960369175  1.0000
