data_image0
_chemical_formula_structural       Cr2NbBr6
_chemical_formula_sum              "Cr2 Nb1 Br6"
_cell_length_a       7.298236572202683
_cell_length_b       7.298236549996026
_cell_length_c       7.298236378213746
_cell_angle_alpha    60.00000010414371
_cell_angle_beta     59.99999985414541
_cell_angle_gamma    59.99999870554653

_space_group_name_H-M_alt    "P 1"
_space_group_IT_number       1

loop_
  _space_group_symop_operation_xyz
  'x, y, z'

loop_
  _atom_site_type_symbol
  _atom_site_label
  _atom_site_symmetry_multiplicity
  _atom_site_fract_x
  _atom_site_fract_y
  _atom_site_fract_z
  _atom_site_occupancy
  Cr  Cr1       1.0  0.24999992989428638  0.25000002777425195  0.2500000194471349  1.0000
  Cr  Cr2       1.0  0.7499999614367818  0.750000009484677  0.7500000614508552  1.0000
  Nb  Nb1       1.0  1.6172601074517463e-08  3.6919037728905954e-08  0.9999999912667028  1.0000
  Br  Br1       1.0  0.24728678344572794  0.24728677030623927  0.752713220192452  1.0000
  Br  Br2       1.0  0.7527132489063318  0.7527132283555119  0.24728673413295787  1.0000
  Br  Br3       1.0  0.7527132575604881  0.2472867706846324  0.2472867227829788  1.0000
  Br  Br4       1.0  0.24728673282447802  0.7527132162301526  0.7527132693610138  1.0000
  Br  Br5       1.0  0.2472867863774685  0.7527131946428348  0.24728675869634553  1.0000
  Br  Br6       1.0  0.7527132738311191  0.24728675367477318  0.7527132274257827  1.0000
