data_image0
_chemical_formula_structural       Cr2NF6
_chemical_formula_sum              "Cr2 N1 F6"
_cell_length_a       4.696317485689409
_cell_length_b       4.696318088828139
_cell_length_c       4.696317448780541
_cell_angle_alpha    60.000003626750356
_cell_angle_beta     60.00000360800355
_cell_angle_gamma    60.000004173911734

_space_group_name_H-M_alt    "P 1"
_space_group_IT_number       1

loop_
  _space_group_symop_operation_xyz
  'x, y, z'

loop_
  _atom_site_type_symbol
  _atom_site_label
  _atom_site_symmetry_multiplicity
  _atom_site_fract_x
  _atom_site_fract_y
  _atom_site_fract_z
  _atom_site_occupancy
  Cr  Cr1       1.0  0.25000032386105697  0.24999991599324045  0.2499998539874574  1.0000
  Cr  Cr2       1.0  0.7499996811430271  0.7499998131768  0.750000242722366  1.0000
  N   N1        1.0  2.8013362851772345e-08  7.82364894179481e-08  0.9999999617803697  1.0000
  F   F1        1.0  0.22487392041830512  0.22487395353793624  0.7751260802491787  1.0000
  F   F2        1.0  0.77512606704637  0.7751260937938277  0.22487395771058652  1.0000
  F   F3        1.0  0.7751260658099912  0.22487389229450302  0.2248739721231696  1.0000
  F   F4        1.0  0.22487390327594062  0.7751261732924435  0.7751259998892092  1.0000
  F   F5        1.0  0.2248739617224615  0.775126141419045  0.2248738926623196  1.0000
  F   F6        1.0  0.7751260879051722  0.2248739554624965  0.7751260532425036  1.0000
