data_image0
_chemical_formula_structural       Cr2NiI6
_chemical_formula_sum              "Cr2 Ni1 I6"
_cell_length_a       7.4487690052379545
_cell_length_b       7.448769036624341
_cell_length_c       7.448768992014474
_cell_angle_alpha    60.000000111271305
_cell_angle_beta     59.99999992047136
_cell_angle_gamma    60.000000537156154

_space_group_name_H-M_alt    "P 1"
_space_group_IT_number       1

loop_
  _space_group_symop_operation_xyz
  'x, y, z'

loop_
  _atom_site_type_symbol
  _atom_site_label
  _atom_site_symmetry_multiplicity
  _atom_site_fract_x
  _atom_site_fract_y
  _atom_site_fract_z
  _atom_site_occupancy
  Cr  Cr1       1.0  0.24999996921566323  0.2500000128212625  0.25000002922983616  1.0000
  Cr  Cr2       1.0  0.7499999963383106  0.749999939810317  0.7499999960103161  1.0000
  Ni  Ni1       1.0  4.82250511838531e-09  1.808646970906968e-08  0.9999999898880163  1.0000
  I   I1        1.0  0.25076810321643184  0.25076812358662426  0.7492318912714497  1.0000
  I   I2        1.0  0.7492319031582833  0.7492318833043644  0.25076810925119036  1.0000
  I   I3        1.0  0.7492318821458375  0.2507681573440529  0.2507680949513487  1.0000
  I   I4        1.0  0.2507681233986986  0.749231865989181  0.7492318910527395  1.0000
  I   I5        1.0  0.2507681406144065  0.7492318629310268  0.25076812519979547  1.0000
  I   I6        1.0  0.7492318757035568  0.25076813738306386  0.7492318749821733  1.0000
