data_image0
_chemical_formula_structural       Cr2NiCl6
_chemical_formula_sum              "Cr2 Ni1 Cl6"
_cell_length_a       6.48472676956687
_cell_length_b       6.484726951014527
_cell_length_c       6.484726821926523
_cell_angle_alpha    60.00000093304847
_cell_angle_beta     60.000000464334555
_cell_angle_gamma    60.00000097537671

_space_group_name_H-M_alt    "P 1"
_space_group_IT_number       1

loop_
  _space_group_symop_operation_xyz
  'x, y, z'

loop_
  _atom_site_type_symbol
  _atom_site_label
  _atom_site_symmetry_multiplicity
  _atom_site_fract_x
  _atom_site_fract_y
  _atom_site_fract_z
  _atom_site_occupancy
  Cr  Cr1       1.0  0.25000002529071136  0.24999997673437363  0.2500000254129433  1.0000
  Cr  Cr2       1.0  0.7499998944251671  0.7499999830856189  0.7500002253357385  1.0000
  Ni  Ni1       1.0  0.9999999743148504  3.966187342205682e-08  0.9999999467490879  1.0000
  Cl  Cl1       1.0  0.24608100462536103  0.24608101174905586  0.753918971797389  1.0000
  Cl  Cl2       1.0  0.7539190174329419  0.7539189348503121  0.2460809583571772  1.0000
  Cl  Cl3       1.0  0.7539189944456933  0.24608105491937876  0.24608094729876395  1.0000
  Cl  Cl4       1.0  0.24608104021903524  0.7539190087769488  0.75391894576164  1.0000
  Cl  Cl5       1.0  0.24608107038587648  0.7539189764927603  0.24608096529349335  1.0000
  Cl  Cl6       1.0  0.7539189860077159  0.2460810059911599  0.7539190145658279  1.0000
