data_image0
_chemical_formula_structural       Cr2OsI6
_chemical_formula_sum              "Cr2 Os1 I6"
_cell_length_a       7.624734641582506
_cell_length_b       7.6247346959339515
_cell_length_c       7.624734614772363
_cell_angle_alpha    60.00000067631594
_cell_angle_beta     60.00000090213559
_cell_angle_gamma    60.00000013521817

_space_group_name_H-M_alt    "P 1"
_space_group_IT_number       1

loop_
  _space_group_symop_operation_xyz
  'x, y, z'

loop_
  _atom_site_type_symbol
  _atom_site_label
  _atom_site_symmetry_multiplicity
  _atom_site_fract_x
  _atom_site_fract_y
  _atom_site_fract_z
  _atom_site_occupancy
  Cr  Cr1       1.0  0.25000003664541076  0.24999999882352877  0.24999997814797403  1.0000
  Cr  Cr2       1.0  0.7499999977619662  0.7500000285961601  0.7500000006986887  1.0000
  Os  Os1       1.0  0.999999990546057  1.9275343979571818e-08  0.9999999754164837  1.0000
  I   I1        1.0  0.24854576272934162  0.24854572427832605  0.7514542579553021  1.0000
  I   I2        1.0  0.7514542189648988  0.751454261378118  0.2485457576373826  1.0000
  I   I3        1.0  0.7514542517481377  0.24854574390241962  0.24854572960408353  1.0000
  I   I4        1.0  0.24854573537646835  0.751454248179139  0.7514542905530297  1.0000
  I   I5        1.0  0.2485457380137449  0.7514542510367567  0.24854573114961032  1.0000
  I   I6        1.0  0.7514542624807554  0.24854572819457246  0.7514542795670229  1.0000
