data_image0
_chemical_formula_structural       Cr2OsCl6
_chemical_formula_sum              "Cr2 Os1 Cl6"
_cell_length_a       6.787062911159859
_cell_length_b       6.787062950955211
_cell_length_c       6.787062984170977
_cell_angle_alpha    60.00000022597295
_cell_angle_beta     60.000000193724276
_cell_angle_gamma    59.99999935400999

_space_group_name_H-M_alt    "P 1"
_space_group_IT_number       1

loop_
  _space_group_symop_operation_xyz
  'x, y, z'

loop_
  _atom_site_type_symbol
  _atom_site_label
  _atom_site_symmetry_multiplicity
  _atom_site_fract_x
  _atom_site_fract_y
  _atom_site_fract_z
  _atom_site_occupancy
  Cr  Cr1       1.0  0.2499999435327766  0.25000007748707553  0.24999998506041032  1.0000
  Cr  Cr2       1.0  0.7500000291758909  0.7500000195268585  0.7500000109815499  1.0000
  Os  Os1       1.0  1.0827171552404196e-08  0.9999999675184864  2.261430189453573e-08  1.0000
  Cl  Cl1       1.0  0.24404730806306632  0.24404738120209352  0.7559526093333513  1.0000
  Cl  Cl2       1.0  0.7559526586836265  0.7559526418261708  0.2440473250184266  1.0000
  Cl  Cl3       1.0  0.7559526758703125  0.2440472924453588  0.2440474304518057  1.0000
  Cl  Cl4       1.0  0.2440473433787013  0.755952624115722  0.7559526016051891  1.0000
  Cl  Cl5       1.0  0.24404740375017314  0.7559526896955455  0.24404731421907738  1.0000
  Cl  Cl6       1.0  0.7559526337651996  0.2440473098738472  0.7559526922482351  1.0000
