data_image0
_chemical_formula_structural       Cr2OsBr6
_chemical_formula_sum              "Cr2 Os1 Br6"
_cell_length_a       7.14258463355016
_cell_length_b       7.142584518655389
_cell_length_c       7.142584511503544
_cell_angle_alpha    60.00000019389964
_cell_angle_beta     59.999998884655625
_cell_angle_gamma    59.99999983077511

_space_group_name_H-M_alt    "P 1"
_space_group_IT_number       1

loop_
  _space_group_symop_operation_xyz
  'x, y, z'

loop_
  _atom_site_type_symbol
  _atom_site_label
  _atom_site_symmetry_multiplicity
  _atom_site_fract_x
  _atom_site_fract_y
  _atom_site_fract_z
  _atom_site_occupancy
  Cr  Cr1       1.0  0.250000019111057  0.25000003154043937  0.24999993459610012  1.0000
  Cr  Cr2       1.0  0.7499999922949184  0.7499999162916603  0.7500001088792565  1.0000
  Os  Os1       1.0  0.999999994399197  0.9999999828529174  1.2773996293813177e-08  1.0000
  Br  Br1       1.0  0.2450681719170282  0.2450682208636267  0.7549318173849731  1.0000
  Br  Br2       1.0  0.7549318335602957  0.7549317835538457  0.2450682217628245  1.0000
  Br  Br3       1.0  0.7549318371770313  0.24506821813909824  0.24506816370460632  1.0000
  Br  Br4       1.0  0.24506822356033459  0.7549317708459994  0.7549317869267386  1.0000
  Br  Br5       1.0  0.24506818180073192  0.7549318541289499  0.24506815809227847  1.0000
  Br  Br6       1.0  0.7549317443293971  0.24506821373272755  0.754931802203702  1.0000
