data_image0
_chemical_formula_structural       Cr2PF6
_chemical_formula_sum              "Cr2 P1 F6"
_cell_length_a       5.474611623552379
_cell_length_b       5.474611906492283
_cell_length_c       5.474611917064513
_cell_angle_alpha    60.00000021159089
_cell_angle_beta     59.99999912869802
_cell_angle_gamma    60.00000034238855

_space_group_name_H-M_alt    "P 1"
_space_group_IT_number       1

loop_
  _space_group_symop_operation_xyz
  'x, y, z'

loop_
  _atom_site_type_symbol
  _atom_site_label
  _atom_site_symmetry_multiplicity
  _atom_site_fract_x
  _atom_site_fract_y
  _atom_site_fract_z
  _atom_site_occupancy
  Cr  Cr1       1.0  0.2500002285259222  0.2500000689819654  0.2500000272675283  1.0000
  Cr  Cr2       1.0  0.7499998859639233  0.7499999608609964  0.7499998283412156  1.0000
  P   P1        1.0  0.9999999799096824  0.9999999843400517  2.3354973330313006e-08  1.0000
  F   F1        1.0  0.21894728652374343  0.2189472927736452  0.7810526945700791  1.0000
  F   F2        1.0  0.7810525709225513  0.7810526856152017  0.21894739017864895  1.0000
  F   F3        1.0  0.7810526453884368  0.2189473547169996  0.21894725708207088  1.0000
  F   F4        1.0  0.21894734911141764  0.7810526997344533  0.7810526882295328  1.0000
  F   F5        1.0  0.21894729643767993  0.7810526842354992  0.21894735729302675  1.0000
  F   F6        1.0  0.7810527482149033  0.21894732099897246  0.7810526807079914  1.0000
