data_image0
_chemical_formula_structural       Cr2PCl6
_chemical_formula_sum              "Cr2 P1 Cl6"
_cell_length_a       6.643998134046846
_cell_length_b       6.643998432609403
_cell_length_c       6.6439981874489105
_cell_angle_alpha    59.9999984516528
_cell_angle_beta     59.99999882659336
_cell_angle_gamma    60.00000019270932

_space_group_name_H-M_alt    "P 1"
_space_group_IT_number       1

loop_
  _space_group_symop_operation_xyz
  'x, y, z'

loop_
  _atom_site_type_symbol
  _atom_site_label
  _atom_site_symmetry_multiplicity
  _atom_site_fract_x
  _atom_site_fract_y
  _atom_site_fract_z
  _atom_site_occupancy
  Cr  Cr1       1.0  0.2500001733426992  0.24999983808810797  0.24999992958326744  1.0000
  Cr  Cr2       1.0  0.7499999464768864  0.7499999105921521  0.749999928535495  1.0000
  P   P1        1.0  1.104222401399721e-08  0.999999998156614  2.39978193483519e-08  1.0000
  Cl  Cl1       1.0  0.2462748277841487  0.2462748493971329  0.7537251910733797  1.0000
  Cl  Cl2       1.0  0.7537251490436244  0.7537251979115325  0.24627484660222643  1.0000
  Cl  Cl3       1.0  0.7537250906367758  0.24627489208379968  0.2462749129254155  1.0000
  Cl  Cl4       1.0  0.24627489312475115  0.753725186562414  0.7537251477578375  1.0000
  Cl  Cl5       1.0  0.24627478545690426  0.7537252523657518  0.24627479846436565  1.0000
  Cl  Cl6       1.0  0.7537251207801176  0.2462748815820212  0.7537252191461185  1.0000
