data_image0
_chemical_formula_structural       Cr2PdBr6
_chemical_formula_sum              "Cr2 Pd1 Br6"
_cell_length_a       7.0464997345561065
_cell_length_b       7.04649976924461
_cell_length_c       7.046499877612922
_cell_angle_alpha    59.99999904998456
_cell_angle_beta     59.99999985124121
_cell_angle_gamma    60.000000353079805

_space_group_name_H-M_alt    "P 1"
_space_group_IT_number       1

loop_
  _space_group_symop_operation_xyz
  'x, y, z'

loop_
  _atom_site_type_symbol
  _atom_site_label
  _atom_site_symmetry_multiplicity
  _atom_site_fract_x
  _atom_site_fract_y
  _atom_site_fract_z
  _atom_site_occupancy
  Cr  Cr1       1.0  0.25000002735154797  0.2499999826841054  0.24999999388646701  1.0000
  Cr  Cr2       1.0  0.7499999314431097  0.7500000262663523  0.7499999837986863  1.0000
  Pd  Pd1       1.0  3.075449016675509e-08  0.9999999913095515  1.7350864941141634e-08  1.0000
  Br  Br1       1.0  0.2496346293269131  0.24963464489967135  0.750365364798445  1.0000
  Br  Br2       1.0  0.7503653753509725  0.7503653640507865  0.24963464671086577  1.0000
  Br  Br3       1.0  0.750365336191515  0.24963463364495234  0.24963465593481757  1.0000
  Br  Br4       1.0  0.24963466357031036  0.7503653753055057  0.7503653339070704  1.0000
  Br  Br5       1.0  0.24963465708665092  0.750365347514029  0.24963463348514534  1.0000
  Br  Br6       1.0  0.7503653469295231  0.24963463884126258  0.7503653655271518  1.0000
