data_image0
_chemical_formula_structural       Cr2PbF6
_chemical_formula_sum              "Cr2 Pb1 F6"
_cell_length_a       5.899022136543224
_cell_length_b       5.899022621642546
_cell_length_c       5.899021788498435
_cell_angle_alpha    60.00000401793928
_cell_angle_beta     60.00000436102145
_cell_angle_gamma    60.000005272382566

_space_group_name_H-M_alt    "P 1"
_space_group_IT_number       1

loop_
  _space_group_symop_operation_xyz
  'x, y, z'

loop_
  _atom_site_type_symbol
  _atom_site_label
  _atom_site_symmetry_multiplicity
  _atom_site_fract_x
  _atom_site_fract_y
  _atom_site_fract_z
  _atom_site_occupancy
  Cr  Cr1       1.0  0.25000013139694155  0.2500000186791055  0.24999985635973543  1.0000
  Cr  Cr2       1.0  0.74999987491525  0.7500000165898366  0.7500000806826194  1.0000
  Pb  Pb1       1.0  0.9999999268045169  0.9999999377145222  1.6884589924713062e-08  1.0000
  F   F1        1.0  0.25530131911391907  0.2553015053531995  0.7446986846434334  1.0000
  F   F2        1.0  0.7446985800173029  0.7446982994594722  0.25530153479569395  1.0000
  F   F3        1.0  0.7446985244797039  0.255301484779348  0.2553015779535067  1.0000
  F   F4        1.0  0.25530172180765903  0.7446985234992227  0.7446983102331274  1.0000
  F   F5        1.0  0.25530168718209034  0.7446985564975924  0.25530136295800543  1.0000
  F   F6        1.0  0.7446982963904634  0.2553015763519298  0.7446985993861409  1.0000
