data_image0
_chemical_formula_structural       Cr2PtCl6
_chemical_formula_sum              "Cr2 Pt1 Cl6"
_cell_length_a       6.736419412134101
_cell_length_b       6.736419386803791
_cell_length_c       6.73641930770545
_cell_angle_alpha    59.99999900774649
_cell_angle_beta     59.99999993523057
_cell_angle_gamma    59.99999776674008

_space_group_name_H-M_alt    "P 1"
_space_group_IT_number       1

loop_
  _space_group_symop_operation_xyz
  'x, y, z'

loop_
  _atom_site_type_symbol
  _atom_site_label
  _atom_site_symmetry_multiplicity
  _atom_site_fract_x
  _atom_site_fract_y
  _atom_site_fract_z
  _atom_site_occupancy
  Cr  Cr1       1.0  0.24999990044255532  0.25000014406775395  0.24999993190794828  1.0000
  Cr  Cr2       1.0  0.7499999948131196  0.7499999631347999  0.7500000883719592  1.0000
  Pt  Pt1       1.0  3.340003694147493e-08  0.9999999563657243  3.480648300743721e-08  1.0000
  Cl  Cl1       1.0  0.24567571561858675  0.24567577352353026  0.7543242551026302  1.0000
  Cl  Cl2       1.0  0.7543243219800934  0.7543242100485767  0.24567568901993128  1.0000
  Cl  Cl3       1.0  0.7543242921784917  0.24567572190095313  0.24567572232066645  1.0000
  Cl  Cl4       1.0  0.24567575158448315  0.7543242380359209  0.7543242958539637  1.0000
  Cl  Cl5       1.0  0.24567573851253474  0.7543243067021969  0.245675727417318  1.0000
  Cl  Cl6       1.0  0.754324253099104  0.24567569141466905  0.7543242561778752  1.0000
