data_image0
_chemical_formula_structural       Cr2PtI6
_chemical_formula_sum              "Cr2 Pt1 I6"
_cell_length_a       7.599419919980505
_cell_length_b       7.5994198908457316
_cell_length_c       7.599419872609045
_cell_angle_alpha    59.99999987166397
_cell_angle_beta     60.00000008606157
_cell_angle_gamma    59.99999941978937

_space_group_name_H-M_alt    "P 1"
_space_group_IT_number       1

loop_
  _space_group_symop_operation_xyz
  'x, y, z'

loop_
  _atom_site_type_symbol
  _atom_site_label
  _atom_site_symmetry_multiplicity
  _atom_site_fract_x
  _atom_site_fract_y
  _atom_site_fract_z
  _atom_site_occupancy
  Cr  Cr1       1.0  0.24999998464136403  0.2500000406645314  0.24999998326621242  1.0000
  Cr  Cr2       1.0  0.7500000013670832  0.7499999978981278  0.7499999618070767  1.0000
  Pt  Pt1       1.0  0.9999999938458084  0.999999977437188  0.9999999643546849  1.0000
  I   I1        1.0  0.25090308034823844  0.2509030598544369  0.7490969341972085  1.0000
  I   I2        1.0  0.7490969451819516  0.7490969513105216  0.25090306271321594  1.0000
  I   I3        1.0  0.7490969277133804  0.2509030609138569  0.2509030742753212  1.0000
  I   I4        1.0  0.2509030614419693  0.7490969454162134  0.7490969669259862  1.0000
  I   I5        1.0  0.25090305110905636  0.7490969189654618  0.2509030779583887  1.0000
  I   I6        1.0  0.7490969585366228  0.250903048685502  0.7490969723373073  1.0000
