data_image0
_chemical_formula_structural       Cr2PtF6
_chemical_formula_sum              "Cr2 Pt1 F6"
_cell_length_a       5.692789216785691
_cell_length_b       5.6927901321316465
_cell_length_c       5.692790126136312
_cell_angle_alpha    60.000000208010896
_cell_angle_beta     59.99999876148299
_cell_angle_gamma    60.000001004960495

_space_group_name_H-M_alt    "P 1"
_space_group_IT_number       1

loop_
  _space_group_symop_operation_xyz
  'x, y, z'

loop_
  _atom_site_type_symbol
  _atom_site_label
  _atom_site_symmetry_multiplicity
  _atom_site_fract_x
  _atom_site_fract_y
  _atom_site_fract_z
  _atom_site_occupancy
  Cr  Cr1       1.0  0.24999994151055893  0.2500001501220861  0.2499999247267015  1.0000
  Cr  Cr2       1.0  0.7499999721975921  0.7500001168998026  0.7500000989526191  1.0000
  Pt  Pt1       1.0  0.9999999759269127  0.9999999505178817  5.7856896521958325e-08  1.0000
  F   F1        1.0  0.24870494546894484  0.24870485222109462  0.7512950992234874  1.0000
  F   F2        1.0  0.7512950585170326  0.7512950770315514  0.2487049041596974  1.0000
  F   F3        1.0  0.7512951496307013  0.24870488545154648  0.24870478593468026  1.0000
  F   F4        1.0  0.24870491008410922  0.7512950287413244  0.7512951303628777  1.0000
  F   F5        1.0  0.24870486521325486  0.7512951688244057  0.2487049017374157  1.0000
  F   F6        1.0  0.7512952159521994  0.24870479054778896  0.7512950743453769  1.0000
