data_image0
_chemical_formula_structural       Cr2PI6
_chemical_formula_sum              "Cr2 P1 I6"
_cell_length_a       7.669118295913748
_cell_length_b       7.669118319986677
_cell_length_c       7.6691182915920155
_cell_angle_alpha    59.99999942655054
_cell_angle_beta     60.000000086630415
_cell_angle_gamma    59.99999999735249

_space_group_name_H-M_alt    "P 1"
_space_group_IT_number       1

loop_
  _space_group_symop_operation_xyz
  'x, y, z'

loop_
  _atom_site_type_symbol
  _atom_site_label
  _atom_site_symmetry_multiplicity
  _atom_site_fract_x
  _atom_site_fract_y
  _atom_site_fract_z
  _atom_site_occupancy
  Cr  Cr1       1.0  0.250000050940375  0.24999998164341283  0.2499999348244279  1.0000
  Cr  Cr2       1.0  0.7500000094034058  0.749999991242733  0.7500000486155245  1.0000
  P   P1        1.0  0.9999999812172107  1.117887822614293e-08  2.466484922285955e-08  1.0000
  I   I1        1.0  0.2560467836129052  0.2560468133938445  0.7439532013778641  1.0000
  I   I2        1.0  0.7439532000027352  0.7439532089987629  0.2560467748100336  1.0000
  I   I3        1.0  0.7439531800014583  0.25604680860042134  0.2560468199672267  1.0000
  I   I4        1.0  0.2560467920256498  0.7439531898374463  0.7439532039827169  1.0000
  I   I5        1.0  0.25604680895098986  0.7439532193637052  0.25604678947041054  1.0000
  I   I6        1.0  0.7439531988620485  0.2560467710892495  0.7439531997161307  1.0000
