data_image0
_chemical_formula_structural       Cr2PdI6
_chemical_formula_sum              "Cr2 Pd1 I6"
_cell_length_a       7.565708357751681
_cell_length_b       7.565708361296022
_cell_length_c       7.565708387159676
_cell_angle_alpha    59.99999949122234
_cell_angle_beta     59.99999990040876
_cell_angle_gamma    59.99999977511782

_space_group_name_H-M_alt    "P 1"
_space_group_IT_number       1

loop_
  _space_group_symop_operation_xyz
  'x, y, z'

loop_
  _atom_site_type_symbol
  _atom_site_label
  _atom_site_symmetry_multiplicity
  _atom_site_fract_x
  _atom_site_fract_y
  _atom_site_fract_z
  _atom_site_occupancy
  Cr  Cr1       1.0  0.24999997238205188  0.25000001660152904  0.25000001755973655  1.0000
  Cr  Cr2       1.0  0.7500000024774843  0.7499999769581113  0.7499999763838588  1.0000
  Pd  Pd1       1.0  0.9999999913663435  2.590096947637787e-08  0.9999999662530308  1.0000
  I   I1        1.0  0.2526373097510632  0.2526373335651201  0.7473626661214008  1.0000
  I   I2        1.0  0.7473626924880179  0.747362664850952  0.25263733153050555  1.0000
  I   I3        1.0  0.7473626697903567  0.25263731549119706  0.2526373314711381  1.0000
  I   I4        1.0  0.25263732157995705  0.7473626926377384  0.74736267468924  1.0000
  I   I5        1.0  0.25263732698360886  0.7473626576784693  0.2526373434105666  1.0000
  I   I6        1.0  0.7473627083087969  0.2526373148366331  0.7473626982482809  1.0000
