data_image0
_chemical_formula_structural       Cr2PdF6
_chemical_formula_sum              "Cr2 Pd1 F6"
_cell_length_a       5.618897632075077
_cell_length_b       5.618897368349027
_cell_length_c       5.618897540710251
_cell_angle_alpha    59.999999048939095
_cell_angle_beta     59.999998926160664
_cell_angle_gamma    60.000001683861136

_space_group_name_H-M_alt    "P 1"
_space_group_IT_number       1

loop_
  _space_group_symop_operation_xyz
  'x, y, z'

loop_
  _atom_site_type_symbol
  _atom_site_label
  _atom_site_symmetry_multiplicity
  _atom_site_fract_x
  _atom_site_fract_y
  _atom_site_fract_z
  _atom_site_occupancy
  Cr  Cr1       1.0  0.2499999309275194  0.24999999514101431  0.250000060673302  1.0000
  Cr  Cr2       1.0  0.7499997056628352  0.7499999200323699  0.7500002653939392  1.0000
  Pd  Pd1       1.0  4.242907460324023e-08  2.1796907112100755e-09  9.730370743746663e-09  1.0000
  F   F1        1.0  0.25314593558225734  0.25314630779249425  0.7468539125984361  1.0000
  F   F2        1.0  0.7468541153549008  0.7468536836700185  0.25314600441764734  1.0000
  F   F3        1.0  0.7468537584332  0.2531460946757408  0.25314613615761894  1.0000
  F   F4        1.0  0.25314632762462896  0.746853994872778  0.7468537445101712  1.0000
  F   F5        1.0  0.2531463080148629  0.7468539544548891  0.2531459555255154  1.0000
  F   F6        1.0  0.7468538527933981  0.25314605880451735  0.7468538903174428  1.0000
