data_image0
_chemical_formula_structural       Cr2PbCl6
_chemical_formula_sum              "Cr2 Pb1 Cl6"
_cell_length_a       6.928339787126056
_cell_length_b       6.928339668828604
_cell_length_c       6.92833976836104
_cell_angle_alpha    59.99999805544785
_cell_angle_beta     59.99999880641899
_cell_angle_gamma    59.99999994474511

_space_group_name_H-M_alt    "P 1"
_space_group_IT_number       1

loop_
  _space_group_symop_operation_xyz
  'x, y, z'

loop_
  _atom_site_type_symbol
  _atom_site_label
  _atom_site_symmetry_multiplicity
  _atom_site_fract_x
  _atom_site_fract_y
  _atom_site_fract_z
  _atom_site_occupancy
  Cr  Cr1       1.0  0.25000001954169154  0.2500000142901712  0.2499999772801624  1.0000
  Cr  Cr2       1.0  0.750000032565521  0.7500000110513314  0.7500001787252871  1.0000
  Pb  Pb1       1.0  4.0100310016328315e-08  0.999999994696804  0.9999999955915677  1.0000
  Cl  Cl1       1.0  0.2629445868802851  0.2629445084858528  0.7370554470837052  1.0000
  Cl  Cl2       1.0  0.7370554366255511  0.7370554726623483  0.26294446675306904  1.0000
  Cl  Cl3       1.0  0.7370554358511098  0.26294456829715357  0.2629445238839583  1.0000
  Cl  Cl4       1.0  0.2629444941210354  0.737055423457439  0.7370554415198969  1.0000
  Cl  Cl5       1.0  0.2629445179631367  0.7370554803199154  0.26294453336629425  1.0000
  Cl  Cl6       1.0  0.7370554432880035  0.26294450259601654  0.7370554453542966  1.0000
