data_image0
_chemical_formula_structural       Cr2PbBr6
_chemical_formula_sum              "Cr2 Pb1 Br6"
_cell_length_a       7.3072622599760155
_cell_length_b       7.307262516487596
_cell_length_c       7.30726239412157
_cell_angle_alpha    59.999999474664165
_cell_angle_beta     60.00000106240477
_cell_angle_gamma    60.00000044918251

_space_group_name_H-M_alt    "P 1"
_space_group_IT_number       1

loop_
  _space_group_symop_operation_xyz
  'x, y, z'

loop_
  _atom_site_type_symbol
  _atom_site_label
  _atom_site_symmetry_multiplicity
  _atom_site_fract_x
  _atom_site_fract_y
  _atom_site_fract_z
  _atom_site_occupancy
  Cr  Cr1       1.0  0.2499999605282879  0.24999993519208605  0.25000007418504505  1.0000
  Cr  Cr2       1.0  0.749999875340613  0.7499999949716325  0.7500000461324751  1.0000
  Pb  Pb1       1.0  6.783671247573259e-09  3.3521300328610043e-09  1.956512753330385e-08  1.0000
  Br  Br1       1.0  0.2650748193332606  0.2650747232343401  0.734925204701874  1.0000
  Br  Br2       1.0  0.7349251845471976  0.7349252907326409  0.2650747801287269  1.0000
  Br  Br3       1.0  0.7349252426855355  0.2650748195303648  0.2650747233532626  1.0000
  Br  Br4       1.0  0.26507482883991784  0.7349252380143126  0.7349251894439742  1.0000
  Br  Br5       1.0  0.26507478763948134  0.7349252383470382  0.26507477002473395  1.0000
  Br  Br6       1.0  0.7349252997209595  0.2650747622114208  0.7349251811386392  1.0000
