data_image0
_chemical_formula_structural       Cr2PtBr6
_chemical_formula_sum              "Cr2 Pt1 Br6"
_cell_length_a       7.047717731832956
_cell_length_b       7.04771776981819
_cell_length_c       7.047717851252049
_cell_angle_alpha    59.99999877593963
_cell_angle_beta     60.00000030777333
_cell_angle_gamma    59.99999972174749

_space_group_name_H-M_alt    "P 1"
_space_group_IT_number       1

loop_
  _space_group_symop_operation_xyz
  'x, y, z'

loop_
  _atom_site_type_symbol
  _atom_site_label
  _atom_site_symmetry_multiplicity
  _atom_site_fract_x
  _atom_site_fract_y
  _atom_site_fract_z
  _atom_site_occupancy
  Cr  Cr1       1.0  0.2500000025074782  0.2500000015908858  0.25000003835059204  1.0000
  Cr  Cr2       1.0  0.7499999648416085  0.7499999804436078  0.7500000322069938  1.0000
  Pt  Pt1       1.0  0.9999999880512979  0.9999999965244216  0.9999999779152606  1.0000
  Br  Br1       1.0  0.24796384649631242  0.247963870839404  0.7520361099882812  1.0000
  Br  Br2       1.0  0.7520361453123878  0.7520361459508776  0.24796386143555144  1.0000
  Br  Br3       1.0  0.7520361013242822  0.24796390124321585  0.24796386942158458  1.0000
  Br  Br4       1.0  0.24796388545276982  0.7520361503028524  0.7520360942346737  1.0000
  Br  Br5       1.0  0.24796387724921923  0.7520361567672276  0.24796384150675424  1.0000
  Br  Br6       1.0  0.7520361998899531  0.2479637957248476  0.7520361619679172  1.0000
