data_image0
_chemical_formula_structural       Cr2RuBr6
_chemical_formula_sum              "Cr2 Ru1 Br6"
_cell_length_a       7.0852880455266956
_cell_length_b       7.085288151406598
_cell_length_c       7.085288183064464
_cell_angle_alpha    59.99999959055182
_cell_angle_beta     59.99999941083457
_cell_angle_gamma    60.00000105720831

_space_group_name_H-M_alt    "P 1"
_space_group_IT_number       1

loop_
  _space_group_symop_operation_xyz
  'x, y, z'

loop_
  _atom_site_type_symbol
  _atom_site_label
  _atom_site_symmetry_multiplicity
  _atom_site_fract_x
  _atom_site_fract_y
  _atom_site_fract_z
  _atom_site_occupancy
  Cr  Cr1       1.0  0.2499999420177726  0.2500000325519671  0.24999997964298176  1.0000
  Cr  Cr2       1.0  0.7499999415344029  0.7499999956700049  0.7500000210979888  1.0000
  Ru  Ru1       1.0  4.5106732649113e-09  0.9999999913571272  5.146423164864263e-08  1.0000
  Br  Br1       1.0  0.24664271839887048  0.24664269320301183  0.7533573131368321  1.0000
  Br  Br2       1.0  0.753357338199749  0.7533573194617913  0.24664267096000947  1.0000
  Br  Br3       1.0  0.7533573014077858  0.24664269866974006  0.24664274362917624  1.0000
  Br  Br4       1.0  0.24664274658188295  0.7533572811521468  0.7533572640163493  1.0000
  Br  Br5       1.0  0.24664272872252416  0.753357265470774  0.24664269314559653  1.0000
  Br  Br6       1.0  0.7533572804335825  0.2466427281797089  0.7533572592564027  1.0000
