data_image0
_chemical_formula_structural       Cr2RhI6
_chemical_formula_sum              "Cr2 Rh1 I6"
_cell_length_a       7.568257194288317
_cell_length_b       7.568257220537662
_cell_length_c       7.568257160652599
_cell_angle_alpha    60.00000027172201
_cell_angle_beta     60.00000032669776
_cell_angle_gamma    59.99999991595509

_space_group_name_H-M_alt    "P 1"
_space_group_IT_number       1

loop_
  _space_group_symop_operation_xyz
  'x, y, z'

loop_
  _atom_site_type_symbol
  _atom_site_label
  _atom_site_symmetry_multiplicity
  _atom_site_fract_x
  _atom_site_fract_y
  _atom_site_fract_z
  _atom_site_occupancy
  Cr  Cr1       1.0  0.24999998644060956  0.2500000539769503  0.24999997746381647  1.0000
  Cr  Cr2       1.0  0.7499999858170134  0.7499999725938007  0.7500000164549983  1.0000
  Rh  Rh1       1.0  2.8279946658681396e-08  0.999999983817346  0.9999999979152782  1.0000
  I   I1        1.0  0.2487043418423639  0.24870430213135036  0.7512956796046923  1.0000
  I   I2        1.0  0.7512956654459179  0.7512956742731736  0.24870433773760453  1.0000
  I   I3        1.0  0.7512956627470828  0.24870433760368038  0.24870434450818277  1.0000
  I   I4        1.0  0.24870433663497227  0.7512956533652322  0.7512956708263415  1.0000
  I   I5        1.0  0.24870433633882336  0.751295669832306  0.24870431981246185  1.0000
  I   I6        1.0  0.7512956532410889  0.24870435512017972  0.7512956517199513  1.0000
