data_image0
_chemical_formula_structural       Cr2RuBr6
_chemical_formula_sum              "Cr2 Ru1 Br6"
_cell_length_a       7.0851971759847405
_cell_length_b       7.085197155744567
_cell_length_c       7.08519708138843
_cell_angle_alpha    60.00000040437062
_cell_angle_beta     59.99999941804149
_cell_angle_gamma    59.99999967866264

_space_group_name_H-M_alt    "P 1"
_space_group_IT_number       1

loop_
  _space_group_symop_operation_xyz
  'x, y, z'

loop_
  _atom_site_type_symbol
  _atom_site_label
  _atom_site_symmetry_multiplicity
  _atom_site_fract_x
  _atom_site_fract_y
  _atom_site_fract_z
  _atom_site_occupancy
  Cr  Cr1       1.0  0.25000007913889943  0.24999995134504324  0.24999995601767863  1.0000
  Cr  Cr2       1.0  0.7500000044094225  0.750000108138851  0.7499998702073554  1.0000
  Ru  Ru1       1.0  1.8075859934984547e-10  1.9014564033956137e-08  0.999999979111192  1.0000
  Br  Br1       1.0  0.24664485961714605  0.24664480612727485  0.7533551905355175  1.0000
  Br  Br2       1.0  0.7533551213086509  0.7533551651981869  0.2466448849218704  1.0000
  Br  Br3       1.0  0.7533551452216379  0.2466447976185312  0.246644878214347  1.0000
  Br  Br4       1.0  0.24664482153082987  0.7533551477779795  0.7533552172941811  1.0000
  Br  Br5       1.0  0.24664484582579854  0.7533551541323754  0.24664484532597272  1.0000
  Br  Br6       1.0  0.7533551253046173  0.2466448465792308  0.7533551850512001  1.0000
