data_image0
_chemical_formula_structural       Cr2RuCl6
_chemical_formula_sum              "Cr2 Ru1 Cl6"
_cell_length_a       6.726602538209585
_cell_length_b       6.72660238444029
_cell_length_c       6.726602405046802
_cell_angle_alpha    59.999999896239345
_cell_angle_beta     60.000000263220855
_cell_angle_gamma    59.999998647077554

_space_group_name_H-M_alt    "P 1"
_space_group_IT_number       1

loop_
  _space_group_symop_operation_xyz
  'x, y, z'

loop_
  _atom_site_type_symbol
  _atom_site_label
  _atom_site_symmetry_multiplicity
  _atom_site_fract_x
  _atom_site_fract_y
  _atom_site_fract_z
  _atom_site_occupancy
  Cr  Cr1       1.0  0.25000003597045134  0.25000006516656315  0.2499999572316305  1.0000
  Cr  Cr2       1.0  0.7500000590696828  0.7499999660854234  0.7499998963519947  1.0000
  Ru  Ru1       1.0  1.5553690274708143e-08  0.9999999945377555  9.008155886560948e-10  1.0000
  Cl  Cl1       1.0  0.24656411461694386  0.24656418854962464  0.7534358677450255  1.0000
  Cl  Cl2       1.0  0.7534358128015651  0.7534358408816157  0.2465642013836321  1.0000
  Cl  Cl3       1.0  0.753435860734201  0.24656412618300225  0.24656417409221437  1.0000
  Cl  Cl4       1.0  0.24656414710655122  0.7534358267768151  0.7534358752214175  1.0000
  Cl  Cl5       1.0  0.2465641291872589  0.7534357732389179  0.24656417025638677  1.0000
  Cl  Cl6       1.0  0.7534358439046166  0.2465642015698774  0.7534358409081561  1.0000
