data_image0
_chemical_formula_structural       Cr2RhF6
_chemical_formula_sum              "Cr2 Rh1 F6"
_cell_length_a       5.609147283935884
_cell_length_b       5.609146921224632
_cell_length_c       5.609147514282617
_cell_angle_alpha    59.99999997782501
_cell_angle_beta     59.99999953083361
_cell_angle_gamma    60.000001108095006

_space_group_name_H-M_alt    "P 1"
_space_group_IT_number       1

loop_
  _space_group_symop_operation_xyz
  'x, y, z'

loop_
  _atom_site_type_symbol
  _atom_site_label
  _atom_site_symmetry_multiplicity
  _atom_site_fract_x
  _atom_site_fract_y
  _atom_site_fract_z
  _atom_site_occupancy
  Cr  Cr1       1.0  0.25000009480572866  0.24999999349951765  0.25000008939964385  1.0000
  Cr  Cr2       1.0  0.7500000046933049  0.750000183561981  0.7499998750910517  1.0000
  Rh  Rh1       1.0  4.616705913583764e-09  0.9999999737982648  1.6140920336467466e-08  1.0000
  F   F1        1.0  0.2499882005173845  0.24998821636981036  0.750011711681676  1.0000
  F   F2        1.0  0.7500117267691048  0.7500117794630087  0.24998831721309311  1.0000
  F   F3        1.0  0.7500117977650607  0.24998810666900861  0.2499883061398143  1.0000
  F   F4        1.0  0.24998814397449715  0.7500118149255596  0.7500117401679292  1.0000
  F   F5        1.0  0.24998823429128644  0.7500117466861483  0.2499881885005861  1.0000
  F   F6        1.0  0.7500117551707574  0.24998815525711832  0.7500118152467316  1.0000
