data_image0
_chemical_formula_structural       Cr2ReI6
_chemical_formula_sum              "Cr2 Re1 I6"
_cell_length_a       7.711556875499527
_cell_length_b       7.7115570245421585
_cell_length_c       7.711556957232982
_cell_angle_alpha    59.999999694358564
_cell_angle_beta     60.000000592331446
_cell_angle_gamma    60.00000070736032

_space_group_name_H-M_alt    "P 1"
_space_group_IT_number       1

loop_
  _space_group_symop_operation_xyz
  'x, y, z'

loop_
  _atom_site_type_symbol
  _atom_site_label
  _atom_site_symmetry_multiplicity
  _atom_site_fract_x
  _atom_site_fract_y
  _atom_site_fract_z
  _atom_site_occupancy
  Cr  Cr1       1.0  0.2500000303969689  0.24999997929139822  0.25000001155485324  1.0000
  Cr  Cr2       1.0  0.7499999965533348  0.7500000061665373  0.7500000180118085  1.0000
  Re  Re1       1.0  0.9999999659083727  7.940969678955116e-09  3.512016343465914e-08  1.0000
  I   I1        1.0  0.24767703510732342  0.24767707997416855  0.7523229473607833  1.0000
  I   I2        1.0  0.752322989437313  0.7523229531295879  0.2476770167928867  1.0000
  I   I3        1.0  0.7523229264366786  0.24767706445423476  0.2476770514518006  1.0000
  I   I4        1.0  0.24767707197288372  0.7523229257682833  0.7523229212749258  1.0000
  I   I5        1.0  0.24767706597450442  0.752322929378489  0.24767704465442852  1.0000
  I   I6        1.0  0.752322910065433  0.2476770560794469  0.7523229584972162  1.0000
