data_image0
_chemical_formula_structural       Cr2RhF6
_chemical_formula_sum              "Cr2 Rh1 F6"
_cell_length_a       5.608937536832783
_cell_length_b       5.608936981039019
_cell_length_c       5.608937332054552
_cell_angle_alpha    59.99999748056438
_cell_angle_beta     59.99999686319795
_cell_angle_gamma    59.9999968231429

_space_group_name_H-M_alt    "P 1"
_space_group_IT_number       1

loop_
  _space_group_symop_operation_xyz
  'x, y, z'

loop_
  _atom_site_type_symbol
  _atom_site_label
  _atom_site_symmetry_multiplicity
  _atom_site_fract_x
  _atom_site_fract_y
  _atom_site_fract_z
  _atom_site_occupancy
  Cr  Cr1       1.0  0.2500000071860426  0.24999992870457013  0.250000030837217  1.0000
  Cr  Cr2       1.0  0.749999869001556  0.7500001573188722  0.750000058067854  1.0000
  Rh  Rh1       1.0  1.9152517323122034e-08  0.9999999672466036  1.036617688882643e-08  1.0000
  F   F1        1.0  0.25000359587683335  0.2500033450869224  0.7499965236601942  1.0000
  F   F2        1.0  0.7499964364814946  0.7499966121064926  0.25000344638525523  1.0000
  F   F3        1.0  0.7499965914038116  0.2500035467134856  0.25000337688413354  1.0000
  F   F4        1.0  0.25000345303540455  0.7499964607018047  0.7499966208446077  1.0000
  F   F5        1.0  0.25000337612170487  0.7499965533000941  0.2500035226939339  1.0000
  F   F6        1.0  0.749996649082969  0.2500034191782396  0.7499964789432617  1.0000
