data_image0
_chemical_formula_structural       Cr2RhCl6
_chemical_formula_sum              "Cr2 Rh1 Cl6"
_cell_length_a       6.653099782823601
_cell_length_b       6.653099678797615
_cell_length_c       6.6530998457044
_cell_angle_alpha    59.99999911873155
_cell_angle_beta     59.99999861322588
_cell_angle_gamma    59.9999989873866

_space_group_name_H-M_alt    "P 1"
_space_group_IT_number       1

loop_
  _space_group_symop_operation_xyz
  'x, y, z'

loop_
  _atom_site_type_symbol
  _atom_site_label
  _atom_site_symmetry_multiplicity
  _atom_site_fract_x
  _atom_site_fract_y
  _atom_site_fract_z
  _atom_site_occupancy
  Cr  Cr1       1.0  0.25000007063417795  0.25000005842345957  0.2499999359220659  1.0000
  Cr  Cr2       1.0  0.7500000820888935  0.7499999138677516  0.7499999868406864  1.0000
  Rh  Rh1       1.0  0.9999999878509206  0.0  0.9999999880378347  1.0000
  Cl  Cl1       1.0  0.24734874410075253  0.2473487969028131  0.7526512400643633  1.0000
  Cl  Cl2       1.0  0.7526511976512092  0.7526512563863953  0.24734877924918053  1.0000
  Cl  Cl3       1.0  0.752651239190731  0.24734873664583082  0.24734880648197355  1.0000
  Cl  Cl4       1.0  0.24734869667170734  0.7526512614174706  0.7526512343709331  1.0000
  Cl  Cl5       1.0  0.24734880630195397  0.7526511676177454  0.2473487662542697  1.0000
  Cl  Cl6       1.0  0.7526511737742372  0.24734881755951088  0.7526512724623117  1.0000
