data_image0
_chemical_formula_structural       Cr2RuCl6
_chemical_formula_sum              "Cr2 Ru1 Cl6"
_cell_length_a       6.72652479097123
_cell_length_b       6.726524745450055
_cell_length_c       6.726524681991377
_cell_angle_alpha    60.00000062455272
_cell_angle_beta     60.00000078302428
_cell_angle_gamma    60.00000139064214

_space_group_name_H-M_alt    "P 1"
_space_group_IT_number       1

loop_
  _space_group_symop_operation_xyz
  'x, y, z'

loop_
  _atom_site_type_symbol
  _atom_site_label
  _atom_site_symmetry_multiplicity
  _atom_site_fract_x
  _atom_site_fract_y
  _atom_site_fract_z
  _atom_site_occupancy
  Cr  Cr1       1.0  0.24999982193707052  0.2499999976163968  0.25000012829875057  1.0000
  Cr  Cr2       1.0  0.7499998887793794  0.7500000474722691  0.7500000569015215  1.0000
  Ru  Ru1       1.0  2.717167275177511e-08  0.9999999854338474  1.153706152235653e-08  1.0000
  Cl  Cl1       1.0  0.24656626522509367  0.24656598278332756  0.7534338871489961  1.0000
  Cl  Cl2       1.0  0.7534338758676612  0.7534338784076613  0.24656615548548932  1.0000
  Cl  Cl3       1.0  0.7534339253936588  0.24656620124174955  0.24656606418419852  1.0000
  Cl  Cl4       1.0  0.24656615315029295  0.753433909394609  0.753433789856289  1.0000
  Cl  Cl5       1.0  0.2465661062059681  0.7534338661946844  0.24656614155207163  1.0000
  Cl  Cl6       1.0  0.7534339395850701  0.24656613155398768  0.7534337644955902  1.0000
