data_image0
_chemical_formula_structural       Cr2ReBr6
_chemical_formula_sum              "Cr2 Re1 Br6"
_cell_length_a       7.172364181121029
_cell_length_b       7.172364313614154
_cell_length_c       7.17236429590998
_cell_angle_alpha    59.99999967328624
_cell_angle_beta     59.99999928833725
_cell_angle_gamma    60.000000262982226

_space_group_name_H-M_alt    "P 1"
_space_group_IT_number       1

loop_
  _space_group_symop_operation_xyz
  'x, y, z'

loop_
  _atom_site_type_symbol
  _atom_site_label
  _atom_site_symmetry_multiplicity
  _atom_site_fract_x
  _atom_site_fract_y
  _atom_site_fract_z
  _atom_site_occupancy
  Cr  Cr1       1.0  0.24999999741567064  0.24999998241715218  0.25000002458947174  1.0000
  Cr  Cr2       1.0  0.7500000234522741  0.7500000275081283  0.7500000417395342  1.0000
  Re  Re1       1.0  0.9999999683538376  2.73214202658659e-08  0.9999999673063612  1.0000
  Br  Br1       1.0  0.2460404162064778  0.24604044922531554  0.753959530505889  1.0000
  Br  Br2       1.0  0.7539596340949922  0.7539595931441524  0.24604037243142338  1.0000
  Br  Br3       1.0  0.753959593449407  0.24604037305552645  0.2460403900951416  1.0000
  Br  Br4       1.0  0.24604038066641506  0.7539595839345027  0.7539596312692052  1.0000
  Br  Br5       1.0  0.24604038433039754  0.7539596047195369  0.24604036401223828  1.0000
  Br  Br6       1.0  0.7539596034126237  0.24604036934637996  0.7539596657026515  1.0000
