data_image0
_chemical_formula_structural       Cr2RhCl6
_chemical_formula_sum              "Cr2 Rh1 Cl6"
_cell_length_a       6.653217520873383
_cell_length_b       6.653217522032202
_cell_length_c       6.653217599001777
_cell_angle_alpha    59.99999937665338
_cell_angle_beta     60.0000001142465
_cell_angle_gamma    59.99999886732744

_space_group_name_H-M_alt    "P 1"
_space_group_IT_number       1

loop_
  _space_group_symop_operation_xyz
  'x, y, z'

loop_
  _atom_site_type_symbol
  _atom_site_label
  _atom_site_symmetry_multiplicity
  _atom_site_fract_x
  _atom_site_fract_y
  _atom_site_fract_z
  _atom_site_occupancy
  Cr  Cr1       1.0  0.25000004010333976  0.25000008630084497  0.24999996742867114  1.0000
  Cr  Cr2       1.0  0.750000028013023  0.7500000932277496  0.7499998328716593  1.0000
  Rh  Rh1       1.0  0.9999999664109006  1.8408311691503484e-09  4.142568065947704e-08  1.0000
  Cl  Cl1       1.0  0.24734484098134804  0.24734493017380774  0.7526551090501735  1.0000
  Cl  Cl2       1.0  0.7526550832797899  0.752655087361663  0.24734494337445373  1.0000
  Cl  Cl3       1.0  0.7526550893768984  0.2473448473587633  0.24734494588502393  1.0000
  Cl  Cl4       1.0  0.24734493723072262  0.75265508181682  0.752655119085724  1.0000
  Cl  Cl5       1.0  0.24734492759910806  0.7526550197261594  0.24734490167866657  1.0000
  Cl  Cl6       1.0  0.7526550800407824  0.24734487263280477  0.7526551340690343  1.0000
