data_image0
_chemical_formula_structural       Cr2ReF6
_chemical_formula_sum              "Cr2 Re1 F6"
_cell_length_a       5.4248922402229605
_cell_length_b       5.424892090842962
_cell_length_c       5.424892518226675
_cell_angle_alpha    59.99999818875868
_cell_angle_beta     59.99999687464487
_cell_angle_gamma    59.999997356271166

_space_group_name_H-M_alt    "P 1"
_space_group_IT_number       1

loop_
  _space_group_symop_operation_xyz
  'x, y, z'

loop_
  _atom_site_type_symbol
  _atom_site_label
  _atom_site_symmetry_multiplicity
  _atom_site_fract_x
  _atom_site_fract_y
  _atom_site_fract_z
  _atom_site_occupancy
  Cr  Cr1       1.0  0.25000001223294427  0.2500000647309474  0.25000000656502624  1.0000
  Cr  Cr2       1.0  0.7499999269416295  0.7500001084025523  0.7499999958074298  1.0000
  Re  Re1       1.0  3.534752850483948e-08  0.9999999322708237  0.9999999977572782  1.0000
  F   F1        1.0  0.2568627444211056  0.2568628276902649  0.7431371669540555  1.0000
  F   F2        1.0  0.74313727312526  0.7431371422557056  0.2568628204053781  1.0000
  F   F3        1.0  0.7431372260439391  0.2568627793487005  0.2568627777186135  1.0000
  F   F4        1.0  0.2568627921037031  0.7431372334924146  0.7431371768324829  1.0000
  F   F5        1.0  0.2568628393962054  0.7431372084217749  0.25686276468285113  1.0000
  F   F6        1.0  0.7431371765381035  0.256862734432526  0.7431372775822446  1.0000
