data_image0
_chemical_formula_structural       Cr2RhI6
_chemical_formula_sum              "Cr2 Rh1 I6"
_cell_length_a       7.568096195334477
_cell_length_b       7.568096255553208
_cell_length_c       7.56809625622568
_cell_angle_alpha    59.999999940556165
_cell_angle_beta     59.99999955352621
_cell_angle_gamma    60.000000165028034

_space_group_name_H-M_alt    "P 1"
_space_group_IT_number       1

loop_
  _space_group_symop_operation_xyz
  'x, y, z'

loop_
  _atom_site_type_symbol
  _atom_site_label
  _atom_site_symmetry_multiplicity
  _atom_site_fract_x
  _atom_site_fract_y
  _atom_site_fract_z
  _atom_site_occupancy
  Cr  Cr1       1.0  0.24999998712190646  0.24999999209786095  0.2500000154773663  1.0000
  Cr  Cr2       1.0  0.7499999977826809  0.7500000135144784  0.7499999924357988  1.0000
  Rh  Rh1       1.0  2.5921831669933606e-08  2.7511096732735613e-08  3.4065003696267097e-08  1.0000
  I   I1        1.0  0.24870771737291017  0.24870771337145559  0.7512922992160911  1.0000
  I   I2        1.0  0.751292258131293  0.7512922517833889  0.2487077441967035  1.0000
  I   I3        1.0  0.7512922952609093  0.24870769958020786  0.24870773033679586  1.0000
  I   I4        1.0  0.24870776847488402  0.7512922526282383  0.7512922371146513  1.0000
  I   I5        1.0  0.24870770276972054  0.751292306011605  0.24870770269560277  1.0000
  I   I6        1.0  0.751292247196015  0.24870774491312908  0.7512922418919952  1.0000
