data_image0
_chemical_formula_structural       Cr2ReCl6
_chemical_formula_sum              "Cr2 Re1 Cl6"
_cell_length_a       6.840353849869212
_cell_length_b       6.84035397491495
_cell_length_c       6.840353912079154
_cell_angle_alpha    60.000001021722476
_cell_angle_beta     60.000000704049896
_cell_angle_gamma    60.00000103431306

_space_group_name_H-M_alt    "P 1"
_space_group_IT_number       1

loop_
  _space_group_symop_operation_xyz
  'x, y, z'

loop_
  _atom_site_type_symbol
  _atom_site_label
  _atom_site_symmetry_multiplicity
  _atom_site_fract_x
  _atom_site_fract_y
  _atom_site_fract_z
  _atom_site_occupancy
  Cr  Cr1       1.0  0.25000001119372833  0.24999997616485795  0.2499999531400041  1.0000
  Cr  Cr2       1.0  0.7499999243334033  0.7499999625135035  0.7499998312483679  1.0000
  Re  Re1       1.0  2.18249618786161e-09  3.5809400758960052e-09  1.6123146516528412e-08  1.0000
  Cl  Cl1       1.0  0.24461738220446555  0.24461728121965887  0.755382723797671  1.0000
  Cl  Cl2       1.0  0.755382565888084  0.7553827362393843  0.2446174271770223  1.0000
  Cl  Cl3       1.0  0.7553827335224594  0.24461733621648324  0.24461735244506275  1.0000
  Cl  Cl4       1.0  0.244617416100108  0.75538258813812  0.755382660987821  1.0000
  Cl  Cl5       1.0  0.24461733241256883  0.7553826109877326  0.24461738526810758  1.0000
  Cl  Cl6       1.0  0.7553826330024125  0.24461750136621987  0.7553826248069816  1.0000
