data_image0
_chemical_formula_structural       Cr2SiBr6
_chemical_formula_sum              "Cr2 Si1 Br6"
_cell_length_a       7.004825335150487
_cell_length_b       7.004825254995413
_cell_length_c       7.004825163761336
_cell_angle_alpha    60.00000061674703
_cell_angle_beta     60.0000008216054
_cell_angle_gamma    60.00000083585726

_space_group_name_H-M_alt    "P 1"
_space_group_IT_number       1

loop_
  _space_group_symop_operation_xyz
  'x, y, z'

loop_
  _atom_site_type_symbol
  _atom_site_label
  _atom_site_symmetry_multiplicity
  _atom_site_fract_x
  _atom_site_fract_y
  _atom_site_fract_z
  _atom_site_occupancy
  Cr  Cr1       1.0  0.2500000070250052  0.250000006646293  0.24999999898056927  1.0000
  Cr  Cr2       1.0  0.7499999804297731  0.7500000479137632  0.7499999233319937  1.0000
  Si  Si1       1.0  0.9999999696453501  6.993720854703091e-09  0.9999999659976684  1.0000
  Br  Br1       1.0  0.2444207420511457  0.2444207263802001  0.7555792684685345  1.0000
  Br  Br2       1.0  0.7555793037988483  0.7555792914628208  0.24442071295671997  1.0000
  Br  Br3       1.0  0.7555792708086885  0.24442071347732036  0.2444207080154509  1.0000
  Br  Br4       1.0  0.24442072901940878  0.7555792396737794  0.7555793401874116  1.0000
  Br  Br5       1.0  0.24442070466389415  0.7555792630982059  0.24442075977591896  1.0000
  Br  Br6       1.0  0.7555792894360963  0.24442070229190607  0.7555793265715245  1.0000
