data_image0
_chemical_formula_structural       Cr2SbCl6
_chemical_formula_sum              "Cr2 Sb1 Cl6"
_cell_length_a       6.911285303760891
_cell_length_b       6.911285288088743
_cell_length_c       6.9112855947722585
_cell_angle_alpha    59.999999605972846
_cell_angle_beta     59.9999995873035
_cell_angle_gamma    59.99999944674344

_space_group_name_H-M_alt    "P 1"
_space_group_IT_number       1

loop_
  _space_group_symop_operation_xyz
  'x, y, z'

loop_
  _atom_site_type_symbol
  _atom_site_label
  _atom_site_symmetry_multiplicity
  _atom_site_fract_x
  _atom_site_fract_y
  _atom_site_fract_z
  _atom_site_occupancy
  Cr  Cr1       1.0  0.25000001295288937  0.24999999562566777  0.24999992617743627  1.0000
  Cr  Cr2       1.0  0.750000042434651  0.7500000914305645  0.7499998923089592  1.0000
  Sb  Sb1       1.0  2.4774542170662493e-08  0.9999999858232461  0.9999999975949235  1.0000
  Cl  Cl1       1.0  0.2525994394267412  0.2525994210829882  0.7474005686351193  1.0000
  Cl  Cl2       1.0  0.7474004979285003  0.7474006642011517  0.2525995065330688  1.0000
  Cl  Cl3       1.0  0.7474005974481079  0.25259941935763053  0.252599440875756  1.0000
  Cl  Cl4       1.0  0.25259935898037417  0.7474004834008031  0.7474006653768553  1.0000
  Cl  Cl5       1.0  0.25259941577019845  0.7474005890798209  0.25259942984102857  1.0000
  Cl  Cl6       1.0  0.7474006077574076  0.25259935798096783  0.7474005599406742  1.0000
