data_image0
_chemical_formula_structural       Cr2SbI6
_chemical_formula_sum              "Cr2 Sb1 I6"
_cell_length_a       7.969034401215472
_cell_length_b       7.9690343176709195
_cell_length_c       7.969034222307462
_cell_angle_alpha    59.99999982652004
_cell_angle_beta     60.00000156086475
_cell_angle_gamma    59.999999628114075

_space_group_name_H-M_alt    "P 1"
_space_group_IT_number       1

loop_
  _space_group_symop_operation_xyz
  'x, y, z'

loop_
  _atom_site_type_symbol
  _atom_site_label
  _atom_site_symmetry_multiplicity
  _atom_site_fract_x
  _atom_site_fract_y
  _atom_site_fract_z
  _atom_site_occupancy
  Cr  Cr1       1.0  0.25000001432888913  0.24999997763565393  0.2499999880300239  1.0000
  Cr  Cr2       1.0  0.7500000108151663  0.7499999989927976  0.7500000412471941  1.0000
  Sb  Sb1       1.0  1.726975173694544e-08  5.686455817288465e-08  0.9999998223888381  1.0000
  I   I1        1.0  0.2624819440526938  0.26248197358248454  0.7375180300928347  1.0000
  I   I2        1.0  0.7375179505069882  0.7375180122672476  0.2624819858293537  1.0000
  I   I3        1.0  0.737518045981981  0.26248194310953643  0.26248198731520894  1.0000
  I   I4        1.0  0.2624819008566027  0.7375181380267489  0.7375180890939728  1.0000
  I   I5        1.0  0.2624819840676802  0.7375180027053493  0.26248197219932184  1.0000
  I   I6        1.0  0.7375181252505997  0.26248189093158586  0.737518092877402  1.0000
