data_image0
_chemical_formula_structural       Cr2SnI6
_chemical_formula_sum              "Cr2 Sn1 I6"
_cell_length_a       7.878717958466444
_cell_length_b       7.878717926625317
_cell_length_c       7.878717848381012
_cell_angle_alpha    59.99999999567253
_cell_angle_beta     60.00000038487798
_cell_angle_gamma    60.00000050189197

_space_group_name_H-M_alt    "P 1"
_space_group_IT_number       1

loop_
  _space_group_symop_operation_xyz
  'x, y, z'

loop_
  _atom_site_type_symbol
  _atom_site_label
  _atom_site_symmetry_multiplicity
  _atom_site_fract_x
  _atom_site_fract_y
  _atom_site_fract_z
  _atom_site_occupancy
  Cr  Cr1       1.0  0.2500000153986084  0.25000000222879726  0.24999997591778453  1.0000
  Cr  Cr2       1.0  0.7499999579934485  0.75000002067687  0.7500000410138257  1.0000
  Sn  Sn1       1.0  1.5529723196338414e-08  0.9999999797915302  4.2955118988108794e-08  1.0000
  I   I1        1.0  0.2609604564728157  0.2609604294445016  0.739039545014702  1.0000
  I   I2        1.0  0.7390395582378488  0.7390395530442265  0.26096041815790816  1.0000
  I   I3        1.0  0.7390395052616369  0.2609604920939255  0.2609604592039817  1.0000
  I   I4        1.0  0.2609604783006779  0.7390395354752348  0.7390395325413643  1.0000
  I   I5        1.0  0.2609604911462686  0.7390395200399583  0.26096047294256136  1.0000
  I   I6        1.0  0.7390395250299902  0.2609604624487696  0.7390395085358822  1.0000
