data_image0
_chemical_formula_structural       Cr2SiF6
_chemical_formula_sum              "Cr2 Si1 F6"
_cell_length_a       5.290647012598529
_cell_length_b       5.290647183325729
_cell_length_c       5.290647061244578
_cell_angle_alpha    59.999996016799145
_cell_angle_beta     59.99999696722658
_cell_angle_gamma    59.999996032078606

_space_group_name_H-M_alt    "P 1"
_space_group_IT_number       1

loop_
  _space_group_symop_operation_xyz
  'x, y, z'

loop_
  _atom_site_type_symbol
  _atom_site_label
  _atom_site_symmetry_multiplicity
  _atom_site_fract_x
  _atom_site_fract_y
  _atom_site_fract_z
  _atom_site_occupancy
  Cr  Cr1       1.0  0.2500001243598082  0.24999985090800605  0.2500000548290016  1.0000
  Cr  Cr2       1.0  0.7499998222338006  0.7500001314551837  0.7500000220155224  1.0000
  Si  Si1       1.0  2.515395533290483e-08  1.6204471396383585e-08  0.9999999831010414  1.0000
  F   F1        1.0  0.2284013310102478  0.22840128228226014  0.7715986764351175  1.0000
  F   F2        1.0  0.7715986959398631  0.7715987209152521  0.22840128365951298  1.0000
  F   F3        1.0  0.7715986552617071  0.2284012840669561  0.2284012897393019  1.0000
  F   F4        1.0  0.22840137772914365  0.7715987075559324  0.7715986825729105  1.0000
  F   F5        1.0  0.22840133381886113  0.7715987334982539  0.22840125148347373  1.0000
  F   F6        1.0  0.7715986578362765  0.22840125117986115  0.7715987600900068  1.0000
