data_image0
_chemical_formula_structural       Cr2SnF6
_chemical_formula_sum              "Cr2 Sn1 F6"
_cell_length_a       5.857138159318717
_cell_length_b       5.857138366871204
_cell_length_c       5.857138424453309
_cell_angle_alpha    59.999998513654
_cell_angle_beta     59.999998254571075
_cell_angle_gamma    59.99999740710896

_space_group_name_H-M_alt    "P 1"
_space_group_IT_number       1

loop_
  _space_group_symop_operation_xyz
  'x, y, z'

loop_
  _atom_site_type_symbol
  _atom_site_label
  _atom_site_symmetry_multiplicity
  _atom_site_fract_x
  _atom_site_fract_y
  _atom_site_fract_z
  _atom_site_occupancy
  Cr  Cr1       1.0  0.2499998239575565  0.2500001256632607  0.2500000580007084  1.0000
  Cr  Cr2       1.0  0.7500000133291373  0.7499999650569652  0.7499999453377392  1.0000
  Sn  Sn1       1.0  1.6331958009882647e-09  0.9999999832717645  0.9999999802304261  1.0000
  F   F1        1.0  0.2447184965120372  0.24471860998819947  0.7552815167980876  1.0000
  F   F2        1.0  0.75528151920214  0.755281359452311  0.2447185962592642  1.0000
  F   F3        1.0  0.7552815172685388  0.24471849823426567  0.244718560093846  1.0000
  F   F4        1.0  0.24471865168169618  0.7552813959291808  0.7552814695937319  1.0000
  F   F5        1.0  0.24471854252625125  0.7552814669931097  0.24471854761097508  1.0000
  F   F6        1.0  0.7552814748996727  0.24471855054108033  0.7552813988362389  1.0000
