data_image0
_chemical_formula_structural       Cr2SbBr6
_chemical_formula_sum              "Cr2 Sb1 Br6"
_cell_length_a       7.27232781520021
_cell_length_b       7.272327820865182
_cell_length_c       7.272327811296609
_cell_angle_alpha    59.999999808325455
_cell_angle_beta     59.999998546719006
_cell_angle_gamma    59.999999191537654

_space_group_name_H-M_alt    "P 1"
_space_group_IT_number       1

loop_
  _space_group_symop_operation_xyz
  'x, y, z'

loop_
  _atom_site_type_symbol
  _atom_site_label
  _atom_site_symmetry_multiplicity
  _atom_site_fract_x
  _atom_site_fract_y
  _atom_site_fract_z
  _atom_site_occupancy
  Cr  Cr1       1.0  0.24999996606901598  0.2499999567600435  0.2500000400853689  1.0000
  Cr  Cr2       1.0  0.7500000335525179  0.7500000167982828  0.7499999820744448  1.0000
  Sb  Sb1       1.0  0.9999999752694064  0.9999999646335493  1.0797465060142914e-08  1.0000
  Br  Br1       1.0  0.2578974235901883  0.257897382604284  0.7421026071496698  1.0000
  Br  Br2       1.0  0.7421026308338323  0.7421026313728426  0.25789736739949953  1.0000
  Br  Br3       1.0  0.7421025194421074  0.25789743651114955  0.257897465549811  1.0000
  Br  Br4       1.0  0.2578974267060071  0.7421026212530119  0.7421025206176625  1.0000
  Br  Br5       1.0  0.2578974443751989  0.7421025659607611  0.25789746900729404  1.0000
  Br  Br6       1.0  0.7421025743797315  0.257897431175199  0.7421025482979106  1.0000
