data_image0
_chemical_formula_structural       Cr2SeCl6
_chemical_formula_sum              "Cr2 Se1 Cl6"
_cell_length_a       6.86530463202216
_cell_length_b       6.865304663960805
_cell_length_c       6.865304980358345
_cell_angle_alpha    59.99999951409703
_cell_angle_beta     59.99999955352302
_cell_angle_gamma    60.00000020672278

_space_group_name_H-M_alt    "P 1"
_space_group_IT_number       1

loop_
  _space_group_symop_operation_xyz
  'x, y, z'

loop_
  _atom_site_type_symbol
  _atom_site_label
  _atom_site_symmetry_multiplicity
  _atom_site_fract_x
  _atom_site_fract_y
  _atom_site_fract_z
  _atom_site_occupancy
  Cr  Cr1       1.0  0.25000002784684283  0.25000005967649913  0.2499998439742223  1.0000
  Cr  Cr2       1.0  0.7499999316766335  0.7499999988492463  0.7499999178912659  1.0000
  Se  Se1       1.0  0.9999998547588206  1.7839628896683988e-09  1.751471734532045e-07  1.0000
  Cl  Cl1       1.0  0.25110790435409497  0.25110789527622607  0.7488921292037996  1.0000
  Cl  Cl2       1.0  0.7488921921874315  0.7488921810891512  0.25110786694514836  1.0000
  Cl  Cl3       1.0  0.7488922030763909  0.25110786570023463  0.25110789689123447  1.0000
  Cl  Cl4       1.0  0.2511080513340936  0.7488919287990062  0.7488920855131265  1.0000
  Cl  Cl5       1.0  0.2511078074804163  0.7488921321950249  0.25110792721277003  1.0000
  Cl  Cl6       1.0  0.7488920156021655  0.2511079370344989  0.7488921626223894  1.0000
