data_image0
_chemical_formula_structural       Cr2SnCl6
_chemical_formula_sum              "Cr2 Sn1 Cl6"
_cell_length_a       6.893705386658172
_cell_length_b       6.893705437898874
_cell_length_c       6.893705353281113
_cell_angle_alpha    59.99999981587196
_cell_angle_beta     60.000000034679516
_cell_angle_gamma    59.99999785046907

_space_group_name_H-M_alt    "P 1"
_space_group_IT_number       1

loop_
  _space_group_symop_operation_xyz
  'x, y, z'

loop_
  _atom_site_type_symbol
  _atom_site_label
  _atom_site_symmetry_multiplicity
  _atom_site_fract_x
  _atom_site_fract_y
  _atom_site_fract_z
  _atom_site_occupancy
  Cr  Cr1       1.0  0.2500000478210533  0.24999999839316153  0.24999993105952026  1.0000
  Cr  Cr2       1.0  0.7500000578694523  0.7499999454343131  0.750000011710265  1.0000
  Sn  Sn1       1.0  1.2790418748860998e-08  3.1979039390634245e-08  0.9999999544056917  1.0000
  Cl  Cl1       1.0  0.2527350060167928  0.2527350754171067  0.747264993705134  1.0000
  Cl  Cl2       1.0  0.7472649411053754  0.7472649270386107  0.2527350686634358  1.0000
  Cl  Cl3       1.0  0.7472649706938271  0.25273502738925047  0.2527350369683812  1.0000
  Cl  Cl4       1.0  0.25273501830351874  0.7472649750664659  0.7472649885060146  1.0000
  Cl  Cl5       1.0  0.25273501394447845  0.7472650101195774  0.2527350251423595  1.0000
  Cl  Cl6       1.0  0.7472649445979205  0.2527350083256597  0.7472649988611574  1.0000
