data_image0
_chemical_formula_structural       Cr2SbF6
_chemical_formula_sum              "Cr2 Sb1 F6"
_cell_length_a       5.861331944239093
_cell_length_b       5.861331914740636
_cell_length_c       5.861331826453468
_cell_angle_alpha    59.999997568757905
_cell_angle_beta     59.99999905597064
_cell_angle_gamma    59.99999723651893

_space_group_name_H-M_alt    "P 1"
_space_group_IT_number       1

loop_
  _space_group_symop_operation_xyz
  'x, y, z'

loop_
  _atom_site_type_symbol
  _atom_site_label
  _atom_site_symmetry_multiplicity
  _atom_site_fract_x
  _atom_site_fract_y
  _atom_site_fract_z
  _atom_site_occupancy
  Cr  Cr1       1.0  0.25000022644253245  0.2499998764140562  0.2499999820990887  1.0000
  Cr  Cr2       1.0  0.7500000746405419  0.7500000367011992  0.7500001012124744  1.0000
  Sb  Sb1       1.0  0.9999999837412374  6.059646940334756e-08  1.1953083219583248e-08  1.0000
  F   F1        1.0  0.2483269125186011  0.24832687373675452  0.751673046071249  1.0000
  F   F2        1.0  0.7516730381549467  0.7516731981830572  0.24832680206000302  1.0000
  F   F3        1.0  0.7516730328002387  0.24832693161228198  0.2483268817347743  1.0000
  F   F4        1.0  0.24832684812671457  0.7516731131435936  0.751673101862686  1.0000
  F   F5        1.0  0.24832682518859367  0.7516731414263501  0.24832696262039072  1.0000
  F   F6        1.0  0.7516730364170607  0.2483268490016529  0.7516731738162453  1.0000
