data_image0
_chemical_formula_structural       Cr2SbCl6
_chemical_formula_sum              "Cr2 Sb1 Cl6"
_cell_length_a       6.911375728345441
_cell_length_b       6.911375704668806
_cell_length_c       6.91137559348689
_cell_angle_alpha    60.00000164449059
_cell_angle_beta     60.00000031435957
_cell_angle_gamma    60.00000131546431

_space_group_name_H-M_alt    "P 1"
_space_group_IT_number       1

loop_
  _space_group_symop_operation_xyz
  'x, y, z'

loop_
  _atom_site_type_symbol
  _atom_site_label
  _atom_site_symmetry_multiplicity
  _atom_site_fract_x
  _atom_site_fract_y
  _atom_site_fract_z
  _atom_site_occupancy
  Cr  Cr1       1.0  0.24999999291971584  0.24999995236389225  0.24999990197910824  1.0000
  Cr  Cr2       1.0  0.7499999169393536  0.7500000325267099  0.7499999515297094  1.0000
  Sb  Sb1       1.0  1.7297935926432882e-08  0.9999999982279295  1.972797660142439e-08  1.0000
  Cl  Cl1       1.0  0.2525950169324947  0.2525948666723334  0.7474050649719934  1.0000
  Cl  Cl2       1.0  0.7474050560003217  0.7474050650561425  0.2525949419331681  1.0000
  Cl  Cl3       1.0  0.7474051537048748  0.25259494932094195  0.2525949220045874  1.0000
  Cl  Cl4       1.0  0.25259492626406094  0.7474050515183037  0.7474051148309587  1.0000
  Cl  Cl5       1.0  0.2525949027601552  0.7474050818732403  0.252594986598632  1.0000
  Cl  Cl6       1.0  0.7474050191298179  0.25259500225334164  0.7474050832920585  1.0000
