data_image0
_chemical_formula_structural       Cr2SnBr6
_chemical_formula_sum              "Cr2 Sn1 Br6"
_cell_length_a       7.2177598786626795
_cell_length_b       7.217760101922668
_cell_length_c       7.217759831613807
_cell_angle_alpha    59.99999993666706
_cell_angle_beta     59.99999894452768
_cell_angle_gamma    59.999998664683105

_space_group_name_H-M_alt    "P 1"
_space_group_IT_number       1

loop_
  _space_group_symop_operation_xyz
  'x, y, z'

loop_
  _atom_site_type_symbol
  _atom_site_label
  _atom_site_symmetry_multiplicity
  _atom_site_fract_x
  _atom_site_fract_y
  _atom_site_fract_z
  _atom_site_occupancy
  Cr  Cr1       1.0  0.24999999513072918  0.2500000347022737  0.2499999877298921  1.0000
  Cr  Cr2       1.0  0.7500000795561269  0.7500000039927297  0.7500000506785094  1.0000
  Sn  Sn1       1.0  0.9999999877505287  2.714958317375375e-08  3.688502951130001e-08  1.0000
  Br  Br1       1.0  0.2568472630299099  0.2568472902739377  0.7431527222858342  1.0000
  Br  Br2       1.0  0.7431526934184008  0.7431526567912251  0.25684732130281973  1.0000
  Br  Br3       1.0  0.7431527341673055  0.25684730232322983  0.25684723182550057  1.0000
  Br  Br4       1.0  0.2568472700644051  0.7431526837694588  0.7431527018550613  1.0000
  Br  Br5       1.0  0.25684730289312163  0.743152719155722  0.25684725001587577  1.0000
  Br  Br6       1.0  0.7431526696169795  0.25684728051175887  0.7431527079782805  1.0000
