data_image0
_chemical_formula_structural       Cr2SeF6
_chemical_formula_sum              "Cr2 Se1 F6"
_cell_length_a       5.526619956188494
_cell_length_b       5.526619441822258
_cell_length_c       5.526619908160002
_cell_angle_alpha    59.99999858373463
_cell_angle_beta     59.99999671239434
_cell_angle_gamma    59.999997244936395

_space_group_name_H-M_alt    "P 1"
_space_group_IT_number       1

loop_
  _space_group_symop_operation_xyz
  'x, y, z'

loop_
  _atom_site_type_symbol
  _atom_site_label
  _atom_site_symmetry_multiplicity
  _atom_site_fract_x
  _atom_site_fract_y
  _atom_site_fract_z
  _atom_site_occupancy
  Cr  Cr1       1.0  0.24999995620898563  0.25000002946818217  0.2500000022664174  1.0000
  Cr  Cr2       1.0  0.749999992470399  0.7499999487913025  0.750000121440178  1.0000
  Se  Se1       1.0  1.5849311481673906e-08  8.86433285515538e-09  0.9999999767866321  1.0000
  F   F1        1.0  0.25215130415054093  0.2521512780631803  0.747848677892185  1.0000
  F   F2        1.0  0.7478487304236537  0.7478487245732173  0.25215127306597185  1.0000
  F   F3        1.0  0.747848773295566  0.25215131318406475  0.25215124305969316  1.0000
  F   F4        1.0  0.25215120976199684  0.7478487249096657  0.7478487267846602  1.0000
  F   F5        1.0  0.25215124430779606  0.7478487814011128  0.2521512449442246  1.0000
  F   F6        1.0  0.747848775155784  0.2521512101548671  0.747848675683267  1.0000
