data_image0
_chemical_formula_structural       Cr2SI6
_chemical_formula_sum              "Cr2 S1 I6"
_cell_length_a       7.64982368259332
_cell_length_b       7.649823732702335
_cell_length_c       7.649823818097142
_cell_angle_alpha    60.00000039710384
_cell_angle_beta     59.99999873260668
_cell_angle_gamma    59.99999887778927

_space_group_name_H-M_alt    "P 1"
_space_group_IT_number       1

loop_
  _space_group_symop_operation_xyz
  'x, y, z'

loop_
  _atom_site_type_symbol
  _atom_site_label
  _atom_site_symmetry_multiplicity
  _atom_site_fract_x
  _atom_site_fract_y
  _atom_site_fract_z
  _atom_site_occupancy
  Cr  Cr1       1.0  0.2500000010526129  0.25000003032124  0.2499999872123519  1.0000
  Cr  Cr2       1.0  0.7500000032520986  0.7499999276606414  0.75000002232595  1.0000
  S   S1        1.0  0.9999999790665756  0.9999999631767561  0.999999939987398  1.0000
  I   I1        1.0  0.26480677911773526  0.2648068507593076  0.7351931854801946  1.0000
  I   I2        1.0  0.7351932497488192  0.7351931648589546  0.26480683394056165  1.0000
  I   I3        1.0  0.7351931627180567  0.2648068368131445  0.26480680910859117  1.0000
  I   I4        1.0  0.2648068543319002  0.7351931916132021  0.7351931862864683  1.0000
  I   I5        1.0  0.2648068427840571  0.735193235946672  0.26480677465572167  1.0000
  I   I6        1.0  0.7351931277320137  0.26480680528776024  0.7351932519816543  1.0000
