data_image0
_chemical_formula_structural       Cr2SiCl6
_chemical_formula_sum              "Cr2 Si1 Cl6"
_cell_length_a       6.621077055376602
_cell_length_b       6.621077077074071
_cell_length_c       6.621077058651036
_cell_angle_alpha    60.00000009843375
_cell_angle_beta     59.99999924700528
_cell_angle_gamma    60.00000028495156

_space_group_name_H-M_alt    "P 1"
_space_group_IT_number       1

loop_
  _space_group_symop_operation_xyz
  'x, y, z'

loop_
  _atom_site_type_symbol
  _atom_site_label
  _atom_site_symmetry_multiplicity
  _atom_site_fract_x
  _atom_site_fract_y
  _atom_site_fract_z
  _atom_site_occupancy
  Cr  Cr1       1.0  0.24999992298811494  0.2500000570911762  0.25000000415153245  1.0000
  Cr  Cr2       1.0  0.749999973487253  0.7500000547382197  0.7500000364255697  1.0000
  Si  Si1       1.0  0.9999999966178357  0.9999999944506996  5.5816894248654657e-08  1.0000
  Cl  Cl1       1.0  0.2388961312566824  0.23889605441016487  0.7611039226654995  1.0000
  Cl  Cl2       1.0  0.7611039588032348  0.7611038742923169  0.23889607190392032  1.0000
  Cl  Cl3       1.0  0.7611038612702256  0.23889612762295195  0.2388961199899038  1.0000
  Cl  Cl4       1.0  0.2388961250305852  0.761103876919969  0.761103840208345  1.0000
  Cl  Cl5       1.0  0.2388961543486085  0.7611038476820441  0.23889611182259332  1.0000
  Cl  Cl6       1.0  0.7611038799916877  0.2388961069171728  0.7611038432864512  1.0000
