data_image0
_chemical_formula_structural       Cr2SCl6
_chemical_formula_sum              "Cr2 S1 Cl6"
_cell_length_a       6.755247293460127
_cell_length_b       6.755247173290042
_cell_length_c       6.755247490877465
_cell_angle_alpha    59.999998501976144
_cell_angle_beta     59.99999897144127
_cell_angle_gamma    59.9999989579323

_space_group_name_H-M_alt    "P 1"
_space_group_IT_number       1

loop_
  _space_group_symop_operation_xyz
  'x, y, z'

loop_
  _atom_site_type_symbol
  _atom_site_label
  _atom_site_symmetry_multiplicity
  _atom_site_fract_x
  _atom_site_fract_y
  _atom_site_fract_z
  _atom_site_occupancy
  Cr  Cr1       1.0  0.25000007103823496  0.24999999163257908  0.25000007739514796  1.0000
  Cr  Cr2       1.0  0.7500000021758063  0.7499999513283789  0.7500001392326181  1.0000
  S   S1        1.0  0.9999999982047629  0.9999999746176149  0.9999999913838511  1.0000
  Cl  Cl1       1.0  0.25060633838218477  0.25060644796186476  0.7493935607990077  1.0000
  Cl  Cl2       1.0  0.7493935910369766  0.7493936853669808  0.25060632463347676  1.0000
  Cl  Cl3       1.0  0.7493935880200316  0.2506063453753542  0.25060632940225636  1.0000
  Cl  Cl4       1.0  0.25060637123708007  0.749393657415511  0.7493936167425577  1.0000
  Cl  Cl5       1.0  0.2506062972093426  0.749393618902151  0.25060635921739355  1.0000
  Cl  Cl6       1.0  0.7493937307501731  0.2506063367499993  0.7493935953898744  1.0000
