data_image0
_chemical_formula_structural       Cr2SbI6
_chemical_formula_sum              "Cr2 Sb1 I6"
_cell_length_a       7.968915660635551
_cell_length_b       7.968915570994425
_cell_length_c       7.968915425644022
_cell_angle_alpha    59.9999996054164
_cell_angle_beta     59.99999993764398
_cell_angle_gamma    59.99999964870613

_space_group_name_H-M_alt    "P 1"
_space_group_IT_number       1

loop_
  _space_group_symop_operation_xyz
  'x, y, z'

loop_
  _atom_site_type_symbol
  _atom_site_label
  _atom_site_symmetry_multiplicity
  _atom_site_fract_x
  _atom_site_fract_y
  _atom_site_fract_z
  _atom_site_occupancy
  Cr  Cr1       1.0  0.2499999933315866  0.25000001791363774  0.24999997762815898  1.0000
  Cr  Cr2       1.0  0.7500000128397548  0.7500000030231199  0.7500000045646718  1.0000
  Sb  Sb1       1.0  2.756127218094727e-08  0.9999999477453037  9.2658770521126e-08  1.0000
  I   I1        1.0  0.26249154569412814  0.2624915253704555  0.7375084722696834  1.0000
  I   I2        1.0  0.7375084987666437  0.7375084632913428  0.26249154581706496  1.0000
  I   I3        1.0  0.7375085156252991  0.2624915073747733  0.26249153516311874  1.0000
  I   I4        1.0  0.26249153141205855  0.7375084474751632  0.7375084746986255  1.0000
  I   I5        1.0  0.26249148881103646  0.7375085032408426  0.2624914830170881  1.0000
  I   I6        1.0  0.7375083885293368  0.2624915868565426  0.7375084160720814  1.0000
