data_image0
_chemical_formula_structural       Cr2SbF6
_chemical_formula_sum              "Cr2 Sb1 F6"
_cell_length_a       5.861592669979793
_cell_length_b       5.861594224349866
_cell_length_c       5.86159279037546
_cell_angle_alpha    60.000001163583775
_cell_angle_beta     60.00000217073152
_cell_angle_gamma    60.00000210216475

_space_group_name_H-M_alt    "P 1"
_space_group_IT_number       1

loop_
  _space_group_symop_operation_xyz
  'x, y, z'

loop_
  _atom_site_type_symbol
  _atom_site_label
  _atom_site_symmetry_multiplicity
  _atom_site_fract_x
  _atom_site_fract_y
  _atom_site_fract_z
  _atom_site_occupancy
  Cr  Cr1       1.0  0.25000004705366125  0.2500002557815469  0.24999977516211966  1.0000
  Cr  Cr2       1.0  0.7500000158156357  0.7499999023165305  0.7500001891736524  1.0000
  Sb  Sb1       1.0  0.9999999541143194  0.9999999958211238  6.26604737053659e-09  1.0000
  F   F1        1.0  0.24830292859665362  0.24830310966516772  0.7516970004472447  1.0000
  F   F2        1.0  0.7516970445532234  0.7516968979932551  0.24830298843089835  1.0000
  F   F3        1.0  0.7516970065620281  0.248303044777312  0.24830292978218493  1.0000
  F   F4        1.0  0.24830301261352586  0.7516969252711923  0.7516970583001236  1.0000
  F   F5        1.0  0.24830307776661145  0.7516968991929105  0.24830299118491522  1.0000
  F   F6        1.0  0.7516968574388612  0.2483029977252028  0.7516970822717153  1.0000
