data_image0
_chemical_formula_structural       Cr2SBr6
_chemical_formula_sum              "Cr2 S1 Br6"
_cell_length_a       7.0755228442812115
_cell_length_b       7.075522886720366
_cell_length_c       7.075522490283034
_cell_angle_alpha    60.000001829700814
_cell_angle_beta     60.00000170015877
_cell_angle_gamma    60.00000080669142

_space_group_name_H-M_alt    "P 1"
_space_group_IT_number       1

loop_
  _space_group_symop_operation_xyz
  'x, y, z'

loop_
  _atom_site_type_symbol
  _atom_site_label
  _atom_site_symmetry_multiplicity
  _atom_site_fract_x
  _atom_site_fract_y
  _atom_site_fract_z
  _atom_site_occupancy
  Cr  Cr1       1.0  0.2500000366273756  0.25000000244164694  0.2500000009791018  1.0000
  Cr  Cr2       1.0  0.7500000302298157  0.749999962319976  0.7500000596126507  1.0000
  S   S1        1.0  0.9999999962920486  0.9999999376854328  3.5837905624772725e-08  1.0000
  Br  Br1       1.0  0.2554926009386595  0.2554926331639649  0.7445073560968614  1.0000
  Br  Br2       1.0  0.7445073739995487  0.7445074164147084  0.25549253986039816  1.0000
  Br  Br3       1.0  0.7445074007608791  0.2554926011247517  0.25549273034503733  1.0000
  Br  Br4       1.0  0.2554925911729604  0.7445074415300806  0.7445073245218168  1.0000
  Br  Br5       1.0  0.2554926656212408  0.7445073448112982  0.2554927046172062  1.0000
  Br  Br6       1.0  0.7445072978112024  0.25549268053393226  0.7445072374761208  1.0000
