data_image0
_chemical_formula_structural       Cr2SeI6
_chemical_formula_sum              "Cr2 Se1 I6"
_cell_length_a       7.794833691281148
_cell_length_b       7.794833605794051
_cell_length_c       7.794833710532033
_cell_angle_alpha    59.99999999956838
_cell_angle_beta     59.99999909637343
_cell_angle_gamma    60.00000033854264

_space_group_name_H-M_alt    "P 1"
_space_group_IT_number       1

loop_
  _space_group_symop_operation_xyz
  'x, y, z'

loop_
  _atom_site_type_symbol
  _atom_site_label
  _atom_site_symmetry_multiplicity
  _atom_site_fract_x
  _atom_site_fract_y
  _atom_site_fract_z
  _atom_site_occupancy
  Cr  Cr1       1.0  0.24999999946247684  0.25000000115306303  0.24999999701980602  1.0000
  Cr  Cr2       1.0  0.7500000054502406  0.7499999956030571  0.750000009416693  1.0000
  Se  Se1       1.0  0.999999962172516  1.5712264034647936e-08  0.9999999969456993  1.0000
  I   I1        1.0  0.26315501865760965  0.26315499816450116  0.7368449946178798  1.0000
  I   I2        1.0  0.7368449851331811  0.7368449797369014  0.26315500384632723  1.0000
  I   I3        1.0  0.73684498428078  0.263155021835682  0.2631550008989058  1.0000
  I   I4        1.0  0.2631550170556024  0.7368449812053437  0.736845001617506  1.0000
  I   I5        1.0  0.26315503620999603  0.7368449710646999  0.2631550125493077  1.0000
  I   I6        1.0  0.7368449838604085  0.26315503354755254  0.7368449939263905  1.0000
