data_image0
_chemical_formula_structural       Cr2SeBr6
_chemical_formula_sum              "Cr2 Se1 Br6"
_cell_length_a       7.275197094506797
_cell_length_b       7.2751970796798275
_cell_length_c       7.275197042244494
_cell_angle_alpha    60.00000466342867
_cell_angle_beta     60.0000011460816
_cell_angle_gamma    60.000003184182226

_space_group_name_H-M_alt    "P 1"
_space_group_IT_number       1

loop_
  _space_group_symop_operation_xyz
  'x, y, z'

loop_
  _atom_site_type_symbol
  _atom_site_label
  _atom_site_symmetry_multiplicity
  _atom_site_fract_x
  _atom_site_fract_y
  _atom_site_fract_z
  _atom_site_occupancy
  Cr  Cr1       1.0  0.24999998360297354  0.2500001325923704  0.24999992996130746  1.0000
  Cr  Cr2       1.0  0.7500000790788346  0.7499996082379219  0.7499999060913521  1.0000
  Se  Se1       1.0  4.772802201944262e-08  0.999999966330957  9.33114345939794e-08  1.0000
  Br  Br1       1.0  0.25365237909226146  0.2536525208505185  0.7463475738202988  1.0000
  Br  Br2       1.0  0.7463475611321884  0.7463474825983658  0.2536525509049221  1.0000
  Br  Br3       1.0  0.7463475053412434  0.25365250966397695  0.25365242529137255  1.0000
  Br  Br4       1.0  0.25365253977970686  0.7463475695402634  0.7463475403812624  1.0000
  Br  Br5       1.0  0.253652466325555  0.7463475478190378  0.253652444567837  1.0000
  Br  Br6       1.0  0.746347436428276  0.2536526727952044  0.746347531205093  1.0000
