data_image0
_chemical_formula_structural       Cr2SF6
_chemical_formula_sum              "Cr2 S1 F6"
_cell_length_a       4.510835273619483
_cell_length_b       4.510835590825129
_cell_length_c       4.510835603281556
_cell_angle_alpha    59.999997969117885
_cell_angle_beta     59.99999870617874
_cell_angle_gamma    60.00000068667905

_space_group_name_H-M_alt    "P 1"
_space_group_IT_number       1

loop_
  _space_group_symop_operation_xyz
  'x, y, z'

loop_
  _atom_site_type_symbol
  _atom_site_label
  _atom_site_symmetry_multiplicity
  _atom_site_fract_x
  _atom_site_fract_y
  _atom_site_fract_z
  _atom_site_occupancy
  Cr  Cr1       1.0  0.25000001490823875  0.24999998351573724  0.24999999444912593  1.0000
  Cr  Cr2       1.0  0.7499999719356648  0.7500000537216779  0.7499999504195949  1.0000
  S   S1        1.0  0.9999999718684277  0.9999999538430012  5.2662475137160635e-08  1.0000
  F   F1        1.0  0.24714863849135885  0.24714863267244644  0.752851377685007  1.0000
  F   F2        1.0  0.7528513744167621  0.7528513801289084  0.2471486749969596  1.0000
  F   F3        1.0  0.7528513079624835  0.24714865449233306  0.24714871557883836  1.0000
  F   F4        1.0  0.24714872289113912  0.7528513121520257  0.7528512736179306  1.0000
  F   F5        1.0  0.24714865518413998  0.7528513905810943  0.247148626746193  1.0000
  F   F6        1.0  0.7528513512334251  0.2471486493714382  0.7528513224963276  1.0000
