data_image0
_chemical_formula_structural       Cr2SbBr6
_chemical_formula_sum              "Cr2 Sb1 Br6"
_cell_length_a       7.2722137850078195
_cell_length_b       7.272213792984178
_cell_length_c       7.272213964539972
_cell_angle_alpha    60.00000015372848
_cell_angle_beta     60.000001497282774
_cell_angle_gamma    59.999999446220386

_space_group_name_H-M_alt    "P 1"
_space_group_IT_number       1

loop_
  _space_group_symop_operation_xyz
  'x, y, z'

loop_
  _atom_site_type_symbol
  _atom_site_label
  _atom_site_symmetry_multiplicity
  _atom_site_fract_x
  _atom_site_fract_y
  _atom_site_fract_z
  _atom_site_occupancy
  Cr  Cr1       1.0  0.249999939441732  0.25000001700530655  0.2500000069746322  1.0000
  Cr  Cr2       1.0  0.7500000135011801  0.749999946599045  0.7500000057964796  1.0000
  Sb  Sb1       1.0  3.018520747957171e-08  0.9999999713695669  1.1598486652803321e-08  1.0000
  Br  Br1       1.0  0.257898484493894  0.2578984806202285  0.7421015492761301  1.0000
  Br  Br2       1.0  0.7421015276636197  0.7421014863524089  0.2578984872074212  1.0000
  Br  Br3       1.0  0.74210152487265  0.25789845503275166  0.257898436096168  1.0000
  Br  Br4       1.0  0.2578985478148608  0.7421015018350264  0.7421015256713215  1.0000
  Br  Br5       1.0  0.2578984080629185  0.7421015918852116  0.25789848978033136  1.0000
  Br  Br6       1.0  0.7421015284375221  0.2578985401334515  0.7421014827573849  1.0000
