data_image0
_chemical_formula_structural       Cr2TaF6
_chemical_formula_sum              "Cr2 Ta1 F6"
_cell_length_a       5.438171405281185
_cell_length_b       5.438170380500874
_cell_length_c       5.438170297533572
_cell_angle_alpha    59.99999920244183
_cell_angle_beta     60.00000128852878
_cell_angle_gamma    59.99999733085303

_space_group_name_H-M_alt    "P 1"
_space_group_IT_number       1

loop_
  _space_group_symop_operation_xyz
  'x, y, z'

loop_
  _atom_site_type_symbol
  _atom_site_label
  _atom_site_symmetry_multiplicity
  _atom_site_fract_x
  _atom_site_fract_y
  _atom_site_fract_z
  _atom_site_occupancy
  Cr  Cr1       1.0  0.250000099877878  0.25000003506223695  0.24999990896652433  1.0000
  Cr  Cr2       1.0  0.7500000164182016  0.7499999993367508  0.7499999876310179  1.0000
  Ta  Ta1       1.0  3.937906734411977e-08  0.9999999391925772  0.9999999757759549  1.0000
  F   F1        1.0  0.25271149233697116  0.25271159412610217  0.747288495814485  1.0000
  F   F2        1.0  0.7472883337921891  0.7472884763069122  0.2527115995648126  1.0000
  F   F3        1.0  0.7472883919460528  0.25271157145245227  0.25271161524242874  1.0000
  F   F4        1.0  0.25271158751521633  0.7472883638529569  0.7472884691957583  1.0000
  F   F5        1.0  0.2527115815122787  0.7472884060117133  0.25271158374393776  1.0000
  F   F6        1.0  0.7472884658511874  0.2527116058660065  0.7472884174238691  1.0000
