data_image0
_chemical_formula_structural       Cr2TeBr6
_chemical_formula_sum              "Cr2 Te1 Br6"
_cell_length_a       7.372183438742159
_cell_length_b       7.372183526847835
_cell_length_c       7.372183349523189
_cell_angle_alpha    60.00000016953592
_cell_angle_beta     59.999999195343285
_cell_angle_gamma    60.00000138345313

_space_group_name_H-M_alt    "P 1"
_space_group_IT_number       1

loop_
  _space_group_symop_operation_xyz
  'x, y, z'

loop_
  _atom_site_type_symbol
  _atom_site_label
  _atom_site_symmetry_multiplicity
  _atom_site_fract_x
  _atom_site_fract_y
  _atom_site_fract_z
  _atom_site_occupancy
  Cr  Cr1       1.0  0.24999997672870067  0.25000008951313063  0.2499999627735083  1.0000
  Cr  Cr2       1.0  0.7500000002161523  0.7499999362783044  0.7500001428730177  1.0000
  Te  Te1       1.0  1.2720373851275827e-08  0.9999999900321676  0.9999999864156769  1.0000
  Br  Br1       1.0  0.258114198056322  0.258114287888014  0.7418856979060685  1.0000
  Br  Br2       1.0  0.7418857662631716  0.7418857428873377  0.25811417960818506  1.0000
  Br  Br3       1.0  0.7418857131498532  0.2581143235193436  0.2581142059337796  1.0000
  Br  Br4       1.0  0.25811425550477524  0.7418856989494808  0.7418857793692903  1.0000
  Br  Br5       1.0  0.2581143040809548  0.7418857118096667  0.25811428897482697  1.0000
  Br  Br6       1.0  0.7418857807183415  0.2581142159647488  0.7418857574949763  1.0000
