data_image0
_chemical_formula_structural       Cr2TaBr6
_chemical_formula_sum              "Cr2 Ta1 Br6"
_cell_length_a       7.297151366523102
_cell_length_b       7.297151696619366
_cell_length_c       7.2971512863718155
_cell_angle_alpha    59.99999835021604
_cell_angle_beta     59.99999895290273
_cell_angle_gamma    59.99999870234875

_space_group_name_H-M_alt    "P 1"
_space_group_IT_number       1

loop_
  _space_group_symop_operation_xyz
  'x, y, z'

loop_
  _atom_site_type_symbol
  _atom_site_label
  _atom_site_symmetry_multiplicity
  _atom_site_fract_x
  _atom_site_fract_y
  _atom_site_fract_z
  _atom_site_occupancy
  Cr  Cr1       1.0  0.24999999839618373  0.25000003698269085  0.2500000027270398  1.0000
  Cr  Cr2       1.0  0.7499999769046204  0.7500000186367577  0.7499999798844799  1.0000
  Ta  Ta1       1.0  0.9999999715168169  1.6599760287663617e-15  0.999999975870453  1.0000
  Br  Br1       1.0  0.24569284646954176  0.24569278210618012  0.7543071757034232  1.0000
  Br  Br2       1.0  0.7543071576353493  0.754307201342601  0.24569283681377488  1.0000
  Br  Br3       1.0  0.7543072163310921  0.24569277644288334  0.24569278703349703  1.0000
  Br  Br4       1.0  0.24569276141600835  0.7543072338600992  0.7543072389394733  1.0000
  Br  Br5       1.0  0.2456927983839279  0.7543072111032273  0.24569280075705888  1.0000
  Br  Br6       1.0  0.7543072618563704  0.2456927605968392  0.7543072128635552  1.0000
