data_image0
_chemical_formula_structural       Cr2TeCl6
_chemical_formula_sum              "Cr2 Te1 Cl6"
_cell_length_a       6.994258881026108
_cell_length_b       6.9942588401140915
_cell_length_c       6.994259140234067
_cell_angle_alpha    59.999999710867165
_cell_angle_beta     59.99999884062425
_cell_angle_gamma    59.99999997569831

_space_group_name_H-M_alt    "P 1"
_space_group_IT_number       1

loop_
  _space_group_symop_operation_xyz
  'x, y, z'

loop_
  _atom_site_type_symbol
  _atom_site_label
  _atom_site_symmetry_multiplicity
  _atom_site_fract_x
  _atom_site_fract_y
  _atom_site_fract_z
  _atom_site_occupancy
  Cr  Cr1       1.0  0.2500001336424068  0.2499999101113283  0.24999990888052276  1.0000
  Cr  Cr2       1.0  0.749999959591876  0.7499999894925966  0.7499999778612638  1.0000
  Te  Te1       1.0  4.663628739387174e-10  3.327036293657033e-08  3.174293318379154e-08  1.0000
  Cl  Cl1       1.0  0.25311228870242647  0.25311230977210825  0.746887794522358  1.0000
  Cl  Cl2       1.0  0.7468876963861223  0.7468876913939781  0.25311236716257457  1.0000
  Cl  Cl3       1.0  0.746887703860234  0.25311226519030144  0.25311232975112596  1.0000
  Cl  Cl4       1.0  0.25311229857015843  0.7468878077697217  0.7468875457391819  1.0000
  Cl  Cl5       1.0  0.2531123828729872  0.7468875984426728  0.2531122561009231  1.0000
  Cl  Cl6       1.0  0.7468875307421886  0.25311239922126766  0.7468877729322334  1.0000
