data_image0
_chemical_formula_structural       Cr2TeI6
_chemical_formula_sum              "Cr2 Te1 I6"
_cell_length_a       7.9882449298418905
_cell_length_b       7.988244742794622
_cell_length_c       7.988244966231518
_cell_angle_alpha    59.999999895090134
_cell_angle_beta     60.000000284003555
_cell_angle_gamma    60.000000665699034

_space_group_name_H-M_alt    "P 1"
_space_group_IT_number       1

loop_
  _space_group_symop_operation_xyz
  'x, y, z'

loop_
  _atom_site_type_symbol
  _atom_site_label
  _atom_site_symmetry_multiplicity
  _atom_site_fract_x
  _atom_site_fract_y
  _atom_site_fract_z
  _atom_site_occupancy
  Cr  Cr1       1.0  0.2500000040121778  0.25000000387578597  0.25000001556298407  1.0000
  Cr  Cr2       1.0  0.7500000062545347  0.7500000116273573  0.7499999694622285  1.0000
  Te  Te1       1.0  2.0004030893512326e-08  0.9999999616704014  4.045876933062783e-08  1.0000
  I   I1        1.0  0.2623134144581119  0.26231345746930634  0.7376865644924158  1.0000
  I   I2        1.0  0.7376866034594759  0.737686561100205  0.2623134239370511  1.0000
  I   I3        1.0  0.7376865457275507  0.2623134306877071  0.2623134195674895  1.0000
  I   I4        1.0  0.26231344609840335  0.7376865664172282  0.7376865625959357  1.0000
  I   I5        1.0  0.2623133710705666  0.7376865857749922  0.26231343574522686  1.0000
  I   I6        1.0  0.7376865824859664  0.2623134220622304  0.7376865601867652  1.0000
