data_image0
_chemical_formula_structural       Cr2TaCl6
_chemical_formula_sum              "Cr2 Ta1 Cl6"
_cell_length_a       6.989344618673383
_cell_length_b       6.989344816465836
_cell_length_c       6.98934474732234
_cell_angle_alpha    60.00000063937258
_cell_angle_beta     59.99999937251177
_cell_angle_gamma    60.00000060119716

_space_group_name_H-M_alt    "P 1"
_space_group_IT_number       1

loop_
  _space_group_symop_operation_xyz
  'x, y, z'

loop_
  _atom_site_type_symbol
  _atom_site_label
  _atom_site_symmetry_multiplicity
  _atom_site_fract_x
  _atom_site_fract_y
  _atom_site_fract_z
  _atom_site_occupancy
  Cr  Cr1       1.0  0.2500000744287475  0.25000005546134796  0.2500000080539071  1.0000
  Cr  Cr2       1.0  0.749999877032287  0.750000159374833  0.7500001664553217  1.0000
  Ta  Ta1       1.0  0.999999990605751  0.9999999439263099  0.9999999912422403  1.0000
  Cl  Cl1       1.0  0.24154537788533753  0.24154520671943805  0.758454652817304  1.0000
  Cl  Cl2       1.0  0.7584547089697052  0.7584546366285456  0.2415453206819278  1.0000
  Cl  Cl3       1.0  0.7584546051760339  0.24154527364624045  0.24154535998513055  1.0000
  Cl  Cl4       1.0  0.24154538353580496  0.7584547203997849  0.7584545514679507  1.0000
  Cl  Cl5       1.0  0.24154536835212895  0.7584546572038463  0.24154522638808038  1.0000
  Cl  Cl6       1.0  0.7584546322077725  0.2415453508606013  0.7584546978852456  1.0000
