data_image0
_chemical_formula_structural       Cr2TaBr6
_chemical_formula_sum              "Cr2 Ta1 Br6"
_cell_length_a       7.297297766517518
_cell_length_b       7.297297928597391
_cell_length_c       7.297297927240471
_cell_angle_alpha    59.99999870955399
_cell_angle_beta     60.00000070902348
_cell_angle_gamma    60.00000053120656

_space_group_name_H-M_alt    "P 1"
_space_group_IT_number       1

loop_
  _space_group_symop_operation_xyz
  'x, y, z'

loop_
  _atom_site_type_symbol
  _atom_site_label
  _atom_site_symmetry_multiplicity
  _atom_site_fract_x
  _atom_site_fract_y
  _atom_site_fract_z
  _atom_site_occupancy
  Cr  Cr1       1.0  0.25000003319942904  0.2500000175577546  0.24999995246579354  1.0000
  Cr  Cr2       1.0  0.7500000173015458  0.7499999150482369  0.7500000523212207  1.0000
  Ta  Ta1       1.0  0.999999962119173  0.9999999949649366  8.038386565915978e-08  1.0000
  Br  Br1       1.0  0.24568963198626936  0.24568964540492266  0.7543103304258678  1.0000
  Br  Br2       1.0  0.7543103531412442  0.7543103409083959  0.24568963497199378  1.0000
  Br  Br3       1.0  0.7543103063246145  0.24568975353088277  0.24568962485838358  1.0000
  Br  Br4       1.0  0.24568958841316696  0.7543104090095997  0.7543103332503861  1.0000
  Br  Br5       1.0  0.2456897122157242  0.7543102765885005  0.245689652614766  1.0000
  Br  Br6       1.0  0.7543103867791855  0.24568965769584517  0.7543103462712878  1.0000
