data_image0
_chemical_formula_structural       Cr2TiCl6
_chemical_formula_sum              "Cr2 Ti1 Cl6"
_cell_length_a       6.750548185195645
_cell_length_b       6.750548384416103
_cell_length_c       6.75054830263632
_cell_angle_alpha    60.00000067975972
_cell_angle_beta     59.99999990939191
_cell_angle_gamma    60.00000093224883

_space_group_name_H-M_alt    "P 1"
_space_group_IT_number       1

loop_
  _space_group_symop_operation_xyz
  'x, y, z'

loop_
  _atom_site_type_symbol
  _atom_site_label
  _atom_site_symmetry_multiplicity
  _atom_site_fract_x
  _atom_site_fract_y
  _atom_site_fract_z
  _atom_site_occupancy
  Cr  Cr1       1.0  0.2500000964566984  0.25000007080003356  0.24999994280280144  1.0000
  Cr  Cr2       1.0  0.7499999604181109  0.7499999112280553  0.7500001805044462  1.0000
  Ti  Ti1       1.0  2.2219069091134846e-08  3.084292032280821e-08  0.9999999853198946  1.0000
  Cl  Cl1       1.0  0.2463190032587203  0.24631905782553218  0.7536809541944105  1.0000
  Cl  Cl2       1.0  0.7536809944561128  0.7536809169453986  0.24631898900539836  1.0000
  Cl  Cl3       1.0  0.7536808753011955  0.24631910716022207  0.24631898113823988  1.0000
  Cl  Cl4       1.0  0.24631905096868012  0.7536808766821558  0.7536809991737683  1.0000
  Cl  Cl5       1.0  0.24631905896010875  0.7536809068499254  0.24631902867128566  1.0000
  Cl  Cl6       1.0  0.7536809367151115  0.24631911509253068  0.7536809438102074  1.0000
