data_image0
_chemical_formula_structural       Cr2TiI6
_chemical_formula_sum              "Cr2 Ti1 I6"
_cell_length_a       7.847963812272449
_cell_length_b       7.847963740767456
_cell_length_c       7.847963804233323
_cell_angle_alpha    59.99999957354584
_cell_angle_beta     59.999999822960206
_cell_angle_gamma    60.00000012965949

_space_group_name_H-M_alt    "P 1"
_space_group_IT_number       1

loop_
  _space_group_symop_operation_xyz
  'x, y, z'

loop_
  _atom_site_type_symbol
  _atom_site_label
  _atom_site_symmetry_multiplicity
  _atom_site_fract_x
  _atom_site_fract_y
  _atom_site_fract_z
  _atom_site_occupancy
  Cr  Cr1       1.0  0.25000001014181966  0.2499999722106162  0.2500000155005536  1.0000
  Cr  Cr2       1.0  0.7499999665764869  0.7500000243125147  0.7499999761656108  1.0000
  Ti  Ti1       1.0  0.9999999961954347  0.9999999937576425  7.383111824931062e-08  1.0000
  I   I1        1.0  0.24671897308088128  0.24671896519644723  0.7532810704071828  1.0000
  I   I2        1.0  0.7532810387557147  0.7532810672202394  0.24671896220601108  1.0000
  I   I3        1.0  0.7532810504097869  0.24671891227358345  0.24671893765860528  1.0000
  I   I4        1.0  0.24671902121877431  0.753280993735365  0.7532809919213772  1.0000
  I   I5        1.0  0.24671894296929026  0.753281081637344  0.2467189272834422  1.0000
  I   I6        1.0  0.7532809990004191  0.24671898823348695  0.7532810425347392  1.0000
