data_image0
_chemical_formula_structural       Cr2TeF6
_chemical_formula_sum              "Cr2 Te1 F6"
_cell_length_a       5.659426611214915
_cell_length_b       5.65942765848527
_cell_length_c       5.659427556223087
_cell_angle_alpha    59.999997500096576
_cell_angle_beta     59.999998327896485
_cell_angle_gamma    59.999997455036535

_space_group_name_H-M_alt    "P 1"
_space_group_IT_number       1

loop_
  _space_group_symop_operation_xyz
  'x, y, z'

loop_
  _atom_site_type_symbol
  _atom_site_label
  _atom_site_symmetry_multiplicity
  _atom_site_fract_x
  _atom_site_fract_y
  _atom_site_fract_z
  _atom_site_occupancy
  Cr  Cr1       1.0  0.24999990613694087  0.25000003894038886  0.2500000380542326  1.0000
  Cr  Cr2       1.0  0.7500001217989885  0.7499998982491578  0.7500001048019045  1.0000
  Te  Te1       1.0  0.9999999332247714  7.790685116490331e-08  0.999999962628848  1.0000
  F   F1        1.0  0.2585874522015957  0.2585875425690924  0.741412525958909  1.0000
  F   F2        1.0  0.7414126640866435  0.7414123621592714  0.25858744406068884  1.0000
  F   F3        1.0  0.7414124738212831  0.2585875755263151  0.25858746941918515  1.0000
  F   F4        1.0  0.25858749018238675  0.7414125044924561  0.7414125739117169  1.0000
  F   F5        1.0  0.25858745660745014  0.7414125306382233  0.25858747334603727  1.0000
  F   F6        1.0  0.7414124517313799  0.2585875082630564  0.7414124522814924  1.0000
