data_image0
_chemical_formula_structural       Cr2TiBr6
_chemical_formula_sum              "Cr2 Ti1 Br6"
_cell_length_a       7.137566870630877
_cell_length_b       7.137566928309703
_cell_length_c       7.137566721088375
_cell_angle_alpha    59.99999950614386
_cell_angle_beta     59.99999909466334
_cell_angle_gamma    59.99999919745818

_space_group_name_H-M_alt    "P 1"
_space_group_IT_number       1

loop_
  _space_group_symop_operation_xyz
  'x, y, z'

loop_
  _atom_site_type_symbol
  _atom_site_label
  _atom_site_symmetry_multiplicity
  _atom_site_fract_x
  _atom_site_fract_y
  _atom_site_fract_z
  _atom_site_occupancy
  Cr  Cr1       1.0  0.24999999872560733  0.2500000395313738  0.24999999744427204  1.0000
  Cr  Cr2       1.0  0.7499999755719085  0.7500000396620916  0.7500000785282689  1.0000
  Ti  Ti1       1.0  3.931736822076228e-08  0.999999974261294  4.2246987916349253e-08  1.0000
  Br  Br1       1.0  0.2475215118644359  0.2475215016741531  0.7524784593470487  1.0000
  Br  Br2       1.0  0.7524784348019193  0.7524784711326655  0.24752153232232665  1.0000
  Br  Br3       1.0  0.7524785091275129  0.24752151152506738  0.2475214678182695  1.0000
  Br  Br4       1.0  0.24752150252756763  0.7524784750090604  0.7524784844930876  1.0000
  Br  Br5       1.0  0.24752151355956634  0.7524784905791613  0.24752147242223585  1.0000
  Br  Br6       1.0  0.7524785110377458  0.24752149595496642  0.7524784748190431  1.0000
