data_image0
_chemical_formula_structural       Cr2TaI6
_chemical_formula_sum              "Cr2 Ta1 I6"
_cell_length_a       7.995158817995586
_cell_length_b       7.995158841503899
_cell_length_c       7.995158972419725
_cell_angle_alpha    59.99999971938127
_cell_angle_beta     59.99999918337711
_cell_angle_gamma    60.00000090054162

_space_group_name_H-M_alt    "P 1"
_space_group_IT_number       1

loop_
  _space_group_symop_operation_xyz
  'x, y, z'

loop_
  _atom_site_type_symbol
  _atom_site_label
  _atom_site_symmetry_multiplicity
  _atom_site_fract_x
  _atom_site_fract_y
  _atom_site_fract_z
  _atom_site_occupancy
  Cr  Cr1       1.0  0.2500000115801244  0.24999999757428937  0.24999996728690713  1.0000
  Cr  Cr2       1.0  0.7499999993049364  0.750000008041449  0.7500000219857539  1.0000
  Ta  Ta1       1.0  1.2720390930926628e-08  3.98283104520741e-08  2.125441037535133e-08  1.0000
  I   I1        1.0  0.24507090006632598  0.24507091660015295  0.7549290902677182  1.0000
  I   I2        1.0  0.7549290476221832  0.7549290706332874  0.2450709185315008  1.0000
  I   I3        1.0  0.7549290682743476  0.24507091606871428  0.24507092465564223  1.0000
  I   I4        1.0  0.24507094558682094  0.7549290849514496  0.7549290429131283  1.0000
  I   I5        1.0  0.245070944506177  0.7549290432719938  0.2450709508945544  1.0000
  I   I6        1.0  0.7549290714124995  0.24507092557915047  0.7549290680019212  1.0000
