data_image0
_chemical_formula_structural       Cr2TaCl6
_chemical_formula_sum              "Cr2 Ta1 Cl6"
_cell_length_a       6.989870531700613
_cell_length_b       6.98987019067752
_cell_length_c       6.989870270447457
_cell_angle_alpha    59.999999689591725
_cell_angle_beta     59.999997549169734
_cell_angle_gamma    60.00000035771128

_space_group_name_H-M_alt    "P 1"
_space_group_IT_number       1

loop_
  _space_group_symop_operation_xyz
  'x, y, z'

loop_
  _atom_site_type_symbol
  _atom_site_label
  _atom_site_symmetry_multiplicity
  _atom_site_fract_x
  _atom_site_fract_y
  _atom_site_fract_z
  _atom_site_occupancy
  Cr  Cr1       1.0  0.2500000750959675  0.25000004589467234  0.2500000263399552  1.0000
  Cr  Cr2       1.0  0.7500001256892412  0.7499999607147305  0.7500001457717563  1.0000
  Ta  Ta1       1.0  0.9999999914223715  4.5556448087623346e-08  0.9999999142704298  1.0000
  Cl  Cl1       1.0  0.2415313746698395  0.24153126685663595  0.7584686124777407  1.0000
  Cl  Cl2       1.0  0.7584687340406897  0.7584686591528882  0.24153130261724062  1.0000
  Cl  Cl3       1.0  0.7584685865747215  0.24153142036940212  0.24153123853615008  1.0000
  Cl  Cl4       1.0  0.24153115870105937  0.7584686791050561  0.758468768682465  1.0000
  Cl  Cl5       1.0  0.24153135491507247  0.7584685891572492  0.24153133757299877  1.0000
  Cl  Cl6       1.0  0.7584686086231532  0.24153132633924534  0.7584686553646529  1.0000
