data_image0
_chemical_formula_structural       Cr2VBr6
_chemical_formula_sum              "Cr2 V1 Br6"
_cell_length_a       7.066445572235066
_cell_length_b       7.066445437753498
_cell_length_c       7.066445668347069
_cell_angle_alpha    60.000001065654395
_cell_angle_beta     59.99999969551917
_cell_angle_gamma    60.00000017896716

_space_group_name_H-M_alt    "P 1"
_space_group_IT_number       1

loop_
  _space_group_symop_operation_xyz
  'x, y, z'

loop_
  _atom_site_type_symbol
  _atom_site_label
  _atom_site_symmetry_multiplicity
  _atom_site_fract_x
  _atom_site_fract_y
  _atom_site_fract_z
  _atom_site_occupancy
  Cr  Cr1       1.0  0.24999987563512954  0.2500000761453234  0.2500000207711963  1.0000
  Cr  Cr2       1.0  0.7500000252567939  0.7500000187207334  0.7499999793166104  1.0000
  V   V1        1.0  1.059734752755698e-08  0.9999999584035895  1.9744946626955274e-08  1.0000
  Br  Br1       1.0  0.2473751204651134  0.2473750668094193  0.7526249094637956  1.0000
  Br  Br2       1.0  0.7526249460136366  0.7526249136665081  0.24737506219538383  1.0000
  Br  Br3       1.0  0.7526249364364649  0.24737507473726655  0.24737504717008135  1.0000
  Br  Br4       1.0  0.2473750557335526  0.7526249178709471  0.7526249456713512  1.0000
  Br  Br5       1.0  0.2473751005073743  0.7526249283935573  0.247375058678339  1.0000
  Br  Br6       1.0  0.7526249312766047  0.24737504341645158  0.7526249502277094  1.0000
