data_image0
_chemical_formula_structural       Cr2VF6
_chemical_formula_sum              "Cr2 V1 F6"
_cell_length_a       5.469236039017888
_cell_length_b       5.469235369955516
_cell_length_c       5.469235459258728
_cell_angle_alpha    60.000001637200185
_cell_angle_beta     60.00000135155929
_cell_angle_gamma    60.00000095774382

_space_group_name_H-M_alt    "P 1"
_space_group_IT_number       1

loop_
  _space_group_symop_operation_xyz
  'x, y, z'

loop_
  _atom_site_type_symbol
  _atom_site_label
  _atom_site_symmetry_multiplicity
  _atom_site_fract_x
  _atom_site_fract_y
  _atom_site_fract_z
  _atom_site_occupancy
  Cr  Cr1       1.0  0.24999987052364736  0.24999992003932267  0.25000012494095625  1.0000
  Cr  Cr2       1.0  0.7499998448088739  0.7499999661367642  0.750000089371776  1.0000
  V   V1        1.0  3.764052982509355e-08  0.999999982085323  0.9999999883086635  1.0000
  F   F1        1.0  0.24756451994051312  0.2475645255408737  0.7524354756081947  1.0000
  F   F2        1.0  0.7524355303988027  0.7524354703626213  0.2475645145090236  1.0000
  F   F3        1.0  0.7524354917229669  0.24756455969257268  0.24756448046751975  1.0000
  F   F4        1.0  0.24756455409373174  0.7524355257843103  0.7524354598106782  1.0000
  F   F5        1.0  0.24756456736154622  0.7524354935360386  0.2475644922568407  1.0000
  F   F6        1.0  0.7524355715008457  0.24756454715415094  0.7524353854952635  1.0000
