data_image0
_chemical_formula_structural       Cr2VI6
_chemical_formula_sum              "Cr2 V1 I6"
_cell_length_a       7.657051292989929
_cell_length_b       7.657051374852873
_cell_length_c       7.657051376581644
_cell_angle_alpha    60.00000004335668
_cell_angle_beta     60.00000062484252
_cell_angle_gamma    59.99999953790064

_space_group_name_H-M_alt    "P 1"
_space_group_IT_number       1

loop_
  _space_group_symop_operation_xyz
  'x, y, z'

loop_
  _atom_site_type_symbol
  _atom_site_label
  _atom_site_symmetry_multiplicity
  _atom_site_fract_x
  _atom_site_fract_y
  _atom_site_fract_z
  _atom_site_occupancy
  Cr  Cr1       1.0  0.2499999934039187  0.24999999881723237  0.2500000086835114  1.0000
  Cr  Cr2       1.0  0.7499998810925722  0.750000054033675  0.7500000076395639  1.0000
  V   V1        1.0  3.7164703471743173e-09  1.599499345364145e-08  1.1040040165120753e-08  1.0000
  I   I1        1.0  0.2476123157016426  0.247612229436765  0.752387728511433  1.0000
  I   I2        1.0  0.7523877237495489  0.7523877402401743  0.24761226781704906  1.0000
  I   I3        1.0  0.7523877502343962  0.24761224185058242  0.2476122703665699  1.0000
  I   I4        1.0  0.24761232167716918  0.752387739022852  0.7523877054394638  1.0000
  I   I5        1.0  0.24761226787540472  0.7523877406126809  0.24761224031377885  1.0000
  I   I6        1.0  0.7523877352002936  0.2476122386612551  0.7523877550381081  1.0000
