data_image0
_chemical_formula_structural       Cr2VCl6
_chemical_formula_sum              "Cr2 V1 Cl6"
_cell_length_a       6.6795021571989555
_cell_length_b       6.679502267057563
_cell_length_c       6.679502421749011
_cell_angle_alpha    59.99999921690508
_cell_angle_beta     59.99999924862891
_cell_angle_gamma    60.00000078955454

_space_group_name_H-M_alt    "P 1"
_space_group_IT_number       1

loop_
  _space_group_symop_operation_xyz
  'x, y, z'

loop_
  _atom_site_type_symbol
  _atom_site_label
  _atom_site_symmetry_multiplicity
  _atom_site_fract_x
  _atom_site_fract_y
  _atom_site_fract_z
  _atom_site_occupancy
  Cr  Cr1       1.0  0.25000000164662384  0.2500001359690498  0.24999987369731158  1.0000
  Cr  Cr2       1.0  0.749999914147758  0.74999985049669  0.7500001697608466  1.0000
  V   V1        1.0  4.1926788676445826e-08  0.9999999468259765  3.1074615179433407e-08  1.0000
  Cl  Cl1       1.0  0.24559711399776646  0.2455971220555891  0.754402905173864  1.0000
  Cl  Cl2       1.0  0.7544029306478671  0.754402846074282  0.2455970994948958  1.0000
  Cl  Cl3       1.0  0.75440285241265  0.24559716344571422  0.2455971393753098  1.0000
  Cl  Cl4       1.0  0.24559715327530035  0.7544028230200265  0.7544028800957091  1.0000
  Cl  Cl5       1.0  0.24559714212487785  0.7544029360412354  0.24559706708229376  1.0000
  Cl  Cl6       1.0  0.7544028544460277  0.24559716594048825  0.7544028452930259  1.0000
