data_image0
_chemical_formula_structural       Cr2WCl6
_chemical_formula_sum              "Cr2 W1 Cl6"
_cell_length_a       6.8963633380675695
_cell_length_b       6.896363376075542
_cell_length_c       6.896363559920968
_cell_angle_alpha    59.99999923955759
_cell_angle_beta     60.00000089062954
_cell_angle_gamma    59.999996907015856

_space_group_name_H-M_alt    "P 1"
_space_group_IT_number       1

loop_
  _space_group_symop_operation_xyz
  'x, y, z'

loop_
  _atom_site_type_symbol
  _atom_site_label
  _atom_site_symmetry_multiplicity
  _atom_site_fract_x
  _atom_site_fract_y
  _atom_site_fract_z
  _atom_site_occupancy
  Cr  Cr1       1.0  0.24999992585810968  0.2499999369657614  0.2500000739665513  1.0000
  Cr  Cr2       1.0  0.750000028792273  0.7500000417679941  0.7499999649048957  1.0000
  W   W1        1.0  1.506925230558288e-08  0.9999999999999999  0.9999999286636334  1.0000
  Cl  Cl1       1.0  0.24449455037700155  0.24449462474341435  0.7555054307879808  1.0000
  Cl  Cl2       1.0  0.7555054699623222  0.755505362869982  0.2444945751492947  1.0000
  Cl  Cl3       1.0  0.7555054478741139  0.2444944848612481  0.2444946160174953  1.0000
  Cl  Cl4       1.0  0.24449455291256667  0.7555055915485788  0.7555053828486381  1.0000
  Cl  Cl5       1.0  0.2444945600901224  0.7555055147031532  0.2444945219576402  1.0000
  Cl  Cl6       1.0  0.7555054413582429  0.24449443916760039  0.7555055117464751  1.0000
