data_image0
_chemical_formula_structural       Cr2WI6
_chemical_formula_sum              "Cr2 W1 I6"
_cell_length_a       7.803242242414936
_cell_length_b       7.803242264726434
_cell_length_c       7.803242266582672
_cell_angle_alpha    60.00000078508113
_cell_angle_beta     59.99999950834137
_cell_angle_gamma    60.00000077163779

_space_group_name_H-M_alt    "P 1"
_space_group_IT_number       1

loop_
  _space_group_symop_operation_xyz
  'x, y, z'

loop_
  _atom_site_type_symbol
  _atom_site_label
  _atom_site_symmetry_multiplicity
  _atom_site_fract_x
  _atom_site_fract_y
  _atom_site_fract_z
  _atom_site_occupancy
  Cr  Cr1       1.0  0.25000002348403677  0.24999994745913712  0.2500000225585569  1.0000
  Cr  Cr2       1.0  0.7499999759980649  0.7500000103174733  0.7499999847979945  1.0000
  W   W1        1.0  0.9999999867872319  0.9999999686093338  8.20501254221032e-09  1.0000
  I   I1        1.0  0.24754608362633906  0.2475460768281045  0.7524539209660511  1.0000
  I   I2        1.0  0.7524539397551732  0.7524539468689048  0.24754605557730053  1.0000
  I   I3        1.0  0.7524539184940783  0.2475461126549511  0.24754606911980473  1.0000
  I   I4        1.0  0.24754607588956973  0.752453931445991  0.7524539296617728  1.0000
  I   I5        1.0  0.24754607982510413  0.7524538900654945  0.24754611835664184  1.0000
  I   I6        1.0  0.7524539172795964  0.24754611479711527  0.7524538935575009  1.0000
