data_image0
_chemical_formula_structural       Cr2YCl6
_chemical_formula_sum              "Cr2 Y1 Cl6"
_cell_length_a       6.9940733528860815
_cell_length_b       6.994073035846822
_cell_length_c       6.994073426682799
_cell_angle_alpha    59.99999837999464
_cell_angle_beta     59.99999988476716
_cell_angle_gamma    60.00000014874202

_space_group_name_H-M_alt    "P 1"
_space_group_IT_number       1

loop_
  _space_group_symop_operation_xyz
  'x, y, z'

loop_
  _atom_site_type_symbol
  _atom_site_label
  _atom_site_symmetry_multiplicity
  _atom_site_fract_x
  _atom_site_fract_y
  _atom_site_fract_z
  _atom_site_occupancy
  Cr  Cr1       1.0  0.2500000015215071  0.24999995052816829  0.24999995431160654  1.0000
  Cr  Cr2       1.0  0.7500000906982235  0.7499998655934526  0.7499999057993223  1.0000
  Y   Y1        1.0  2.6798929891417624e-08  8.755591803035577e-09  2.2396866304536546e-09  1.0000
  Cl  Cl1       1.0  0.25990971136197855  0.2599098309381065  0.7400902388110694  1.0000
  Cl  Cl2       1.0  0.7400901896741449  0.7400902566068396  0.2599098085153319  1.0000
  Cl  Cl3       1.0  0.7400902360719337  0.25990975062583704  0.25990980285216836  1.0000
  Cl  Cl4       1.0  0.25990980242965805  0.7400902563676723  0.740090221736345  1.0000
  Cl  Cl5       1.0  0.2599097393011374  0.7400902888191897  0.25990980499824823  1.0000
  Cl  Cl6       1.0  0.7400901910690363  0.2599097899701659  0.7400902749323818  1.0000
