data_image0
_chemical_formula_structural       Cr2YI6
_chemical_formula_sum              "Cr2 Y1 I6"
_cell_length_a       8.108102731929455
_cell_length_b       8.10810270233526
_cell_length_c       8.108102800808034
_cell_angle_alpha    59.99999961446866
_cell_angle_beta     60.00000015121002
_cell_angle_gamma    59.99999992736194

_space_group_name_H-M_alt    "P 1"
_space_group_IT_number       1

loop_
  _space_group_symop_operation_xyz
  'x, y, z'

loop_
  _atom_site_type_symbol
  _atom_site_label
  _atom_site_symmetry_multiplicity
  _atom_site_fract_x
  _atom_site_fract_y
  _atom_site_fract_z
  _atom_site_occupancy
  Cr  Cr1       1.0  0.24999998836232212  0.2499999610107234  0.2500000261109283  1.0000
  Cr  Cr2       1.0  0.7499999507418971  0.750000062784013  0.7499999882293933  1.0000
  Y   Y1        1.0  4.319405253335332e-10  0.9999999773422046  4.194628093743522e-08  1.0000
  I   I1        1.0  0.2598485575111912  0.25984850033570106  0.7401514804908931  1.0000
  I   I2        1.0  0.7401514713997073  0.7401515189274767  0.25984850971188067  1.0000
  I   I3        1.0  0.7401514897492947  0.25984849548725003  0.25984854176975575  1.0000
  I   I4        1.0  0.25984856089877384  0.7401514542920219  0.7401514513397055  1.0000
  I   I5        1.0  0.25984849664606813  0.7401514912406315  0.25984852290129323  1.0000
  I   I6        1.0  0.7401514825781781  0.25984854463826274  0.7401514357369168  1.0000
