data_image0
_chemical_formula_structural       Cr2YBr6
_chemical_formula_sum              "Cr2 Y1 Br6"
_cell_length_a       7.431995829441576
_cell_length_b       7.431996037914419
_cell_length_c       7.431995940523827
_cell_angle_alpha    60.00000020928014
_cell_angle_beta     59.99999954208714
_cell_angle_gamma    59.99999907478918

_space_group_name_H-M_alt    "P 1"
_space_group_IT_number       1

loop_
  _space_group_symop_operation_xyz
  'x, y, z'

loop_
  _atom_site_type_symbol
  _atom_site_label
  _atom_site_symmetry_multiplicity
  _atom_site_fract_x
  _atom_site_fract_y
  _atom_site_fract_z
  _atom_site_occupancy
  Cr  Cr1       1.0  0.24999997959596365  0.24999997811844696  0.2499999844235275  1.0000
  Cr  Cr2       1.0  0.750000020080487  0.7500000167521048  0.7499999427391812  1.0000
  Y   Y1        1.0  0.9999999925142992  0.9999999851685824  0.9999999950121564  1.0000
  Br  Br1       1.0  0.25973262807085656  0.25973260017094896  0.740267424460663  1.0000
  Br  Br2       1.0  0.7402674081724798  0.7402673782202488  0.25973265950444246  1.0000
  Br  Br3       1.0  0.7402673826391343  0.25973258320545295  0.259732653294593  1.0000
  Br  Br4       1.0  0.25973261027325123  0.7402674133130341  0.7402673611947952  1.0000
  Br  Br5       1.0  0.25973257474828393  0.7402674261362251  0.25973261195372827  1.0000
  Br  Br6       1.0  0.7402673971960064  0.2597326379476099  0.7402673523263622  1.0000
