data_image0
_chemical_formula_structural       Cr2YF6
_chemical_formula_sum              "Cr2 Y1 F6"
_cell_length_a       5.908427449384958
_cell_length_b       5.908427092391948
_cell_length_c       5.90842771630634
_cell_angle_alpha    60.000000763285435
_cell_angle_beta     60.00000277198644
_cell_angle_gamma    59.99999966106897

_space_group_name_H-M_alt    "P 1"
_space_group_IT_number       1

loop_
  _space_group_symop_operation_xyz
  'x, y, z'

loop_
  _atom_site_type_symbol
  _atom_site_label
  _atom_site_symmetry_multiplicity
  _atom_site_fract_x
  _atom_site_fract_y
  _atom_site_fract_z
  _atom_site_occupancy
  Cr  Cr1       1.0  0.2500001148711751  0.24999996658845186  0.24999979797332428  1.0000
  Cr  Cr2       1.0  0.7499999434242309  0.7499998603806831  0.7499999019315421  1.0000
  Y   Y1        1.0  2.655108046473513e-08  8.2915102973938e-09  0.9999999267262835  1.0000
  F   F1        1.0  0.25673600361788257  0.25673602990947897  0.7432640884080359  1.0000
  F   F2        1.0  0.7432638587263669  0.7432640976269915  0.2567361769503849  1.0000
  F   F3        1.0  0.7432641123890165  0.2567359340219843  0.2567360028701919  1.0000
  F   F4        1.0  0.2567359868455836  0.7432640691417953  0.7432639523547558  1.0000
  F   F5        1.0  0.2567360518025793  0.7432639229182743  0.25673589989372114  1.0000
  F   F6        1.0  0.7432638488390554  0.2567361776707759  0.7432641786924696  1.0000
