data_image0
_chemical_formula_structural       Cr2ZrI6
_chemical_formula_sum              "Cr2 Zr1 I6"
_cell_length_a       8.05061979041947
_cell_length_b       8.050619744865823
_cell_length_c       8.050619805301476
_cell_angle_alpha    59.99999956306641
_cell_angle_beta     59.99999968939948
_cell_angle_gamma    59.999999960264674

_space_group_name_H-M_alt    "P 1"
_space_group_IT_number       1

loop_
  _space_group_symop_operation_xyz
  'x, y, z'

loop_
  _atom_site_type_symbol
  _atom_site_label
  _atom_site_symmetry_multiplicity
  _atom_site_fract_x
  _atom_site_fract_y
  _atom_site_fract_z
  _atom_site_occupancy
  Cr  Cr1       1.0  0.2499999705087074  0.2500000250630408  0.2500000184471796  1.0000
  Cr  Cr2       1.0  0.7500000232002324  0.7499999854321228  0.749999962401718  1.0000
  Zr  Zr1       1.0  4.750591560873441e-08  0.9999999908721696  1.6833028532428895e-08  1.0000
  I   I1        1.0  0.25049489872207403  0.25049490653291356  0.7495051120325222  1.0000
  I   I2        1.0  0.7495050649834221  0.7495050476739618  0.25049497655354186  1.0000
  I   I3        1.0  0.7495050858121891  0.2504949041006039  0.2504949323747106  1.0000
  I   I4        1.0  0.2504949505355147  0.7495050516275769  0.7495050470854543  1.0000
  I   I5        1.0  0.25049489907121  0.7495051237254643  0.2504948975301278  1.0000
  I   I6        1.0  0.7495050572141375  0.2504949689201739  0.7495050348703808  1.0000
