data_image0
_chemical_formula_structural       Cr2ZrCl6
_chemical_formula_sum              "Cr2 Zr1 Cl6"
_cell_length_a       6.937666614473005
_cell_length_b       6.93766656409775
_cell_length_c       6.937666614442201
_cell_angle_alpha    59.99999952600659
_cell_angle_beta     60.00000081712668
_cell_angle_gamma    59.99999845481815

_space_group_name_H-M_alt    "P 1"
_space_group_IT_number       1

loop_
  _space_group_symop_operation_xyz
  'x, y, z'

loop_
  _atom_site_type_symbol
  _atom_site_label
  _atom_site_symmetry_multiplicity
  _atom_site_fract_x
  _atom_site_fract_y
  _atom_site_fract_z
  _atom_site_occupancy
  Cr  Cr1       1.0  0.2500000691705941  0.24999992455284634  0.25000000464040484  1.0000
  Cr  Cr2       1.0  0.750000032626254  0.750000158506074  0.7499997734479678  1.0000
  Zr  Zr1       1.0  5.0481211487363e-10  0.9999999735196654  0.9999999755111838  1.0000
  Cl  Cl1       1.0  0.25150766326958474  0.2515077172170932  0.7484922986933198  1.0000
  Cl  Cl2       1.0  0.748492288212715  0.7484922475629998  0.2515078097230684  1.0000
  Cl  Cl3       1.0  0.7484923152423576  0.25150759643423864  0.2515077554321647  1.0000
  Cl  Cl4       1.0  0.25150766483751463  0.748492352457653  0.7484923480709447  1.0000
  Cl  Cl5       1.0  0.25150766435003974  0.7484924365163121  0.2515076727455326  1.0000
  Cl  Cl6       1.0  0.748492305792466  0.251507597112651  0.7484923674124014  1.0000
