data_image0
_chemical_formula_structural       Cr2ZrBr6
_chemical_formula_sum              "Cr2 Zr1 Br6"
_cell_length_a       7.339105183686374
_cell_length_b       7.339104993986406
_cell_length_c       7.339105300680163
_cell_angle_alpha    59.9999993461187
_cell_angle_beta     59.9999998311517
_cell_angle_gamma    59.99999886823315

_space_group_name_H-M_alt    "P 1"
_space_group_IT_number       1

loop_
  _space_group_symop_operation_xyz
  'x, y, z'

loop_
  _atom_site_type_symbol
  _atom_site_label
  _atom_site_symmetry_multiplicity
  _atom_site_fract_x
  _atom_site_fract_y
  _atom_site_fract_z
  _atom_site_occupancy
  Cr  Cr1       1.0  0.2500000114129292  0.2500000331577556  0.24999997699688095  1.0000
  Cr  Cr2       1.0  0.7500000314275269  0.7499999993456719  0.7499999674718671  1.0000
  Zr  Zr1       1.0  0.9999999575985253  2.336310569150408e-08  1.7694567956555523e-08  1.0000
  Br  Br1       1.0  0.2522401070066977  0.25224007279621163  0.7477599461420575  1.0000
  Br  Br2       1.0  0.7477599152847256  0.747759964713596  0.2522400537877537  1.0000
  Br  Br3       1.0  0.7477599391788526  0.25224001906057686  0.25224006770836077  1.0000
  Br  Br4       1.0  0.2522400715128943  0.7477599116464627  0.7477599260196045  1.0000
  Br  Br5       1.0  0.2522400530164638  0.7477598815248503  0.2522401354456091  1.0000
  Br  Br6       1.0  0.7477599121107266  0.25224010091478044  0.7477599042506395  1.0000
