data_image0
_chemical_formula_structural       Cs2AsF6
_chemical_formula_sum              "Cs2 As1 F6"
_cell_length_a       6.560249775910059
_cell_length_b       6.560249572856913
_cell_length_c       6.560249290769128
_cell_angle_alpha    59.999999237928826
_cell_angle_beta     60.000000030979436
_cell_angle_gamma    59.99999814903526

_space_group_name_H-M_alt    "P 1"
_space_group_IT_number       1

loop_
  _space_group_symop_operation_xyz
  'x, y, z'

loop_
  _atom_site_type_symbol
  _atom_site_label
  _atom_site_symmetry_multiplicity
  _atom_site_fract_x
  _atom_site_fract_y
  _atom_site_fract_z
  _atom_site_occupancy
  Cs  Cs1       1.0  0.24999998932222506  0.2500000053408444  0.24999990779431647  1.0000
  Cs  Cs2       1.0  0.7500000766168996  0.7499999488134728  0.7500001066104303  1.0000
  As  As1       1.0  0.9999999978310886  0.9999999906654093  8.800415879911798e-09  1.0000
  F   F1        1.0  0.20995251899300268  0.20995251110132765  0.7900475369859733  1.0000
  F   F2        1.0  0.7900474513643171  0.7900474710567624  0.20995251578078772  1.0000
  F   F3        1.0  0.7900475331423342  0.20995251303686122  0.20995250252661465  1.0000
  F   F4        1.0  0.20995254821103343  0.790047463520475  0.7900473969365646  1.0000
  F   F5        1.0  0.20995253069818767  0.7900475267320293  0.20995253907007327  1.0000
  F   F6        1.0  0.7900473795273062  0.20995259357800433  0.7900474289566584  1.0000
