data_image0
_chemical_formula_structural       Cs2AsI6
_chemical_formula_sum              "Cs2 As1 I6"
_cell_length_a       8.494277214846253
_cell_length_b       8.494276904842588
_cell_length_c       8.494277015536026
_cell_angle_alpha    60.0000012203979
_cell_angle_beta     59.99999996029723
_cell_angle_gamma    59.99999755321667

_space_group_name_H-M_alt    "P 1"
_space_group_IT_number       1

loop_
  _space_group_symop_operation_xyz
  'x, y, z'

loop_
  _atom_site_type_symbol
  _atom_site_label
  _atom_site_symmetry_multiplicity
  _atom_site_fract_x
  _atom_site_fract_y
  _atom_site_fract_z
  _atom_site_occupancy
  Cs  Cs1       1.0  0.24999999086200078  0.2500000670203406  0.24999987871927576  1.0000
  Cs  Cs2       1.0  0.7500001057282741  0.7499999199008383  0.7500001269179626  1.0000
  As  As1       1.0  3.9174823237814914e-08  1.2976625813924713e-08  1.0224596751811524e-07  1.0000
  I   I1        1.0  0.23697455479749005  0.2369746072846014  0.7630254292218103  1.0000
  I   I2        1.0  0.763025364386993  0.76302532052085  0.23697468054902945  1.0000
  I   I3        1.0  0.7630255650781969  0.23697443556453607  0.23697441477120393  1.0000
  I   I4        1.0  0.2369744632129133  0.7630255686588078  0.7630255057017912  1.0000
  I   I5        1.0  0.23697438716174538  0.763025552862936  0.23697435011313367  1.0000
  I   I6        1.0  0.7630255212276768  0.23697451335983555  0.7630255239661466  1.0000
