data_image0
_chemical_formula_structural       Cs2BiBr6
_chemical_formula_sum              "Cs2 Bi1 Br6"
_cell_length_a       8.172227149504195
_cell_length_b       8.172227385863366
_cell_length_c       8.172226742923137
_cell_angle_alpha    59.999999309772825
_cell_angle_beta     60.00000230173299
_cell_angle_gamma    59.99999982568146

_space_group_name_H-M_alt    "P 1"
_space_group_IT_number       1

loop_
  _space_group_symop_operation_xyz
  'x, y, z'

loop_
  _atom_site_type_symbol
  _atom_site_label
  _atom_site_symmetry_multiplicity
  _atom_site_fract_x
  _atom_site_fract_y
  _atom_site_fract_z
  _atom_site_occupancy
  Cs  Cs1       1.0  0.24999993043444657  0.25000007052116924  0.24999996988836215  1.0000
  Cs  Cs2       1.0  0.7500000679614098  0.7499999792700917  0.7499999780333623  1.0000
  Bi  Bi1       1.0  0.9999999250128613  2.99733526668122e-08  0.9999998010250294  1.0000
  Br  Br1       1.0  0.24670022763698643  0.24670020135885995  0.7532997716626971  1.0000
  Br  Br2       1.0  0.7532998809132144  0.7532998019737158  0.2467002006994078  1.0000
  Br  Br3       1.0  0.7532997503972045  0.24670029139756502  0.24670019953310773  1.0000
  Br  Br4       1.0  0.24670016995788704  0.7532997509003554  0.7532999233105928  1.0000
  Br  Br5       1.0  0.24670014110511848  0.7532997680687117  0.24670028009323947  1.0000
  Br  Br6       1.0  0.7532999065043334  0.24670012136515654  0.7532998677918784  1.0000
