data_image0
_chemical_formula_structural       Cs2BiCl6
_chemical_formula_sum              "Cs2 Bi1 Cl6"
_cell_length_a       7.846683708593997
_cell_length_b       7.8466834929372515
_cell_length_c       7.846682986971846
_cell_angle_alpha    60.000000928781404
_cell_angle_beta     60.00000304458421
_cell_angle_gamma    60.000000213539906

_space_group_name_H-M_alt    "P 1"
_space_group_IT_number       1

loop_
  _space_group_symop_operation_xyz
  'x, y, z'

loop_
  _atom_site_type_symbol
  _atom_site_label
  _atom_site_symmetry_multiplicity
  _atom_site_fract_x
  _atom_site_fract_y
  _atom_site_fract_z
  _atom_site_occupancy
  Cs  Cs1       1.0  0.25000002656906534  0.2499999510585955  0.24999999955020455  1.0000
  Cs  Cs2       1.0  0.7500000079236885  0.7500000420379075  0.7499999847161403  1.0000
  Bi  Bi1       1.0  0.9999999358907617  0.999999940687923  5.05210160579444e-07  1.0000
  Cl  Cl1       1.0  0.24075008275320176  0.24075005818273112  0.7592499850802953  1.0000
  Cl  Cl2       1.0  0.7592499894802923  0.7592499364746147  0.24075004835414626  1.0000
  Cl  Cl3       1.0  0.7592499984367158  0.24075003340480822  0.24075005676164454  1.0000
  Cl  Cl4       1.0  0.24075022908783383  0.7592498176548954  0.7592496509457033  1.0000
  Cl  Cl5       1.0  0.2407499692288625  0.759250054182027  0.24074999380187137  1.0000
  Cl  Cl6       1.0  0.7592497534933129  0.24075018552782976  0.7592497439442588  1.0000
