data_image0
_chemical_formula_structural       Cs2GaF6
_chemical_formula_sum              "Cs2 Ga1 F6"
_cell_length_a       6.636444177929181
_cell_length_b       6.636444461662307
_cell_length_c       6.6364431178129415
_cell_angle_alpha    60.0000021190587
_cell_angle_beta     60.000003617455384
_cell_angle_gamma    59.999997103568816

_space_group_name_H-M_alt    "P 1"
_space_group_IT_number       1

loop_
  _space_group_symop_operation_xyz
  'x, y, z'

loop_
  _atom_site_type_symbol
  _atom_site_label
  _atom_site_symmetry_multiplicity
  _atom_site_fract_x
  _atom_site_fract_y
  _atom_site_fract_z
  _atom_site_occupancy
  Cs  Cs1       1.0  0.24999997510551247  0.24999994385597427  0.25000005449877805  1.0000
  Cs  Cs2       1.0  0.7499999533966337  0.7500001231543189  0.7499998499662881  1.0000
  Ga  Ga1       1.0  0.9999999635668354  0.9999999944635553  0.9999999426295794  1.0000
  F   F1        1.0  0.20612458044261894  0.20612470723648532  0.793875405526191  1.0000
  F   F2        1.0  0.7938754190441524  0.7938754391295855  0.20612459705426628  1.0000
  F   F3        1.0  0.7938753584323254  0.2061244973155606  0.20612468332240985  1.0000
  F   F4        1.0  0.20612466615551853  0.7938754275924904  0.7938754204501907  1.0000
  F   F5        1.0  0.20612465278468778  0.7938754138023195  0.20612455441711874  1.0000
  F   F6        1.0  0.7938754199937099  0.20612453878798484  0.7938754255296946  1.0000
