data_image0
_chemical_formula_structural       Cs2GaCl6
_chemical_formula_sum              "Cs2 Ga1 Cl6"
_cell_length_a       7.609421550373005
_cell_length_b       7.609421852008368
_cell_length_c       7.609421829660303
_cell_angle_alpha    59.99999923498886
_cell_angle_beta     60.00000101898543
_cell_angle_gamma    60.00000006567565

_space_group_name_H-M_alt    "P 1"
_space_group_IT_number       1

loop_
  _space_group_symop_operation_xyz
  'x, y, z'

loop_
  _atom_site_type_symbol
  _atom_site_label
  _atom_site_symmetry_multiplicity
  _atom_site_fract_x
  _atom_site_fract_y
  _atom_site_fract_z
  _atom_site_occupancy
  Cs  Cs1       1.0  0.24999998655812428  0.24999998801109685  0.25000001204253325  1.0000
  Cs  Cs2       1.0  0.7499999894713071  0.7499999930044909  0.7499999436638387  1.0000
  Ga  Ga1       1.0  0.9999999966600469  0.9999999098673822  0.9999998942936923  1.0000
  Cl  Cl1       1.0  0.2206216341188349  0.22062172294941787  0.7793783369379554  1.0000
  Cl  Cl2       1.0  0.7793783005393509  0.7793783321036781  0.22062170099730585  1.0000
  Cl  Cl3       1.0  0.7793783292091235  0.22062165161015165  0.22062170883387178  1.0000
  Cl  Cl4       1.0  0.2206216893854947  0.7793783519385882  0.7793783825358483  1.0000
  Cl  Cl5       1.0  0.2206216593185697  0.7793783588956632  0.2206216179284755  1.0000
  Cl  Cl6       1.0  0.7793783807650733  0.22062168489085365  0.7793784281220806  1.0000
