data_image0
_chemical_formula_structural       Cs2GaBr6
_chemical_formula_sum              "Cs2 Ga1 Br6"
_cell_length_a       7.9071102715645045
_cell_length_b       7.907110321019492
_cell_length_c       7.907110203623017
_cell_angle_alpha    60.00000134417757
_cell_angle_beta     60.00000099170127
_cell_angle_gamma    60.00000337371079

_space_group_name_H-M_alt    "P 1"
_space_group_IT_number       1

loop_
  _space_group_symop_operation_xyz
  'x, y, z'

loop_
  _atom_site_type_symbol
  _atom_site_label
  _atom_site_symmetry_multiplicity
  _atom_site_fract_x
  _atom_site_fract_y
  _atom_site_fract_z
  _atom_site_occupancy
  Cs  Cs1       1.0  0.24999998230454434  0.25000001438792463  0.24999999172620868  1.0000
  Cs  Cs2       1.0  0.749999976990911  0.7500000230278687  0.74999994238488  1.0000
  Ga  Ga1       1.0  6.66437634385491e-08  2.7880487310735842e-08  4.589941142763398e-09  1.0000
  Br  Br1       1.0  0.22864363447434655  0.22864366018709537  0.7713563308785956  1.0000
  Br  Br2       1.0  0.7713563102937795  0.7713562455708516  0.22864375852957491  1.0000
  Br  Br3       1.0  0.7713563150329489  0.22864370888140723  0.22864368161697946  1.0000
  Br  Br4       1.0  0.22864374799166326  0.7713562495396813  0.7713562907142647  1.0000
  Br  Br5       1.0  0.22864371461776167  0.7713562767206423  0.22864369344331578  1.0000
  Br  Br6       1.0  0.7713562292037348  0.22864378083105683  0.7713563066297643  1.0000
