data_image0
_chemical_formula_structural       Cs2GaI6
_chemical_formula_sum              "Cs2 Ga1 I6"
_cell_length_a       8.442402295571137
_cell_length_b       8.442402106271418
_cell_length_c       8.442401491641128
_cell_angle_alpha    60.000000851174356
_cell_angle_beta     60.00000312263042
_cell_angle_gamma    59.999989084433714

_space_group_name_H-M_alt    "P 1"
_space_group_IT_number       1

loop_
  _space_group_symop_operation_xyz
  'x, y, z'

loop_
  _atom_site_type_symbol
  _atom_site_label
  _atom_site_symmetry_multiplicity
  _atom_site_fract_x
  _atom_site_fract_y
  _atom_site_fract_z
  _atom_site_occupancy
  Cs  Cs1       1.0  0.2500000104651453  0.25000001032867214  0.25000000131836453  1.0000
  Cs  Cs2       1.0  0.7500000091537214  0.7499999540985656  0.7500000085087881  1.0000
  Ga  Ga1       1.0  4.770493950724525e-08  8.70423577212924e-09  0.9999998663751712  1.0000
  I   I1        1.0  0.23505992831760816  0.23505998044884585  0.7649399454787823  1.0000
  I   I2        1.0  0.7649400278329517  0.7649399651192132  0.23506009722063373  1.0000
  I   I3        1.0  0.7649400978444109  0.2350594286375806  0.23506019113977308  1.0000
  I   I4        1.0  0.2350598400537442  0.7649406373391351  0.7649398656288553  1.0000
  I   I5        1.0  0.23505986610972207  0.7649408468352099  0.23505957401494393  1.0000
  I   I6        1.0  0.7649401867899805  0.2350591654653429  0.7649404627514665  1.0000
