data_image0
_chemical_formula_structural       Cs2NF6
_chemical_formula_sum              "Cs2 N1 F6"
_cell_length_a       6.246906014786962
_cell_length_b       6.2469056503280616
_cell_length_c       6.246905973745382
_cell_angle_alpha    60.00000392943115
_cell_angle_beta     59.9999984453116
_cell_angle_gamma    60.00000064407485

_space_group_name_H-M_alt    "P 1"
_space_group_IT_number       1

loop_
  _space_group_symop_operation_xyz
  'x, y, z'

loop_
  _atom_site_type_symbol
  _atom_site_label
  _atom_site_symmetry_multiplicity
  _atom_site_fract_x
  _atom_site_fract_y
  _atom_site_fract_z
  _atom_site_occupancy
  Cs  Cs1       1.0  0.2500001366931246  0.24999996922800966  0.24999985560284796  1.0000
  Cs  Cs2       1.0  0.7500000533504596  0.7499998743544968  0.7500001556327164  1.0000
  N   N1        1.0  1.3423498420074634e-06  0.9999982021642496  0.9999996306472708  1.0000
  F   F1        1.0  0.189724073504846  0.18972388257994838  0.8102760028951503  1.0000
  F   F2        1.0  0.8102764586241539  0.8102763099826532  0.18972353474427178  1.0000
  F   F3        1.0  0.81027560216235  0.18972437364534048  0.18972433976460876  1.0000
  F   F4        1.0  0.18972284186769078  0.8102769815308684  0.8102772325957655  1.0000
  F   F5        1.0  0.18972360806907723  0.8102762965813284  0.18972340481622477  1.0000
  F   F6        1.0  0.8102759503250055  0.18972397244315733  0.8102758771110462  1.0000
