data_image0
_chemical_formula_structural       Cs2SbF6
_chemical_formula_sum              "Cs2 Sb1 F6"
_cell_length_a       6.744365938848524
_cell_length_b       6.744365790101126
_cell_length_c       6.744365983054298
_cell_angle_alpha    60.00000073682017
_cell_angle_beta     59.9999994424037
_cell_angle_gamma    59.99999926850028

_space_group_name_H-M_alt    "P 1"
_space_group_IT_number       1

loop_
  _space_group_symop_operation_xyz
  'x, y, z'

loop_
  _atom_site_type_symbol
  _atom_site_label
  _atom_site_symmetry_multiplicity
  _atom_site_fract_x
  _atom_site_fract_y
  _atom_site_fract_z
  _atom_site_occupancy
  Cs  Cs1       1.0  0.2500001217652876  0.2500000796650277  0.24999979039085357  1.0000
  Cs  Cs2       1.0  0.7499998365874186  0.7500001917803308  0.750000244808189  1.0000
  Sb  Sb1       1.0  0.999999962126164  1.0895716364923419e-08  3.4247126904216693e-08  1.0000
  F   F1        1.0  0.21687245289176046  0.21687229674265718  0.783127607654853  1.0000
  F   F2        1.0  0.7831277152597291  0.7831275969845505  0.2168722045810222  1.0000
  F   F3        1.0  0.7831275325565984  0.2168723849147077  0.21687240067541774  1.0000
  F   F4        1.0  0.21687234510815895  0.7831275687389431  0.7831277551793393  1.0000
  F   F5        1.0  0.21687245310382405  0.7831275844441447  0.21687226478371768  1.0000
  F   F6        1.0  0.7831275873674185  0.21687227114806076  0.7831276985648589  1.0000
