data_image0
_chemical_formula_structural       Cs2SbBr6
_chemical_formula_sum              "Cs2 Sb1 Br6"
_cell_length_a       7.9933703823242555
_cell_length_b       7.993369959885067
_cell_length_c       7.9933695936510105
_cell_angle_alpha    60.00000122001953
_cell_angle_beta     60.00000272397042
_cell_angle_gamma    59.99999377590934

_space_group_name_H-M_alt    "P 1"
_space_group_IT_number       1

loop_
  _space_group_symop_operation_xyz
  'x, y, z'

loop_
  _atom_site_type_symbol
  _atom_site_label
  _atom_site_symmetry_multiplicity
  _atom_site_fract_x
  _atom_site_fract_y
  _atom_site_fract_z
  _atom_site_occupancy
  Cs  Cs1       1.0  0.25000003185391106  0.24999995860864369  0.25000003861636966  1.0000
  Cs  Cs2       1.0  0.7500000310640977  0.7500000259816281  0.7499999304018762  1.0000
  Sb  Sb1       1.0  0.9999999426977494  5.05626355636166e-08  0.9999997093761455  1.0000
  Br  Br1       1.0  0.24247752961908112  0.2424773866240722  0.7575225849279674  1.0000
  Br  Br2       1.0  0.7575224984388861  0.7575226332068236  0.24247744520079328  1.0000
  Br  Br3       1.0  0.7575226708219092  0.2424772652414362  0.24247731034644354  1.0000
  Br  Br4       1.0  0.2424772223650178  0.7575227821690863  0.7575227484072871  1.0000
  Br  Br5       1.0  0.2424773228974569  0.7575226709936317  0.24247734993938183  1.0000
  Br  Br6       1.0  0.7575227479745168  0.24247722472898467  0.7575228809692336  1.0000
