data_image0
_chemical_formula_structural       Cs2SbI6
_chemical_formula_sum              "Cs2 Sb1 I6"
_cell_length_a       8.571562588159626
_cell_length_b       8.571562518776124
_cell_length_c       8.571562563665822
_cell_angle_alpha    60.00000183760849
_cell_angle_beta     59.99999999322426
_cell_angle_gamma    60.000001946966236

_space_group_name_H-M_alt    "P 1"
_space_group_IT_number       1

loop_
  _space_group_symop_operation_xyz
  'x, y, z'

loop_
  _atom_site_type_symbol
  _atom_site_label
  _atom_site_symmetry_multiplicity
  _atom_site_fract_x
  _atom_site_fract_y
  _atom_site_fract_z
  _atom_site_occupancy
  Cs  Cs1       1.0  0.24999995728594784  0.24999996418582243  0.25000003215828903  1.0000
  Cs  Cs2       1.0  0.7500000508882778  0.7499999940055824  0.74999996673543  1.0000
  Sb  Sb1       1.0  0.9999999110333689  9.716157140347747e-08  2.902421960094235e-09  1.0000
  I   I1        1.0  0.24778623938312228  0.2477862922029748  0.752213715188859  1.0000
  I   I2        1.0  0.752213758095784  0.7522136617018896  0.24778628186260243  1.0000
  I   I3        1.0  0.7522137586421193  0.2477862944373422  0.24778601243885784  1.0000
  I   I4        1.0  0.24778627327611605  0.7522137137636962  0.7522139647444699  1.0000
  I   I5        1.0  0.2477862935550203  0.7522136706373009  0.24778609410060043  1.0000
  I   I6        1.0  0.7522137574004825  0.24778630470026564  0.752213930828524  1.0000
