data_image0
_chemical_formula_structural       Cs2YF6
_chemical_formula_sum              "Cs2 Y1 F6"
_cell_length_a       7.0808244795690065
_cell_length_b       7.08082488135753
_cell_length_c       7.080823992609425
_cell_angle_alpha    60.0000071159993
_cell_angle_beta     60.000001585453056
_cell_angle_gamma    59.99999783670081

_space_group_name_H-M_alt    "P 1"
_space_group_IT_number       1

loop_
  _space_group_symop_operation_xyz
  'x, y, z'

loop_
  _atom_site_type_symbol
  _atom_site_label
  _atom_site_symmetry_multiplicity
  _atom_site_fract_x
  _atom_site_fract_y
  _atom_site_fract_z
  _atom_site_occupancy
  Cs  Cs1       1.0  0.250000003146549  0.24999983371403095  0.24999992539076749  1.0000
  Cs  Cs2       1.0  0.7499998697295831  0.7500000719312531  0.7500002441690348  1.0000
  Y   Y1        1.0  8.269026473979253e-08  0.9999999965406631  0.9999998940080799  1.0000
  F   F1        1.0  0.21872851224662962  0.21872835049600217  0.7812715974407867  1.0000
  F   F2        1.0  0.7812715721455527  0.7812717229266708  0.21872827655242227  1.0000
  F   F3        1.0  0.7812716469087764  0.2187284535560366  0.21872836063876758  1.0000
  F   F4        1.0  0.21872838136266426  0.7812716267852987  0.7812715930338171  1.0000
  F   F5        1.0  0.2187284119259374  0.7812715908508249  0.21872846597102588  1.0000
  F   F6        1.0  0.781271513478742  0.21872838225134522  0.7812714712997287  1.0000
