data_image0
_chemical_formula_structural       Cs2YI6
_chemical_formula_sum              "Cs2 Y1 I6"
_cell_length_a       8.660764645239187
_cell_length_b       8.660764747174222
_cell_length_c       8.660764053109942
_cell_angle_alpha    60.00000314874702
_cell_angle_beta     60.0000004423883
_cell_angle_gamma    59.999997596079325

_space_group_name_H-M_alt    "P 1"
_space_group_IT_number       1

loop_
  _space_group_symop_operation_xyz
  'x, y, z'

loop_
  _atom_site_type_symbol
  _atom_site_label
  _atom_site_symmetry_multiplicity
  _atom_site_fract_x
  _atom_site_fract_y
  _atom_site_fract_z
  _atom_site_occupancy
  Cs  Cs1       1.0  0.24999997264793336  0.2500000101432263  0.2500000215156612  1.0000
  Cs  Cs2       1.0  0.7499999484607862  0.750000014874245  0.7499999924067846  1.0000
  Y   Y1        1.0  1.1538540538326569e-07  1.0181736298813706e-07  0.9999997701621979  1.0000
  I   I1        1.0  0.24736530227342232  0.2473652955143316  0.7526346982765952  1.0000
  I   I2        1.0  0.7526346276713346  0.7526346389988108  0.24736540035603263  1.0000
  I   I3        1.0  0.7526347141899545  0.24736525105798404  0.24736528200463465  1.0000
  I   I4        1.0  0.24736523561723936  0.752634783858398  0.7526347980619263  1.0000
  I   I5        1.0  0.24736533191432228  0.7526346587468269  0.2473652781457341  1.0000
  I   I6        1.0  0.7526347585871326  0.24736524606957486  0.7526347573661777  1.0000
