data_image0
_chemical_formula_structural       Cs2YCl6
_chemical_formula_sum              "Cs2 Y1 Cl6"
_cell_length_a       7.885292282703615
_cell_length_b       7.885292388862863
_cell_length_c       7.88529259475848
_cell_angle_alpha    59.999998590049266
_cell_angle_beta     60.000000702704455
_cell_angle_gamma    60.00001942537052

_space_group_name_H-M_alt    "P 1"
_space_group_IT_number       1

loop_
  _space_group_symop_operation_xyz
  'x, y, z'

loop_
  _atom_site_type_symbol
  _atom_site_label
  _atom_site_symmetry_multiplicity
  _atom_site_fract_x
  _atom_site_fract_y
  _atom_site_fract_z
  _atom_site_occupancy
  Cs  Cs1       1.0  0.24999995810976283  0.25000006088509164  0.25000000121313015  1.0000
  Cs  Cs2       1.0  0.7499999887458071  0.7499999931647178  0.750000010740002  1.0000
  Y   Y1        1.0  2.437659679952355e-08  1.5532073210089665e-09  0.9999999616714231  1.0000
  Cl  Cl1       1.0  0.23542218433309742  0.23542222795287662  0.7645778085430136  1.0000
  Cl  Cl2       1.0  0.7645778185696417  0.76457772824525  0.2354222610897057  1.0000
  Cl  Cl3       1.0  0.7645777734581218  0.23542229595673678  0.2354224159264342  1.0000
  Cl  Cl4       1.0  0.23542229585910585  0.7645776586882053  0.7645774931890743  1.0000
  Cl  Cl5       1.0  0.23542227502167806  0.7645776846257324  0.23542250623507502  1.0000
  Cl  Cl6       1.0  0.7645776636542191  0.23542236321126897  0.7645775217915838  1.0000
