data_image0
_chemical_formula_structural       Cu2AsF6
_chemical_formula_sum              "Cu2 As1 F6"
_cell_length_a       5.332193208696464
_cell_length_b       5.332193181518219
_cell_length_c       5.332193324249284
_cell_angle_alpha    59.99999973306834
_cell_angle_beta     59.9999994514601
_cell_angle_gamma    59.999999266407066

_space_group_name_H-M_alt    "P 1"
_space_group_IT_number       1

loop_
  _space_group_symop_operation_xyz
  'x, y, z'

loop_
  _atom_site_type_symbol
  _atom_site_label
  _atom_site_symmetry_multiplicity
  _atom_site_fract_x
  _atom_site_fract_y
  _atom_site_fract_z
  _atom_site_occupancy
  Cu  Cu1       1.0  0.24999999683901164  0.24999996743803857  0.25000000769729325  1.0000
  Cu  Cu2       1.0  0.7499999835587572  0.7500000401273763  0.7500000383066265  1.0000
  As  As1       1.0  3.311716484902979e-08  4.5937750481160746e-09  0.9999999605151205  1.0000
  F   F1        1.0  0.24356820798767162  0.24356823269547873  0.756431724047919  1.0000
  F   F2        1.0  0.756431762959824  0.7564318162139134  0.24356816910488532  1.0000
  F   F3        1.0  0.7564318454724025  0.24356812063934116  0.24356809486267084  1.0000
  F   F4        1.0  0.24356800571433165  0.7564319627233672  0.7564319647203136  1.0000
  F   F5        1.0  0.2435681366767167  0.756431879062345  0.24356803616141753  1.0000
  F   F6        1.0  0.7564320255840662  0.24356797920537065  0.7564320291924608  1.0000
