data_image0
_chemical_formula_structural       Cu2AsI6
_chemical_formula_sum              "Cu2 As1 I6"
_cell_length_a       7.740310273605001
_cell_length_b       7.740310301320111
_cell_length_c       7.740310229251742
_cell_angle_alpha    60.00000035983173
_cell_angle_beta     60.00000050880683
_cell_angle_gamma    59.99999950721052

_space_group_name_H-M_alt    "P 1"
_space_group_IT_number       1

loop_
  _space_group_symop_operation_xyz
  'x, y, z'

loop_
  _atom_site_type_symbol
  _atom_site_label
  _atom_site_symmetry_multiplicity
  _atom_site_fract_x
  _atom_site_fract_y
  _atom_site_fract_z
  _atom_site_occupancy
  Cu  Cu1       1.0  0.2500000089988045  0.2499999933647868  0.24999996791518567  1.0000
  Cu  Cu2       1.0  0.750000018557511  0.7500000054110688  0.7500000128730013  1.0000
  As  As1       1.0  2.559524875162567e-10  1.2658354235770377e-08  0.9999999780395921  1.0000
  I   I1        1.0  0.25751405424378254  0.2575140806643683  0.7424859411164194  1.0000
  I   I2        1.0  0.7424858847688217  0.7424859196937823  0.25751411157510873  1.0000
  I   I3        1.0  0.7424859522727923  0.25751406683046696  0.2575140539659467  1.0000
  I   I4        1.0  0.2575140537054133  0.742485916122446  0.7424859610260212  1.0000
  I   I5        1.0  0.2575141004757523  0.7424859322454828  0.25751404100906294  1.0000
  I   I6        1.0  0.7424859289188102  0.25751407444184415  0.742485936196203  1.0000
