data_image0
_chemical_formula_structural       Cu2AsF6
_chemical_formula_sum              "Cu2 As1 F6"
_cell_length_a       5.33279903436427
_cell_length_b       5.332798885907369
_cell_length_c       5.332799125453258
_cell_angle_alpha    59.999999421177264
_cell_angle_beta     59.999998964302435
_cell_angle_gamma    60.00000189901181

_space_group_name_H-M_alt    "P 1"
_space_group_IT_number       1

loop_
  _space_group_symop_operation_xyz
  'x, y, z'

loop_
  _atom_site_type_symbol
  _atom_site_label
  _atom_site_symmetry_multiplicity
  _atom_site_fract_x
  _atom_site_fract_y
  _atom_site_fract_z
  _atom_site_occupancy
  Cu  Cu1       1.0  0.24999990887894927  0.2500001687336209  0.24999995775662975  1.0000
  Cu  Cu2       1.0  0.7499999319972418  0.7499999940530988  0.7499999891598134  1.0000
  As  As1       1.0  0.9999999334879672  4.3635907917715664e-08  1.2582452037566344e-07  1.0000
  F   F1        1.0  0.24354693278252956  0.2435468049064549  0.7564531853166643  1.0000
  F   F2        1.0  0.756453112815997  0.7564530685053001  0.24354696331705586  1.0000
  F   F3        1.0  0.7564531877013148  0.24354680214215568  0.2435470263093434  1.0000
  F   F4        1.0  0.2435469758731251  0.7564530161505587  0.7564529408809136  1.0000
  F   F5        1.0  0.24354693876589303  0.7564531477616936  0.24354692142669673  1.0000
  F   F6        1.0  0.7564530804739049  0.24354693464309435  0.7564529314944  1.0000
