data_image0
_chemical_formula_structural       Cu2AsI6
_chemical_formula_sum              "Cu2 As1 I6"
_cell_length_a       7.740259180636253
_cell_length_b       7.740259015129981
_cell_length_c       7.74025913128332
_cell_angle_alpha    59.99999923139524
_cell_angle_beta     59.99999997202186
_cell_angle_gamma    59.99999930314315

_space_group_name_H-M_alt    "P 1"
_space_group_IT_number       1

loop_
  _space_group_symop_operation_xyz
  'x, y, z'

loop_
  _atom_site_type_symbol
  _atom_site_label
  _atom_site_symmetry_multiplicity
  _atom_site_fract_x
  _atom_site_fract_y
  _atom_site_fract_z
  _atom_site_occupancy
  Cu  Cu1       1.0  0.2500000045287797  0.2500000009881689  0.2500000071745193  1.0000
  Cu  Cu2       1.0  0.7499999297579043  0.7500000441044311  0.7500000312402956  1.0000
  As  As1       1.0  2.483335554752101e-08  1.5823047522272616e-09  6.1713659575943124e-09  1.0000
  I   I1        1.0  0.2575147376463467  0.25751466752883717  0.7424852885002533  1.0000
  I   I2        1.0  0.742485280318838  0.7424852921193047  0.2575146978277374  1.0000
  I   I3        1.0  0.7424852980453218  0.25751469046208564  0.25751472406185805  1.0000
  I   I4        1.0  0.2575147352593897  0.7424852992498471  0.7424852718631338  1.0000
  I   I5        1.0  0.25751471325986314  0.7424852971439074  0.2575147000721674  1.0000
  I   I6        1.0  0.7424852745820901  0.25751470364415885  0.7424852794555304  1.0000
