data_image0
_chemical_formula_structural       Cu2AsCl6
_chemical_formula_sum              "Cu2 As1 Cl6"
_cell_length_a       6.604791374464804
_cell_length_b       6.60479147747529
_cell_length_c       6.604791322383185
_cell_angle_alpha    60.0000011080137
_cell_angle_beta     59.99999995662821
_cell_angle_gamma    60.00000107711284

_space_group_name_H-M_alt    "P 1"
_space_group_IT_number       1

loop_
  _space_group_symop_operation_xyz
  'x, y, z'

loop_
  _atom_site_type_symbol
  _atom_site_label
  _atom_site_symmetry_multiplicity
  _atom_site_fract_x
  _atom_site_fract_y
  _atom_site_fract_z
  _atom_site_occupancy
  Cu  Cu1       1.0  0.2500001191443276  0.24999989274362  0.24999995910346573  1.0000
  Cu  Cu2       1.0  0.7499998814711747  0.7500000676396997  0.7500000492813355  1.0000
  As  As1       1.0  2.2003442051821695e-08  7.417311319601621e-09  0.9999999868036756  1.0000
  Cl  Cl1       1.0  0.25047791603010094  0.2504778556080212  0.7495221441523154  1.0000
  Cl  Cl2       1.0  0.7495220680025018  0.7495221492791659  0.2504778941795211  1.0000
  Cl  Cl3       1.0  0.7495221170143008  0.25047786519674176  0.25047788787933545  1.0000
  Cl  Cl4       1.0  0.25047789140632565  0.749522113729856  0.749522108845317  1.0000
  Cl  Cl5       1.0  0.2504779620226934  0.7495221372428191  0.2504778090379797  1.0000
  Cl  Cl6       1.0  0.7495220194132267  0.2504779121482353  0.7495221644327457  1.0000
