data_image0
_chemical_formula_structural       Cu2AsBr6
_chemical_formula_sum              "Cu2 As1 Br6"
_cell_length_a       7.136013348864724
_cell_length_b       7.136013245074665
_cell_length_c       7.136013081013594
_cell_angle_alpha    59.99999916352299
_cell_angle_beta     59.99999924629598
_cell_angle_gamma    59.99999917980947

_space_group_name_H-M_alt    "P 1"
_space_group_IT_number       1

loop_
  _space_group_symop_operation_xyz
  'x, y, z'

loop_
  _atom_site_type_symbol
  _atom_site_label
  _atom_site_symmetry_multiplicity
  _atom_site_fract_x
  _atom_site_fract_y
  _atom_site_fract_z
  _atom_site_occupancy
  Cu  Cu1       1.0  0.24999995076282294  0.24999994334428577  0.25000008812840446  1.0000
  Cu  Cu2       1.0  0.7500001165654183  0.7499999158472217  0.7500000893395514  1.0000
  As  As1       1.0  0.9999999916148768  1.54465863051641e-08  0.9999999320075031  1.0000
  Br  Br1       1.0  0.2539277162484182  0.25392781255987235  0.7460722691988142  1.0000
  Br  Br2       1.0  0.7460722614907848  0.7460722474372499  0.25392770692120914  1.0000
  Br  Br3       1.0  0.7460722811231628  0.2539277480246207  0.2539276852168064  1.0000
  Br  Br4       1.0  0.2539276982510137  0.7460722827956182  0.7460722430150925  1.0000
  Br  Br5       1.0  0.253927692896177  0.74607228971093  0.2539277828386053  1.0000
  Br  Br6       1.0  0.7460722927542107  0.253927751407032  0.7460721959627207  1.0000
