data_image0
_chemical_formula_structural       Cu2AsBr6
_chemical_formula_sum              "Cu2 As1 Br6"
_cell_length_a       7.136013815729209
_cell_length_b       7.136013404843231
_cell_length_c       7.1360137210586725
_cell_angle_alpha    59.999998588430515
_cell_angle_beta     60.000000743557955
_cell_angle_gamma    59.99999951667172

_space_group_name_H-M_alt    "P 1"
_space_group_IT_number       1

loop_
  _space_group_symop_operation_xyz
  'x, y, z'

loop_
  _atom_site_type_symbol
  _atom_site_label
  _atom_site_symmetry_multiplicity
  _atom_site_fract_x
  _atom_site_fract_y
  _atom_site_fract_z
  _atom_site_occupancy
  Cu  Cu1       1.0  0.2499996675433122  0.2500000855632346  0.25000039591126516  1.0000
  Cu  Cu2       1.0  0.7500002025065722  0.749999788143294  0.7500000078886365  1.0000
  As  As1       1.0  0.999999973815435  1.5446585135051177e-08  0.9999999633287119  1.0000
  Br  Br1       1.0  0.25393121721709344  0.2539313786355454  0.7460686507645673  1.0000
  Br  Br2       1.0  0.7460687682248214  0.746068610062232  0.2539312959161012  1.0000
  Br  Br3       1.0  0.7460687128618158  0.2539313468719981  0.2539312465159453  1.0000
  Br  Br4       1.0  0.2539312944150006  0.7460687413704411  0.7460685946319785  1.0000
  Br  Br5       1.0  0.2539313310145853  0.7460686901456398  0.2539312368444835  1.0000
  Br  Br6       1.0  0.7460688299202042  0.25393134489189595  0.7460686045252394  1.0000
