data_image0
_chemical_formula_structural       Cu2BiCl6
_chemical_formula_sum              "Cu2 Bi1 Cl6"
_cell_length_a       6.85886583443714
_cell_length_b       6.85886581996841
_cell_length_c       6.858865783152439
_cell_angle_alpha    59.99999786173363
_cell_angle_beta     60.00000041518524
_cell_angle_gamma    59.999999491585235

_space_group_name_H-M_alt    "P 1"
_space_group_IT_number       1

loop_
  _space_group_symop_operation_xyz
  'x, y, z'

loop_
  _atom_site_type_symbol
  _atom_site_label
  _atom_site_symmetry_multiplicity
  _atom_site_fract_x
  _atom_site_fract_y
  _atom_site_fract_z
  _atom_site_occupancy
  Cu  Cu1       1.0  0.24999999894941158  0.2500000772395738  0.249999918252245  1.0000
  Cu  Cu2       1.0  0.7499999618388331  0.7499999781581719  0.7500000492123164  1.0000
  Bi  Bi1       1.0  0.9999999988270976  0.9999999732154325  1.1749439270990623e-07  1.0000
  Cl  Cl1       1.0  0.26125345521771715  0.26125340763525773  0.7387466076118828  1.0000
  Cl  Cl2       1.0  0.7387465448370343  0.7387465602662413  0.2612534729035374  1.0000
  Cl  Cl3       1.0  0.7387465259170485  0.2612534883294043  0.26125339980171586  1.0000
  Cl  Cl4       1.0  0.2612535654209722  0.7387465188561269  0.7387464871289567  1.0000
  Cl  Cl5       1.0  0.26125347761991674  0.7387465727641611  0.2612533319471245  1.0000
  Cl  Cl6       1.0  0.7387464679496109  0.261253427278819  0.7387466168594002  1.0000
