data_image0
_chemical_formula_structural       Cu2BI6
_chemical_formula_sum              "Cu2 B1 I6"
_cell_length_a       7.335478267427074
_cell_length_b       7.33547949756792
_cell_length_c       7.335478719763015
_cell_angle_alpha    60.000001871555085
_cell_angle_beta     59.99999975138607
_cell_angle_gamma    60.0000124456402

_space_group_name_H-M_alt    "P 1"
_space_group_IT_number       1

loop_
  _space_group_symop_operation_xyz
  'x, y, z'

loop_
  _atom_site_type_symbol
  _atom_site_label
  _atom_site_symmetry_multiplicity
  _atom_site_fract_x
  _atom_site_fract_y
  _atom_site_fract_z
  _atom_site_occupancy
  Cu  Cu1       1.0  0.24999983249224225  0.250000043007209  0.2500000625596978  1.0000
  Cu  Cu2       1.0  0.7499999110093907  0.750000290974603  0.7499999108421771  1.0000
  B   B1        1.0  5.56047779874534e-08  0.9999999181887296  0.9999999926546849  1.0000
  I   I1        1.0  0.23724602971232736  0.23724565441072062  0.7627541459799608  1.0000
  I   I2        1.0  0.7627540414706389  0.76275422543506  0.23724582794034627  1.0000
  I   I3        1.0  0.7627542601107076  0.23724573004916255  0.23724598310756295  1.0000
  I   I4        1.0  0.23724580569784356  0.7627541564750853  0.7627541360271349  1.0000
  I   I5        1.0  0.23724581314776355  0.7627542048401068  0.23724590650572205  1.0000
  I   I6        1.0  0.7627542598302802  0.23724577351312887  0.7627540336221679  1.0000
