data_image0
_chemical_formula_structural       Cu2BiCl6
_chemical_formula_sum              "Cu2 Bi1 Cl6"
_cell_length_a       6.858695299581878
_cell_length_b       6.858695267550969
_cell_length_c       6.858695276005163
_cell_angle_alpha    59.99999922802496
_cell_angle_beta     59.99999867122192
_cell_angle_gamma    59.99999986987843

_space_group_name_H-M_alt    "P 1"
_space_group_IT_number       1

loop_
  _space_group_symop_operation_xyz
  'x, y, z'

loop_
  _atom_site_type_symbol
  _atom_site_label
  _atom_site_symmetry_multiplicity
  _atom_site_fract_x
  _atom_site_fract_y
  _atom_site_fract_z
  _atom_site_occupancy
  Cu  Cu1       1.0  0.2499999349444591  0.24999999459856778  0.24999997892468137  1.0000
  Cu  Cu2       1.0  0.7500000869240631  0.7499999052256958  0.750000078500245  1.0000
  Bi  Bi1       1.0  0.99999998059679  0.9999999875002256  1.0488969075327616e-07  1.0000
  Cl  Cl1       1.0  0.2612586227865625  0.26125868620925413  0.7387413738687455  1.0000
  Cl  Cl2       1.0  0.7387414040275022  0.7387413957545751  0.2612585229454763  1.0000
  Cl  Cl3       1.0  0.7387413769472656  0.26125863096117874  0.26125862684220597  1.0000
  Cl  Cl4       1.0  0.26125865440985124  0.7387413010053614  0.7387413572791675  1.0000
  Cl  Cl5       1.0  0.2612586038938957  0.7387414077158201  0.26125865963438266  1.0000
  Cl  Cl6       1.0  0.7387413373476067  0.2612586885334647  0.738741294693442  1.0000
