data_image0
_chemical_formula_structural       Cu2BiBr6
_chemical_formula_sum              "Cu2 Bi1 Br6"
_cell_length_a       7.3364880650884805
_cell_length_b       7.336487897802774
_cell_length_c       7.336488205808048
_cell_angle_alpha    59.99999939045739
_cell_angle_beta     59.999998102885435
_cell_angle_gamma    60.00000085482851

_space_group_name_H-M_alt    "P 1"
_space_group_IT_number       1

loop_
  _space_group_symop_operation_xyz
  'x, y, z'

loop_
  _atom_site_type_symbol
  _atom_site_label
  _atom_site_symmetry_multiplicity
  _atom_site_fract_x
  _atom_site_fract_y
  _atom_site_fract_z
  _atom_site_occupancy
  Cu  Cu1       1.0  0.2500000023700227  0.2500000920856362  0.2499999582782884  1.0000
  Cu  Cu2       1.0  0.7500000104544604  0.7499999357016489  0.7500000270836972  1.0000
  Bi  Bi1       1.0  0.999999971972338  0.9999999565958988  1.1340972967815724e-07  1.0000
  Br  Br1       1.0  0.26570325361170943  0.2657033092294211  0.7342967277215022  1.0000
  Br  Br2       1.0  0.7342967529007355  0.7342967469374688  0.26570323433925075  1.0000
  Br  Br3       1.0  0.7342966790194567  0.2657033275705138  0.26570328313936914  1.0000
  Br  Br4       1.0  0.26570339126250386  0.734296603392237  0.7342966414861957  1.0000
  Br  Br5       1.0  0.2657033552634451  0.7342966253967723  0.2657033796660437  1.0000
  Br  Br6       1.0  0.7342965860829452  0.2657034090680655  0.7342966367331627  1.0000
