data_image0
_chemical_formula_structural       Cu2BiI6
_chemical_formula_sum              "Cu2 Bi1 I6"
_cell_length_a       8.028114575967706
_cell_length_b       8.028114787040197
_cell_length_c       8.028114533357037
_cell_angle_alpha    59.99999998048881
_cell_angle_beta     60.00000184070102
_cell_angle_gamma    59.99999838670595

_space_group_name_H-M_alt    "P 1"
_space_group_IT_number       1

loop_
  _space_group_symop_operation_xyz
  'x, y, z'

loop_
  _atom_site_type_symbol
  _atom_site_label
  _atom_site_symmetry_multiplicity
  _atom_site_fract_x
  _atom_site_fract_y
  _atom_site_fract_z
  _atom_site_occupancy
  Cu  Cu1       1.0  0.24999998591131148  0.2500000718267631  0.2499999577314432  1.0000
  Cu  Cu2       1.0  0.7499999497023534  0.7500000583466082  0.7499999694788091  1.0000
  Bi  Bi1       1.0  2.7366992237814326e-11  9.916203275702203e-08  0.9999998918610424  1.0000
  I   I1        1.0  0.2678965403749298  0.26789654494272586  0.7321034456822016  1.0000
  I   I2        1.0  0.7321034504359676  0.7321033808043006  0.26789660721313135  1.0000
  I   I3        1.0  0.73210346156571  0.2678965368636408  0.26789654499134496  1.0000
  I   I4        1.0  0.26789654801563856  0.7321034102413609  0.7321035127522244  1.0000
  I   I5        1.0  0.2678965145167635  0.7321034614815585  0.26789651050653873  1.0000
  I   I6        1.0  0.7321035529613887  0.2678964413819195  0.7321035566024842  1.0000
