data_image0
_chemical_formula_structural       Cu2BiI6
_chemical_formula_sum              "Cu2 Bi1 I6"
_cell_length_a       8.028032851919242
_cell_length_b       8.028032942284684
_cell_length_c       8.028033044701521
_cell_angle_alpha    60.00000000251982
_cell_angle_beta     60.00000016709433
_cell_angle_gamma    60.00000057267978

_space_group_name_H-M_alt    "P 1"
_space_group_IT_number       1

loop_
  _space_group_symop_operation_xyz
  'x, y, z'

loop_
  _atom_site_type_symbol
  _atom_site_label
  _atom_site_symmetry_multiplicity
  _atom_site_fract_x
  _atom_site_fract_y
  _atom_site_fract_z
  _atom_site_occupancy
  Cu  Cu1       1.0  0.24999997391181392  0.25000004028255685  0.249999982772298  1.0000
  Cu  Cu2       1.0  0.7499999706987296  0.7500000171078733  0.7499999856702299  1.0000
  Bi  Bi1       1.0  0.9999999869976685  0.9999999527068569  0.9999999653747103  1.0000
  I   I1        1.0  0.26789099199011235  0.2678909392667816  0.732109026626889  1.0000
  I   I2        1.0  0.7321091229847174  0.7321090342164603  0.2678909359561449  1.0000
  I   I3        1.0  0.7321090344693246  0.2678909698599159  0.26789100242899155  1.0000
  I   I4        1.0  0.26789091878620286  0.7321090615955652  0.732109090502586  1.0000
  I   I5        1.0  0.2678909045773821  0.7321090518945151  0.2678909771398073  1.0000
  I   I6        1.0  0.73210909557738  0.26789093379340834  0.7321090317683782  1.0000
