data_image0
_chemical_formula_structural       Cu2BF6
_chemical_formula_sum              "Cu2 B1 F6"
_cell_length_a       4.930785665199638
_cell_length_b       4.93078533480877
_cell_length_c       4.930785857437199
_cell_angle_alpha    59.99999886366595
_cell_angle_beta     59.99999798093115
_cell_angle_gamma    59.99999857872535

_space_group_name_H-M_alt    "P 1"
_space_group_IT_number       1

loop_
  _space_group_symop_operation_xyz
  'x, y, z'

loop_
  _atom_site_type_symbol
  _atom_site_label
  _atom_site_symmetry_multiplicity
  _atom_site_fract_x
  _atom_site_fract_y
  _atom_site_fract_z
  _atom_site_occupancy
  Cu  Cu1       1.0  0.25000009658688127  0.2500000151949715  0.24999995152462406  1.0000
  Cu  Cu2       1.0  0.7500000240961934  0.7499999362944626  0.7500000663882144  1.0000
  B   B1        1.0  0.9999999775560127  0.9999997441609898  1.3508534575780446e-07  1.0000
  F   F1        1.0  0.22480580026084615  0.22480608710624214  0.7751939987811521  1.0000
  F   F2        1.0  0.775194151380941  0.7751941326415654  0.22480580930528057  1.0000
  F   F3        1.0  0.7751941534419917  0.22480579948452165  0.22480592712163394  1.0000
  F   F4        1.0  0.22480584229674047  0.7751941544887834  0.7751940729265439  1.0000
  F   F5        1.0  0.2248058179965904  0.7751941903466831  0.22480597111899003  1.0000
  F   F6        1.0  0.7751941043623668  0.22480592756230064  0.775194089111102  1.0000
