data_image0
_chemical_formula_structural       Cu2BBr6
_chemical_formula_sum              "Cu2 B1 Br6"
_cell_length_a       6.937133596927872
_cell_length_b       6.937133759155424
_cell_length_c       6.937133263023994
_cell_angle_alpha    60.00000229243701
_cell_angle_beta     60.00000105918913
_cell_angle_gamma    59.999998176374376

_space_group_name_H-M_alt    "P 1"
_space_group_IT_number       1

loop_
  _space_group_symop_operation_xyz
  'x, y, z'

loop_
  _atom_site_type_symbol
  _atom_site_label
  _atom_site_symmetry_multiplicity
  _atom_site_fract_x
  _atom_site_fract_y
  _atom_site_fract_z
  _atom_site_occupancy
  Cu  Cu1       1.0  0.25000013538840776  0.24999998544198457  0.2500000030894276  1.0000
  Cu  Cu2       1.0  0.7499999937332155  0.7499999951667766  0.7500003949933116  1.0000
  B   B1        1.0  1.0432830621198075e-07  0.9999999117254366  1.8225345732101667e-07  1.0000
  Br  Br1       1.0  0.2299293999304792  0.22992964993773232  0.7700704375383068  1.0000
  Br  Br2       1.0  0.7700704658419252  0.7700704366005101  0.22992945399813855  1.0000
  Br  Br3       1.0  0.7700703386640829  0.2299296262187033  0.22992948058125287  1.0000
  Br  Br4       1.0  0.2299295766747237  0.7700704214787311  0.7700703104522306  1.0000
  Br  Br5       1.0  0.2299296241424  0.7700704226055076  0.22992941413626242  1.0000
  Br  Br6       1.0  0.7700703512547866  0.22992955976875015  0.770070356465337  1.0000
