data_image0
_chemical_formula_structural       Cu2GaBr6
_chemical_formula_sum              "Cu2 Ga1 Br6"
_cell_length_a       6.963415512996587
_cell_length_b       6.963415607479262
_cell_length_c       6.963415504064701
_cell_angle_alpha    59.99999791768303
_cell_angle_beta     59.99999978998072
_cell_angle_gamma    60.00000010485234

_space_group_name_H-M_alt    "P 1"
_space_group_IT_number       1

loop_
  _space_group_symop_operation_xyz
  'x, y, z'

loop_
  _atom_site_type_symbol
  _atom_site_label
  _atom_site_symmetry_multiplicity
  _atom_site_fract_x
  _atom_site_fract_y
  _atom_site_fract_z
  _atom_site_occupancy
  Cu  Cu1       1.0  0.24999981565524057  0.25000013051284764  0.24999994660865063  1.0000
  Cu  Cu2       1.0  0.7499999104910351  0.750000055602434  0.7499999426162733  1.0000
  Ga  Ga1       1.0  0.9999999743734812  0.9999999525116487  5.091820473233306e-08  1.0000
  Br  Br1       1.0  0.2544132675701886  0.2544132282119077  0.7455868006624501  1.0000
  Br  Br2       1.0  0.7455868948309422  0.7455867187027916  0.25441322555194923  1.0000
  Br  Br3       1.0  0.7455867919506579  0.25441316308053646  0.25441326589504987  1.0000
  Br  Br4       1.0  0.2544132256807569  0.7455868102165796  0.7455867749946157  1.0000
  Br  Br5       1.0  0.25441330029877735  0.7455867343777152  0.2544131801182369  1.0000
  Br  Br6       1.0  0.745586810211265  0.2544132090193299  0.7455868091770743  1.0000
