data_image0
_chemical_formula_structural       Cu2GaCl6
_chemical_formula_sum              "Cu2 Ga1 Cl6"
_cell_length_a       6.538225386149791
_cell_length_b       6.538225483306763
_cell_length_c       6.538225177857879
_cell_angle_alpha    60.00000121548544
_cell_angle_beta     60.000001435908466
_cell_angle_gamma    60.00000072935164

_space_group_name_H-M_alt    "P 1"
_space_group_IT_number       1

loop_
  _space_group_symop_operation_xyz
  'x, y, z'

loop_
  _atom_site_type_symbol
  _atom_site_label
  _atom_site_symmetry_multiplicity
  _atom_site_fract_x
  _atom_site_fract_y
  _atom_site_fract_z
  _atom_site_occupancy
  Cu  Cu1       1.0  0.24999999795324956  0.2499999505340029  0.25000007190274137  1.0000
  Cu  Cu2       1.0  0.7499999921976487  0.750000031429864  0.7499999996795808  1.0000
  Ga  Ga1       1.0  6.654164311005192e-09  0.9999999906339657  3.8063144335853395e-08  1.0000
  Cl  Cl1       1.0  0.2521246506144051  0.25212470207681775  0.7478753256108641  1.0000
  Cl  Cl2       1.0  0.7478753539681148  0.7478752948727038  0.252124703732413  1.0000
  Cl  Cl3       1.0  0.7478753488429078  0.2521246357567066  0.25212467245825004  1.0000
  Cl  Cl4       1.0  0.25212468231950647  0.7478753874177105  0.7478752540092791  1.0000
  Cl  Cl5       1.0  0.2521246402016948  0.7478753543966157  0.25212463114308825  1.0000
  Cl  Cl6       1.0  0.7478753366408746  0.25212464629932024  0.7478752924279934  1.0000
