data_image0
_chemical_formula_structural       Cu2GaBr6
_chemical_formula_sum              "Cu2 Ga1 Br6"
_cell_length_a       6.96330777940051
_cell_length_b       6.963307712667466
_cell_length_c       6.9633077039137765
_cell_angle_alpha    60.00000079439332
_cell_angle_beta     60.000000054253576
_cell_angle_gamma    60.000000905454804

_space_group_name_H-M_alt    "P 1"
_space_group_IT_number       1

loop_
  _space_group_symop_operation_xyz
  'x, y, z'

loop_
  _atom_site_type_symbol
  _atom_site_label
  _atom_site_symmetry_multiplicity
  _atom_site_fract_x
  _atom_site_fract_y
  _atom_site_fract_z
  _atom_site_occupancy
  Cu  Cu1       1.0  0.2499998592897432  0.24999998395210188  0.25000000139599965  1.0000
  Cu  Cu2       1.0  0.7500000647436411  0.750000073217306  0.7499998925075735  1.0000
  Ga  Ga1       1.0  4.087032493095031e-08  1.758855165910129e-09  0.9999999643244187  1.0000
  Br  Br1       1.0  0.254416719544065  0.2544167498729361  0.7455832699000116  1.0000
  Br  Br2       1.0  0.7455832639368404  0.7455832334245633  0.2544167461036835  1.0000
  Br  Br3       1.0  0.7455832599058393  0.2544167423626216  0.25441679495031416  1.0000
  Br  Br4       1.0  0.25441670159800783  0.7455832919416733  0.7455832553658824  1.0000
  Br  Br5       1.0  0.2544167746732353  0.7455832115544112  0.25441682843637653  1.0000
  Br  Br6       1.0  0.7455833172156567  0.2544167101831649  0.7455832402565391  1.0000
