data_image0
_chemical_formula_structural       Cu2GaF6
_chemical_formula_sum              "Cu2 Ga1 F6"
_cell_length_a       5.282814813983112
_cell_length_b       5.282815047424754
_cell_length_c       5.282815204313916
_cell_angle_alpha    59.99999823537228
_cell_angle_beta     59.99999856886109
_cell_angle_gamma    59.99999945497323

_space_group_name_H-M_alt    "P 1"
_space_group_IT_number       1

loop_
  _space_group_symop_operation_xyz
  'x, y, z'

loop_
  _atom_site_type_symbol
  _atom_site_label
  _atom_site_symmetry_multiplicity
  _atom_site_fract_x
  _atom_site_fract_y
  _atom_site_fract_z
  _atom_site_occupancy
  Cu  Cu1       1.0  0.24999995128695682  0.24999995341340198  0.2500000495705113  1.0000
  Cu  Cu2       1.0  0.7499999618006149  0.749999969202963  0.7500001159774882  1.0000
  Ga  Ga1       1.0  4.26169444138397e-09  0.9999999675430082  1.409764886912327e-08  1.0000
  F   F1        1.0  0.2501662753098274  0.2501662219156276  0.749833726398935  1.0000
  F   F2        1.0  0.7498336720643318  0.7498337748881483  0.25016627322918833  1.0000
  F   F3        1.0  0.7498337420749017  0.2501662821679342  0.25016621540020284  1.0000
  F   F4        1.0  0.25016634068426075  0.7498337215909112  0.7498336979144442  1.0000
  F   F5        1.0  0.2501663258512069  0.7498337835749704  0.25016619631614817  1.0000
  F   F6        1.0  0.7498336682612029  0.2501663221915627  0.7498337652130034  1.0000
