data_image0
_chemical_formula_structural       Cu2GaF6
_chemical_formula_sum              "Cu2 Ga1 F6"
_cell_length_a       5.2827992577302085
_cell_length_b       5.282799394472856
_cell_length_c       5.28279953031558
_cell_angle_alpha    59.999998927386365
_cell_angle_beta     59.99999913556017
_cell_angle_gamma    59.99999784639561

_space_group_name_H-M_alt    "P 1"
_space_group_IT_number       1

loop_
  _space_group_symop_operation_xyz
  'x, y, z'

loop_
  _atom_site_type_symbol
  _atom_site_label
  _atom_site_symmetry_multiplicity
  _atom_site_fract_x
  _atom_site_fract_y
  _atom_site_fract_z
  _atom_site_occupancy
  Cu  Cu1       1.0  0.2500000403240235  0.25000007183032896  0.24999995926220556  1.0000
  Cu  Cu2       1.0  0.7499999778626948  0.7500000022015554  0.7499999708039117  1.0000
  Ga  Ga1       1.0  3.6915728733684206e-08  0.9999999744980018  0.9999999507556132  1.0000
  F   F1        1.0  0.2501655809973353  0.2501655815784304  0.7498344425406175  1.0000
  F   F2        1.0  0.7498344223322323  0.7498343927638267  0.2501656015869607  1.0000
  F   F3        1.0  0.7498344313923088  0.2501655699141576  0.2501656000402681  1.0000
  F   F4        1.0  0.2501655383778598  0.7498344067464638  0.7498344313137912  1.0000
  F   F5        1.0  0.25016556866686124  0.749834421186362  0.25016560931909804  1.0000
  F   F6        1.0  0.7498344205100951  0.2501655693844394  0.7498344337705135  1.0000
