data_image0
_chemical_formula_structural       Cu2IrI6
_chemical_formula_sum              "Cu2 Ir1 I6"
_cell_length_a       7.480964517147704
_cell_length_b       7.480964615107932
_cell_length_c       7.480964747880841
_cell_angle_alpha    60.00000011644344
_cell_angle_beta     59.99999959079484
_cell_angle_gamma    60.000001177229

_space_group_name_H-M_alt    "P 1"
_space_group_IT_number       1

loop_
  _space_group_symop_operation_xyz
  'x, y, z'

loop_
  _atom_site_type_symbol
  _atom_site_label
  _atom_site_symmetry_multiplicity
  _atom_site_fract_x
  _atom_site_fract_y
  _atom_site_fract_z
  _atom_site_occupancy
  Cu  Cu1       1.0  0.2499999614549102  0.25000000255986315  0.24999999455188263  1.0000
  Cu  Cu2       1.0  0.7499999819809016  0.7499999880338111  0.7499999847722316  1.0000
  Ir  Ir1       1.0  1.699476498420074e-08  0.999999972168479  4.2846705617490355e-08  1.0000
  I   I1        1.0  0.25230281165938295  0.2523028526207583  0.7476971880273093  1.0000
  I   I2        1.0  0.7476971789861495  0.7476971445215101  0.2523028673455489  1.0000
  I   I3        1.0  0.7476971802858439  0.252302868128165  0.2523028478873185  1.0000
  I   I4        1.0  0.25230291514773445  0.747697111005473  0.7476971186471488  1.0000
  I   I5        1.0  0.2523028393641565  0.7476971671356544  0.25230284780305257  1.0000
  I   I6        1.0  0.7476971135654634  0.25230289221824903  0.7476971070980293  1.0000
