data_image0
_chemical_formula_structural       Cu2IrBr6
_chemical_formula_sum              "Cu2 Ir1 Br6"
_cell_length_a       7.051516515135012
_cell_length_b       7.051516384740141
_cell_length_c       7.051516429077911
_cell_angle_alpha    59.99999998799404
_cell_angle_beta     59.999999748444644
_cell_angle_gamma    59.99999987577762

_space_group_name_H-M_alt    "P 1"
_space_group_IT_number       1

loop_
  _space_group_symop_operation_xyz
  'x, y, z'

loop_
  _atom_site_type_symbol
  _atom_site_label
  _atom_site_symmetry_multiplicity
  _atom_site_fract_x
  _atom_site_fract_y
  _atom_site_fract_z
  _atom_site_occupancy
  Cu  Cu1       1.0  0.2500000180264803  0.24999986703764784  0.2500000403570307  1.0000
  Cu  Cu2       1.0  0.7500000439504693  0.7499999606415542  0.7499999846609097  1.0000
  Ir  Ir1       1.0  2.591937882152313e-08  0.999999986105175  9.892968929731617e-08  1.0000
  Br  Br1       1.0  0.2477222905871623  0.24772232858162807  0.7522777010316142  1.0000
  Br  Br2       1.0  0.752277691477498  0.7522777683098184  0.24772227613479367  1.0000
  Br  Br3       1.0  0.7522777542751673  0.24772222449828812  0.24772229125287168  1.0000
  Br  Br4       1.0  0.24772229531105988  0.7522777091289584  0.752277677059465  1.0000
  Br  Br5       1.0  0.2477222161489375  0.7522778092329699  0.24772227261275392  1.0000
  Br  Br6       1.0  0.7522776715837112  0.24772233976407157  0.7522776547601289  1.0000
