data_image0
_chemical_formula_structural       Cu2IrCl6
_chemical_formula_sum              "Cu2 Ir1 Cl6"
_cell_length_a       6.643356782789092
_cell_length_b       6.643356788939349
_cell_length_c       6.643356651240136
_cell_angle_alpha    60.00000136125432
_cell_angle_beta     59.99999978257483
_cell_angle_gamma    59.999999999428795

_space_group_name_H-M_alt    "P 1"
_space_group_IT_number       1

loop_
  _space_group_symop_operation_xyz
  'x, y, z'

loop_
  _atom_site_type_symbol
  _atom_site_label
  _atom_site_symmetry_multiplicity
  _atom_site_fract_x
  _atom_site_fract_y
  _atom_site_fract_z
  _atom_site_occupancy
  Cu  Cu1       1.0  0.24999986711655192  0.2500000784396838  0.2500000004145047  1.0000
  Cu  Cu2       1.0  0.749999962356238  0.7500000804597354  0.7499999990225094  1.0000
  Ir  Ir1       1.0  1.1359596043897614e-08  0.9999999815643668  0.9999999583801238  1.0000
  Cl  Cl1       1.0  0.24534113229408974  0.24534107142044023  0.7546589382331612  1.0000
  Cl  Cl2       1.0  0.7546588737690083  0.7546588809998922  0.24534111528508207  1.0000
  Cl  Cl3       1.0  0.7546589816898452  0.24534102425986842  0.24534108364900886  1.0000
  Cl  Cl4       1.0  0.24534107282997092  0.754658939221843  0.7546589325838697  1.0000
  Cl  Cl5       1.0  0.2453411594739435  0.7546588543687661  0.24534105405070966  1.0000
  Cl  Cl6       1.0  0.7546589402552949  0.24534107777236905  0.7546589191214299  1.0000
