data_image0
_chemical_formula_structural       Cu2IrF6
_chemical_formula_sum              "Cu2 Ir1 F6"
_cell_length_a       5.545224665743533
_cell_length_b       5.545224621796623
_cell_length_c       5.545224796727586
_cell_angle_alpha    59.99999740355386
_cell_angle_beta     59.999997768737224
_cell_angle_gamma    59.99999805844455

_space_group_name_H-M_alt    "P 1"
_space_group_IT_number       1

loop_
  _space_group_symop_operation_xyz
  'x, y, z'

loop_
  _atom_site_type_symbol
  _atom_site_label
  _atom_site_symmetry_multiplicity
  _atom_site_fract_x
  _atom_site_fract_y
  _atom_site_fract_z
  _atom_site_occupancy
  Cu  Cu1       1.0  0.24999984498930472  0.2500001604721834  0.25000011451895937  1.0000
  Cu  Cu2       1.0  0.7500001306923203  0.7499999623842787  0.7500002619303284  1.0000
  Ir  Ir1       1.0  0.9999999935220432  0.9999999757048723  2.4403309645036196e-08  1.0000
  F   F1        1.0  0.24856880465975925  0.2485688401001424  0.7514310589580016  1.0000
  F   F2        1.0  0.7514311649878777  0.7514311259423223  0.2485687334778757  1.0000
  F   F3        1.0  0.7514311658572205  0.24856881142755205  0.24856881971587352  1.0000
  F   F4        1.0  0.2485688438600048  0.751431128111135  0.7514311480757918  1.0000
  F   F5        1.0  0.24856883480731295  0.7514311960506661  0.24856877270086408  1.0000
  F   F6        1.0  0.7514312023158444  0.24856879870422052  0.7514311014824858  1.0000
