data_image0
_chemical_formula_structural       Cu2MoCl6
_chemical_formula_sum              "Cu2 Mo1 Cl6"
_cell_length_a       6.744657290366735
_cell_length_b       6.744657234596309
_cell_length_c       6.7446573154618985
_cell_angle_alpha    59.999999270798675
_cell_angle_beta     59.999999402323326
_cell_angle_gamma    59.99999929927318

_space_group_name_H-M_alt    "P 1"
_space_group_IT_number       1

loop_
  _space_group_symop_operation_xyz
  'x, y, z'

loop_
  _atom_site_type_symbol
  _atom_site_label
  _atom_site_symmetry_multiplicity
  _atom_site_fract_x
  _atom_site_fract_y
  _atom_site_fract_z
  _atom_site_occupancy
  Cu  Cu1       1.0  0.2500000896666193  0.25000000588191285  0.24999996141566747  1.0000
  Cu  Cu2       1.0  0.7499999355352281  0.7500000575949703  0.7500000206261171  1.0000
  Mo  Mo1       1.0  0.9999999309672608  0.9999999092062918  1.0808366950355003e-07  1.0000
  Cl  Cl1       1.0  0.24771016873762844  0.24771015488839448  0.7522898329007628  1.0000
  Cl  Cl2       1.0  0.7522899277638753  0.752289910404363  0.24771007106891602  1.0000
  Cl  Cl3       1.0  0.7522898948850276  0.24771006947050894  0.2477101225358697  1.0000
  Cl  Cl4       1.0  0.2477101222255683  0.752289879606302  0.7522898881331669  1.0000
  Cl  Cl5       1.0  0.24771009086085635  0.7522898987625684  0.24771010006486177  1.0000
  Cl  Cl6       1.0  0.7522898377942211  0.24771011023809036  0.7522899041128401  1.0000
