data_image0
_chemical_formula_structural       Cu2MoF6
_chemical_formula_sum              "Cu2 Mo1 F6"
_cell_length_a       5.630666348478329
_cell_length_b       5.6306660512906825
_cell_length_c       5.63066607921857
_cell_angle_alpha    60.000002805302096
_cell_angle_beta     60.00000096715192
_cell_angle_gamma    59.99999968966218

_space_group_name_H-M_alt    "P 1"
_space_group_IT_number       1

loop_
  _space_group_symop_operation_xyz
  'x, y, z'

loop_
  _atom_site_type_symbol
  _atom_site_label
  _atom_site_symmetry_multiplicity
  _atom_site_fract_x
  _atom_site_fract_y
  _atom_site_fract_z
  _atom_site_occupancy
  Cu  Cu1       1.0  0.2500000802835678  0.24999995033012976  0.24999996967547408  1.0000
  Cu  Cu2       1.0  0.7499999655759466  0.7499998401147274  0.7500000822934427  1.0000
  Mo  Mo1       1.0  3.273005270037405e-08  0.999999932570871  4.9176147112848795e-09  1.0000
  F   F1        1.0  0.24884524156706847  0.24884530759562826  0.7511546571701544  1.0000
  F   F2        1.0  0.7511546251070893  0.7511547743170749  0.24884533332955858  1.0000
  F   F3        1.0  0.7511547430064911  0.24884532765893128  0.24884525978365837  1.0000
  F   F4        1.0  0.24884528420430926  0.7511547955813002  0.7511546280079805  1.0000
  F   F5        1.0  0.24884531179755248  0.7511547775059549  0.24884529071043346  1.0000
  F   F6        1.0  0.7511547079780381  0.24884526960462003  0.7511547560788987  1.0000
