data_image0
_chemical_formula_structural       Cu2MoBr6
_chemical_formula_sum              "Cu2 Mo1 Br6"
_cell_length_a       7.17528837299923
_cell_length_b       7.175288387946757
_cell_length_c       7.175288292480278
_cell_angle_alpha    60.000000473429694
_cell_angle_beta     60.0000002338198
_cell_angle_gamma    59.99999913845249

_space_group_name_H-M_alt    "P 1"
_space_group_IT_number       1

loop_
  _space_group_symop_operation_xyz
  'x, y, z'

loop_
  _atom_site_type_symbol
  _atom_site_label
  _atom_site_symmetry_multiplicity
  _atom_site_fract_x
  _atom_site_fract_y
  _atom_site_fract_z
  _atom_site_occupancy
  Cu  Cu1       1.0  0.24999994177119306  0.24999999878203039  0.2500000314444087  1.0000
  Cu  Cu2       1.0  0.7500000004009716  0.7499999007600873  0.7500001228724705  1.0000
  Mo  Mo1       1.0  3.2575956670094997e-08  0.9999999795172849  0.9999999981343959  1.0000
  Br  Br1       1.0  0.24730207897385148  0.247302118508826  0.7526979327729219  1.0000
  Br  Br2       1.0  0.7526979165134684  0.7526979107571502  0.24730206312818365  1.0000
  Br  Br3       1.0  0.7526979541010674  0.247302108155492  0.24730201950267783  1.0000
  Br  Br4       1.0  0.24730207983034097  0.7526979023346619  0.7526979289351444  1.0000
  Br  Br5       1.0  0.2473020717561634  0.7526979479675592  0.2473020456021004  1.0000
  Br  Br6       1.0  0.752697928249373  0.247302125677632  0.7526978561666783  1.0000
