data_image0
_chemical_formula_structural       Cu2MoI6
_chemical_formula_sum              "Cu2 Mo1 I6"
_cell_length_a       7.698247500190158
_cell_length_b       7.698247419565764
_cell_length_c       7.6982475407127495
_cell_angle_alpha    59.99999942673672
_cell_angle_beta     59.99999902212733
_cell_angle_gamma    60.00000100035207

_space_group_name_H-M_alt    "P 1"
_space_group_IT_number       1

loop_
  _space_group_symop_operation_xyz
  'x, y, z'

loop_
  _atom_site_type_symbol
  _atom_site_label
  _atom_site_symmetry_multiplicity
  _atom_site_fract_x
  _atom_site_fract_y
  _atom_site_fract_z
  _atom_site_occupancy
  Cu  Cu1       1.0  0.2499999434510441  0.25000003865594217  0.2499999839001442  1.0000
  Cu  Cu2       1.0  0.7499999539263796  0.750000033238956  0.7500000183110384  1.0000
  Mo  Mo1       1.0  0.9999999396691727  0.9999999649993219  4.376876228744211e-08  1.0000
  I   I1        1.0  0.2527470506403718  0.2527470060184643  0.7472529764370753  1.0000
  I   I2        1.0  0.7472530453833006  0.7472530054207228  0.25274697616379144  1.0000
  I   I3        1.0  0.7472529973697456  0.25274700974170383  0.25274701498793234  1.0000
  I   I4        1.0  0.252747027293119  0.7472529682877449  0.7472529951941955  1.0000
  I   I5        1.0  0.2527470627756179  0.7472529368533639  0.2527470254330246  1.0000
  I   I6        1.0  0.7472529825382426  0.2527470332213857  0.7472529615139948  1.0000
