data_image0
_chemical_formula_structural       Cu2NF6
_chemical_formula_sum              "Cu2 N1 F6"
_cell_length_a       4.963286096175191
_cell_length_b       4.963286141514641
_cell_length_c       4.963286268344507
_cell_angle_alpha    59.99999896463516
_cell_angle_beta     59.99999897939977
_cell_angle_gamma    60.00000112101088

_space_group_name_H-M_alt    "P 1"
_space_group_IT_number       1

loop_
  _space_group_symop_operation_xyz
  'x, y, z'

loop_
  _atom_site_type_symbol
  _atom_site_label
  _atom_site_symmetry_multiplicity
  _atom_site_fract_x
  _atom_site_fract_y
  _atom_site_fract_z
  _atom_site_occupancy
  Cu  Cu1       1.0  0.2500000095863774  0.24999992488823308  0.250000060009838  1.0000
  Cu  Cu2       1.0  0.7500000670592998  0.7500000436340636  0.7499999316994239  1.0000
  N   N1        1.0  0.9999999280201223  0.9999999925971722  0.9999999933510879  1.0000
  F   F1        1.0  0.2409284761411873  0.24092863550683424  0.7590714403649279  1.0000
  F   F2        1.0  0.7590714973851479  0.7590714539282938  0.24092851021088313  1.0000
  F   F3        1.0  0.7590714709545328  0.2409285003373147  0.24092844625810034  1.0000
  F   F4        1.0  0.2409286111666485  0.7590714657173734  0.7590714996217433  1.0000
  F   F5        1.0  0.2409284572995936  0.7590715065639143  0.2409284668642954  1.0000
  F   F6        1.0  0.7590714282921506  0.24092847676403167  0.7590716935608731  1.0000
