data_image0
_chemical_formula_structural       Cu2NCl6
_chemical_formula_sum              "Cu2 N1 Cl6"
_cell_length_a       6.449778355387475
_cell_length_b       6.449778399451629
_cell_length_c       6.4497782713341225
_cell_angle_alpha    60.00000035301861
_cell_angle_beta     59.99999926053741
_cell_angle_gamma    60.00000042036181

_space_group_name_H-M_alt    "P 1"
_space_group_IT_number       1

loop_
  _space_group_symop_operation_xyz
  'x, y, z'

loop_
  _atom_site_type_symbol
  _atom_site_label
  _atom_site_symmetry_multiplicity
  _atom_site_fract_x
  _atom_site_fract_y
  _atom_site_fract_z
  _atom_site_occupancy
  Cu  Cu1       1.0  0.2499998994899008  0.24999999520641836  0.25000014666484627  1.0000
  Cu  Cu2       1.0  0.7500000328577228  0.7499999438435773  0.750000064223112  1.0000
  N   N1        1.0  0.9999999007363176  1.0443919636916423e-07  0.9999999850087165  1.0000
  Cl  Cl1       1.0  0.2394964717871316  0.23949634247373228  0.7605035915440911  1.0000
  Cl  Cl2       1.0  0.7605036042184862  0.7605035737895297  0.23949639456150096  1.0000
  Cl  Cl3       1.0  0.7605035789158572  0.23949643296823941  0.23949637089556566  1.0000
  Cl  Cl4       1.0  0.23949645404815326  0.7605036124198472  0.7605035287560724  1.0000
  Cl  Cl5       1.0  0.23949643077827948  0.760503598618979  0.23949637485341954  1.0000
  Cl  Cl6       1.0  0.7605036341225059  0.23949639929674588  0.7605035356668939  1.0000
