data_image0
_chemical_formula_structural       Cu2NF6
_chemical_formula_sum              "Cu2 N1 F6"
_cell_length_a       4.963295407333758
_cell_length_b       4.963295626666589
_cell_length_c       4.9632956694381205
_cell_angle_alpha    60.00000134339959
_cell_angle_beta     60.00000095039319
_cell_angle_gamma    60.00000262570675

_space_group_name_H-M_alt    "P 1"
_space_group_IT_number       1

loop_
  _space_group_symop_operation_xyz
  'x, y, z'

loop_
  _atom_site_type_symbol
  _atom_site_label
  _atom_site_symmetry_multiplicity
  _atom_site_fract_x
  _atom_site_fract_y
  _atom_site_fract_z
  _atom_site_occupancy
  Cu  Cu1       1.0  0.2499999261137925  0.25000005867136127  0.2500000410218686  1.0000
  Cu  Cu2       1.0  0.7500000252103906  0.7499999588649292  0.7500000175401154  1.0000
  N   N1        1.0  4.8763372904521647e-08  0.9999999235042759  1.4281275523489945e-07  1.0000
  F   F1        1.0  0.24093194453102665  0.24093193610702696  0.7590680676706927  1.0000
  F   F2        1.0  0.7590680300821626  0.7590680394799945  0.24093195388124578  1.0000
  F   F3        1.0  0.7590681521880315  0.24093185138493828  0.24093193063099744  1.0000
  F   F4        1.0  0.24093203105841607  0.7590680008218822  0.7590679838211252  1.0000
  F   F5        1.0  0.24093182137863048  0.7590681618672281  0.24093186810638473  1.0000
  F   F6        1.0  0.7590680157100784  0.24093203086894752  0.7590679746126854  1.0000
