data_image0
_chemical_formula_structural       Cu2NCl6
_chemical_formula_sum              "Cu2 N1 Cl6"
_cell_length_a       6.449754454574791
_cell_length_b       6.449754444213824
_cell_length_c       6.449754624692563
_cell_angle_alpha    59.99999885763259
_cell_angle_beta     59.99999973194741
_cell_angle_gamma    59.999999707755606

_space_group_name_H-M_alt    "P 1"
_space_group_IT_number       1

loop_
  _space_group_symop_operation_xyz
  'x, y, z'

loop_
  _atom_site_type_symbol
  _atom_site_label
  _atom_site_symmetry_multiplicity
  _atom_site_fract_x
  _atom_site_fract_y
  _atom_site_fract_z
  _atom_site_occupancy
  Cu  Cu1       1.0  0.24999995634918354  0.25000006740900016  0.24999998383836003  1.0000
  Cu  Cu2       1.0  0.7500000681372849  0.7499999325829781  0.7499999542328475  1.0000
  N   N1        1.0  0.9999999963480626  0.9999999411340512  3.9011176083363276e-08  1.0000
  Cl  Cl1       1.0  0.23949701826245373  0.23949703531946792  0.7605029917886349  1.0000
  Cl  Cl2       1.0  0.7605029199823734  0.7605029494812973  0.2394970140539116  1.0000
  Cl  Cl3       1.0  0.7605030331633912  0.23949698355461546  0.23949703415126072  1.0000
  Cl  Cl4       1.0  0.23949707857938546  0.7605029157955793  0.7605030005385867  1.0000
  Cl  Cl5       1.0  0.2394969524418226  0.7605030644810293  0.23949703391635235  1.0000
  Cl  Cl6       1.0  0.7605029785300019  0.23949711400769597  0.7605029407365785  1.0000
