data_image0
_chemical_formula_structural       Cu2PBr6
_chemical_formula_sum              "Cu2 P1 Br6"
_cell_length_a       7.015910760650715
_cell_length_b       7.015910972182823
_cell_length_c       7.0159099544121535
_cell_angle_alpha    60.00000399320621
_cell_angle_beta     60.00000371202409
_cell_angle_gamma    60.00000049645079

_space_group_name_H-M_alt    "P 1"
_space_group_IT_number       1

loop_
  _space_group_symop_operation_xyz
  'x, y, z'

loop_
  _atom_site_type_symbol
  _atom_site_label
  _atom_site_symmetry_multiplicity
  _atom_site_fract_x
  _atom_site_fract_y
  _atom_site_fract_z
  _atom_site_occupancy
  Cu  Cu1       1.0  0.24999987733737986  0.2500000807774814  0.25000006240995315  1.0000
  Cu  Cu2       1.0  0.750000039813199  0.7500002039277471  0.7499998357678506  1.0000
  P   P1        1.0  6.777859004592128e-08  0.99999998428899  0.9999999525862321  1.0000
  Br  Br1       1.0  0.24467204406718931  0.2446718906140311  0.7553280346517436  1.0000
  Br  Br2       1.0  0.7553279081195939  0.7553279087956105  0.2446720900810861  1.0000
  Br  Br3       1.0  0.7553280754079598  0.24467195626192914  0.24467197966084053  1.0000
  Br  Br4       1.0  0.24467195284920518  0.7553280543734864  0.7553280285052155  1.0000
  Br  Br5       1.0  0.24467195756540144  0.7553279872919013  0.24467200177386783  1.0000
  Br  Br6       1.0  0.7553280760628625  0.24467194304280607  0.7553280139250242  1.0000
