data_image0
_chemical_formula_structural       Cu2PI6
_chemical_formula_sum              "Cu2 P1 I6"
_cell_length_a       7.569144528673299
_cell_length_b       7.569144525251101
_cell_length_c       7.569144594744054
_cell_angle_alpha    59.99999989007047
_cell_angle_beta     59.999999771244056
_cell_angle_gamma    60.00000006901624

_space_group_name_H-M_alt    "P 1"
_space_group_IT_number       1

loop_
  _space_group_symop_operation_xyz
  'x, y, z'

loop_
  _atom_site_type_symbol
  _atom_site_label
  _atom_site_symmetry_multiplicity
  _atom_site_fract_x
  _atom_site_fract_y
  _atom_site_fract_z
  _atom_site_occupancy
  Cu  Cu1       1.0  0.2499999919161862  0.25000004907322915  0.24999996447812303  1.0000
  Cu  Cu2       1.0  0.7500000021322203  0.7499999902663462  0.7500000260980245  1.0000
  P   P1        1.0  2.865994197952786e-09  9.708454133226762e-09  3.1854211243487056e-10  1.0000
  I   I1        1.0  0.25674295891994786  0.25674296950047837  0.7432570330131247  1.0000
  I   I2        1.0  0.7432570426028162  0.7432570245329779  0.25674295930391117  1.0000
  I   I3        1.0  0.7432570439484348  0.2567429553938812  0.25674295902118976  1.0000
  I   I4        1.0  0.2567429579444865  0.7432570192226666  0.7432570560307543  1.0000
  I   I5        1.0  0.25674296191455265  0.7432570247365313  0.2567429605740875  1.0000
  I   I6        1.0  0.7432570408720072  0.2567429563523195  0.7432570375833533  1.0000
