data_image0
_chemical_formula_structural       Cu2PF6
_chemical_formula_sum              "Cu2 P1 F6"
_cell_length_a       5.251513240735652
_cell_length_b       5.251513309159771
_cell_length_c       5.251513272151356
_cell_angle_alpha    60.000000114569005
_cell_angle_beta     60.00000172684838
_cell_angle_gamma    60.000000576175516

_space_group_name_H-M_alt    "P 1"
_space_group_IT_number       1

loop_
  _space_group_symop_operation_xyz
  'x, y, z'

loop_
  _atom_site_type_symbol
  _atom_site_label
  _atom_site_symmetry_multiplicity
  _atom_site_fract_x
  _atom_site_fract_y
  _atom_site_fract_z
  _atom_site_occupancy
  Cu  Cu1       1.0  0.25000000811669987  0.2499999336354294  0.2500000332837747  1.0000
  Cu  Cu2       1.0  0.7499999798825088  0.7499999804837727  0.7500000361048024  1.0000
  P   P1        1.0  8.905678418426053e-09  3.2650451641795414e-08  0.9999999906472132  1.0000
  F   F1        1.0  0.22013791397935392  0.2201377678570791  0.7798621483475678  1.0000
  F   F2        1.0  0.7798620801932187  0.7798622068986766  0.22013785526442875  1.0000
  F   F3        1.0  0.7798621541009617  0.22013782167535403  0.22013785668179556  1.0000
  F   F4        1.0  0.22013785401889235  0.7798621903952039  0.7798620870233249  1.0000
  F   F5        1.0  0.22013786378718575  0.779862220872282  0.22013782216006866  1.0000
  F   F6        1.0  0.7798621265860392  0.2201378378417781  0.7798621432766628  1.0000
