data_image0
_chemical_formula_structural       Cu2RhCl6
_chemical_formula_sum              "Cu2 Rh1 Cl6"
_cell_length_a       6.600642342245497
_cell_length_b       6.600642148052906
_cell_length_c       6.600642500584161
_cell_angle_alpha    59.999997643333515
_cell_angle_beta     59.99999985060472
_cell_angle_gamma    59.99999697141027

_space_group_name_H-M_alt    "P 1"
_space_group_IT_number       1

loop_
  _space_group_symop_operation_xyz
  'x, y, z'

loop_
  _atom_site_type_symbol
  _atom_site_label
  _atom_site_symmetry_multiplicity
  _atom_site_fract_x
  _atom_site_fract_y
  _atom_site_fract_z
  _atom_site_occupancy
  Cu  Cu1       1.0  0.25000007914944955  0.24999994916540313  0.24999997226571175  1.0000
  Cu  Cu2       1.0  0.7499999829216757  0.7499999235714504  0.749999980267781  1.0000
  Rh  Rh1       1.0  0.9999999553105404  5.009832755658096e-08  0.9999999806305212  1.0000
  Cl  Cl1       1.0  0.24709554877709772  0.24709559064242262  0.7529044409080012  1.0000
  Cl  Cl2       1.0  0.7529043352425985  0.7529045066091561  0.24709559292911956  1.0000
  Cl  Cl3       1.0  0.7529043775316138  0.24709555558504415  0.24709563761725403  1.0000
  Cl  Cl4       1.0  0.2470955798406798  0.7529043950825407  0.7529044116255098  1.0000
  Cl  Cl5       1.0  0.24709562748277328  0.7529044312396831  0.24709556100696406  1.0000
  Cl  Cl6       1.0  0.7529045187857157  0.24709558251468003  0.752904424359479  1.0000
