data_image0
_chemical_formula_structural       Cu2RhF6
_chemical_formula_sum              "Cu2 Rh1 F6"
_cell_length_a       5.499147630129027
_cell_length_b       5.499147486023262
_cell_length_c       5.499147323644112
_cell_angle_alpha    60.00000019434522
_cell_angle_beta     60.00000096177467
_cell_angle_gamma    59.99999979460953

_space_group_name_H-M_alt    "P 1"
_space_group_IT_number       1

loop_
  _space_group_symop_operation_xyz
  'x, y, z'

loop_
  _atom_site_type_symbol
  _atom_site_label
  _atom_site_symmetry_multiplicity
  _atom_site_fract_x
  _atom_site_fract_y
  _atom_site_fract_z
  _atom_site_occupancy
  Cu  Cu1       1.0  0.2499999307013595  0.2500001202203024  0.24999991287251336  1.0000
  Cu  Cu2       1.0  0.7500000733329981  0.7499999642274804  0.7499999762477044  1.0000
  Rh  Rh1       1.0  3.160223264464297e-08  3.118015701641847e-08  0.9999999777011235  1.0000
  F   F1        1.0  0.24989969542417806  0.2498996705755411  0.750100320468107  1.0000
  F   F2        1.0  0.7501004298480237  0.7501002958330752  0.24989964342824855  1.0000
  F   F3        1.0  0.7501002958359217  0.24989969851945423  0.24989970939170683  1.0000
  F   F4        1.0  0.24989964440081242  0.7501002812520865  0.7501003512517038  1.0000
  F   F5        1.0  0.2498996907878016  0.750100275113351  0.2498997167208303  1.0000
  F   F6        1.0  0.7501002337751895  0.24989968238664897  0.7501003556213677  1.0000
