data_image0
_chemical_formula_structural       Cu2RhBr6
_chemical_formula_sum              "Cu2 Rh1 Br6"
_cell_length_a       6.979828858911484
_cell_length_b       6.9798289090230865
_cell_length_c       6.979828779291061
_cell_angle_alpha    60.00000053377507
_cell_angle_beta     60.00000017154354
_cell_angle_gamma    59.9999990270314

_space_group_name_H-M_alt    "P 1"
_space_group_IT_number       1

loop_
  _space_group_symop_operation_xyz
  'x, y, z'

loop_
  _atom_site_type_symbol
  _atom_site_label
  _atom_site_symmetry_multiplicity
  _atom_site_fract_x
  _atom_site_fract_y
  _atom_site_fract_z
  _atom_site_occupancy
  Cu  Cu1       1.0  0.24999997531673152  0.2500000114316745  0.2499999617208755  1.0000
  Cu  Cu2       1.0  0.749999926400303  0.7500000974639289  0.7499999636710118  1.0000
  Rh  Rh1       1.0  2.638629511663556e-08  0.9999999754343141  0.9999998859064032  1.0000
  Br  Br1       1.0  0.24879348437491505  0.24879340281364207  0.7512065559678976  1.0000
  Br  Br2       1.0  0.7512065663187502  0.7512065569331541  0.24879345547207202  1.0000
  Br  Br3       1.0  0.7512065778956505  0.24879341600471175  0.24879344140572154  1.0000
  Br  Br4       1.0  0.2487933571433118  0.7512066227032184  0.7512066729103267  1.0000
  Br  Br5       1.0  0.24879347361555476  0.7512065543412402  0.2487934105241273  1.0000
  Br  Br6       1.0  0.751206608243936  0.24879336153826015  0.7512066545456743  1.0000
