data_image0
_chemical_formula_structural       Cu2RuI6
_chemical_formula_sum              "Cu2 Ru1 I6"
_cell_length_a       7.50471842655981
_cell_length_b       7.504718298034566
_cell_length_c       7.504718607005621
_cell_angle_alpha    59.99999869982902
_cell_angle_beta     60.00000030408157
_cell_angle_gamma    59.999999147220244

_space_group_name_H-M_alt    "P 1"
_space_group_IT_number       1

loop_
  _space_group_symop_operation_xyz
  'x, y, z'

loop_
  _atom_site_type_symbol
  _atom_site_label
  _atom_site_symmetry_multiplicity
  _atom_site_fract_x
  _atom_site_fract_y
  _atom_site_fract_z
  _atom_site_occupancy
  Cu  Cu1       1.0  0.25000001996289845  0.24999998994925343  0.2500000021010795  1.0000
  Cu  Cu2       1.0  0.7499999485151082  0.7500000547100188  0.7499999849140317  1.0000
  Ru  Ru1       1.0  2.2442168515938436e-08  6.527865961852188e-09  9.499892902075763e-09  1.0000
  I   I1        1.0  0.25268671239218365  0.2526866587837227  0.7473133236910221  1.0000
  I   I2        1.0  0.7473133370280629  0.7473133369165543  0.25268667531486255  1.0000
  I   I3        1.0  0.7473132974683819  0.25268667286145213  0.2526867061405511  1.0000
  I   I4        1.0  0.252686702110322  0.7473132738798298  0.7473133009582569  1.0000
  I   I5        1.0  0.2526866671680749  0.7473133114919311  0.25268666078642055  1.0000
  I   I6        1.0  0.7473132954514159  0.25268669073621197  0.7473133370485632  1.0000
