data_image0
_chemical_formula_structural       Cu2RuF6
_chemical_formula_sum              "Cu2 Ru1 F6"
_cell_length_a       5.545951946453845
_cell_length_b       5.545951701386831
_cell_length_c       5.545952029822871
_cell_angle_alpha    59.9999964069476
_cell_angle_beta     59.999997454879505
_cell_angle_gamma    59.999996797989944

_space_group_name_H-M_alt    "P 1"
_space_group_IT_number       1

loop_
  _space_group_symop_operation_xyz
  'x, y, z'

loop_
  _atom_site_type_symbol
  _atom_site_label
  _atom_site_symmetry_multiplicity
  _atom_site_fract_x
  _atom_site_fract_y
  _atom_site_fract_z
  _atom_site_occupancy
  Cu  Cu1       1.0  0.25000011739054245  0.2499998126493008  0.2500000361535981  1.0000
  Cu  Cu2       1.0  0.7500001347458346  0.7499999215784016  0.7499999951927251  1.0000
  Ru  Ru1       1.0  0.9999999764875156  0.9999999955832825  8.608927861928534e-08  1.0000
  F   F1        1.0  0.24658007475876273  0.2465802370962646  0.7534198282275245  1.0000
  F   F2        1.0  0.7534197558269686  0.753419912302827  0.24658009812141224  1.0000
  F   F3        1.0  0.7534196222742213  0.2465803973924955  0.24658015281119652  1.0000
  F   F4        1.0  0.24658019956103402  0.753419846966009  0.7534197394488555  1.0000
  F   F5        1.0  0.246580279410024  0.7534197574731563  0.2465802792186925  1.0000
  F   F6        1.0  0.753419851753883  0.24658013354799538  0.7534197684763624  1.0000
