data_image0
_chemical_formula_structural       Cu2RuCl6
_chemical_formula_sum              "Cu2 Ru1 Cl6"
_cell_length_a       6.628609154683295
_cell_length_b       6.628608852539253
_cell_length_c       6.628608949249835
_cell_angle_alpha    60.000001036342674
_cell_angle_beta     60.00000026479073
_cell_angle_gamma    60.00000027604713

_space_group_name_H-M_alt    "P 1"
_space_group_IT_number       1

loop_
  _space_group_symop_operation_xyz
  'x, y, z'

loop_
  _atom_site_type_symbol
  _atom_site_label
  _atom_site_symmetry_multiplicity
  _atom_site_fract_x
  _atom_site_fract_y
  _atom_site_fract_z
  _atom_site_occupancy
  Cu  Cu1       1.0  0.24999992468845253  0.2500000638033886  0.2500000396790264  1.0000
  Cu  Cu2       1.0  0.7499999587380932  0.7499999770810235  0.7500000237365921  1.0000
  Ru  Ru1       1.0  9.307734358135049e-09  2.956263964682456e-08  0.9999999549184068  1.0000
  Cl  Cl1       1.0  0.24750300575342996  0.24750294718889224  0.7524970341125664  1.0000
  Cl  Cl2       1.0  0.7524969906945761  0.7524969218626752  0.24750308284653577  1.0000
  Cl  Cl3       1.0  0.7524970593229872  0.24750298359370854  0.24750297624511453  1.0000
  Cl  Cl4       1.0  0.24750298834319595  0.7524970923963391  0.7524969512911751  1.0000
  Cl  Cl5       1.0  0.24750301563850757  0.7524969750849955  0.24750295673092865  1.0000
  Cl  Cl6       1.0  0.7524970599539902  0.24750300667413652  0.7524969843457023  1.0000
