data_image0
_chemical_formula_structural       Cu2RuBr6
_chemical_formula_sum              "Cu2 Ru1 Br6"
_cell_length_a       7.05196190060065
_cell_length_b       7.051961962144338
_cell_length_c       7.051961880246456
_cell_angle_alpha    60.00000024320215
_cell_angle_beta     59.999999576926605
_cell_angle_gamma    60.000000536578895

_space_group_name_H-M_alt    "P 1"
_space_group_IT_number       1

loop_
  _space_group_symop_operation_xyz
  'x, y, z'

loop_
  _atom_site_type_symbol
  _atom_site_label
  _atom_site_symmetry_multiplicity
  _atom_site_fract_x
  _atom_site_fract_y
  _atom_site_fract_z
  _atom_site_occupancy
  Cu  Cu1       1.0  0.24999999234761858  0.25000003138554205  0.24999997694354825  1.0000
  Cu  Cu2       1.0  0.7500000614962027  0.7499999586906384  0.7500000584362121  1.0000
  Ru  Ru1       1.0  1.969478260572885e-09  0.9999999253200322  5.158252572350883e-09  1.0000
  Br  Br1       1.0  0.24860296675612725  0.24860300556186887  0.7513970310015214  1.0000
  Br  Br2       1.0  0.7513970514277316  0.751397022722667  0.24860294780028352  1.0000
  Br  Br3       1.0  0.7513969808979875  0.2486030560442781  0.2486029486200494  1.0000
  Br  Br4       1.0  0.24860296146803904  0.751396998291409  0.7513970805899083  1.0000
  Br  Br5       1.0  0.24860299516745413  0.7513970033199215  0.24860294942962777  1.0000
  Br  Br6       1.0  0.7513969901857718  0.24860300065020613  0.751397002640939  1.0000
