data_image0
_chemical_formula_structural       Cu2RhI6
_chemical_formula_sum              "Cu2 Rh1 I6"
_cell_length_a       7.464749677456295
_cell_length_b       7.46474952904489
_cell_length_c       7.464749521443654
_cell_angle_alpha    60.00000017261806
_cell_angle_beta     60.00000035929092
_cell_angle_gamma    59.999999061104035

_space_group_name_H-M_alt    "P 1"
_space_group_IT_number       1

loop_
  _space_group_symop_operation_xyz
  'x, y, z'

loop_
  _atom_site_type_symbol
  _atom_site_label
  _atom_site_symmetry_multiplicity
  _atom_site_fract_x
  _atom_site_fract_y
  _atom_site_fract_z
  _atom_site_occupancy
  Cu  Cu1       1.0  0.24999998330505427  0.2499999810372251  0.25000005889577137  1.0000
  Cu  Cu2       1.0  0.7500000205082318  0.7499999726443566  0.7499999404159136  1.0000
  Rh  Rh1       1.0  1.1629683150002424e-07  0.9999999852336577  0.9999999344988286  1.0000
  I   I1        1.0  0.2519081897445025  0.251908246558981  0.748091797362722  1.0000
  I   I2        1.0  0.7480917005841932  0.7480917366552845  0.25190832832158616  1.0000
  I   I3        1.0  0.7480917613532642  0.25190821863328167  0.25190822632881155  1.0000
  I   I4        1.0  0.25190822803681473  0.7480918154428249  0.7480917882238832  1.0000
  I   I5        1.0  0.2519082323688775  0.7480917795839286  0.2519081893382067  1.0000
  I   I6        1.0  0.7480917703023063  0.25190826105499586  0.7480917349147458  1.0000
