data_image0
_chemical_formula_structural       Cu2SbI6
_chemical_formula_sum              "Cu2 Sb1 I6"
_cell_length_a       7.9144492691970365
_cell_length_b       7.914449321054749
_cell_length_c       7.914449120659638
_cell_angle_alpha    59.99999984573812
_cell_angle_beta     60.00000071800086
_cell_angle_gamma    59.999997504996855

_space_group_name_H-M_alt    "P 1"
_space_group_IT_number       1

loop_
  _space_group_symop_operation_xyz
  'x, y, z'

loop_
  _atom_site_type_symbol
  _atom_site_label
  _atom_site_symmetry_multiplicity
  _atom_site_fract_x
  _atom_site_fract_y
  _atom_site_fract_z
  _atom_site_occupancy
  Cu  Cu1       1.0  0.25000002207746863  0.24999996139047864  0.25000004570283296  1.0000
  Cu  Cu2       1.0  0.7499999872528073  0.750000072963951  0.7499999394252036  1.0000
  Sb  Sb1       1.0  9.380190133964472e-08  3.094955151394741e-09  5.7686564544924014e-08  1.0000
  I   I1        1.0  0.26369679948694014  0.2636967574534622  0.7363032146094071  1.0000
  I   I2        1.0  0.7363031666202  0.7363032227391827  0.2636968192110899  1.0000
  I   I3        1.0  0.7363032671207614  0.2636966655525321  0.2636967580326509  1.0000
  I   I4        1.0  0.26369674467238424  0.7363032651207649  0.7363032195829742  1.0000
  I   I5        1.0  0.2636966551654911  0.7363033046527395  0.2636967241448836  1.0000
  I   I6        1.0  0.7363032618951778  0.26369674827144873  0.7363032283399268  1.0000
