data_image0
_chemical_formula_structural       Cu2SbBr6
_chemical_formula_sum              "Cu2 Sb1 Br6"
_cell_length_a       7.234085162005319
_cell_length_b       7.234085045382122
_cell_length_c       7.234084965657374
_cell_angle_alpha    60.00000043822381
_cell_angle_beta     60.00000077259328
_cell_angle_gamma    59.99999937233727

_space_group_name_H-M_alt    "P 1"
_space_group_IT_number       1

loop_
  _space_group_symop_operation_xyz
  'x, y, z'

loop_
  _atom_site_type_symbol
  _atom_site_label
  _atom_site_symmetry_multiplicity
  _atom_site_fract_x
  _atom_site_fract_y
  _atom_site_fract_z
  _atom_site_occupancy
  Cu  Cu1       1.0  0.24999999169182877  0.2499999774161531  0.25000000389874205  1.0000
  Cu  Cu2       1.0  0.7500000041444461  0.7499999982762287  0.7500000526179313  1.0000
  Sb  Sb1       1.0  3.961438059429438e-08  1.5237177116651154e-08  0.9999998578395997  1.0000
  Br  Br1       1.0  0.2530051207268966  0.25300509484199674  0.7469948996289203  1.0000
  Br  Br2       1.0  0.7469948518110165  0.7469949028596417  0.2530051008561673  1.0000
  Br  Br3       1.0  0.7469949222710383  0.25300511763734446  0.25300506386270893  1.0000
  Br  Br4       1.0  0.25300502226014276  0.7469949257758267  0.7469949664756338  1.0000
  Br  Br5       1.0  0.2530051154211087  0.7469948828040128  0.2530050909763542  1.0000
  Br  Br6       1.0  0.7469949332832282  0.2530050827302501  0.7469949607734853  1.0000
