data_image0
_chemical_formula_structural       Cu2SbCl6
_chemical_formula_sum              "Cu2 Sb1 Cl6"
_cell_length_a       6.824517154178946
_cell_length_b       6.824517146866082
_cell_length_c       6.824516942085813
_cell_angle_alpha    60.00000007052036
_cell_angle_beta     60.00000075954709
_cell_angle_gamma    60.000001021080145

_space_group_name_H-M_alt    "P 1"
_space_group_IT_number       1

loop_
  _space_group_symop_operation_xyz
  'x, y, z'

loop_
  _atom_site_type_symbol
  _atom_site_label
  _atom_site_symmetry_multiplicity
  _atom_site_fract_x
  _atom_site_fract_y
  _atom_site_fract_z
  _atom_site_occupancy
  Cu  Cu1       1.0  0.2500000180278335  0.2500001245680083  0.24999989699367245  1.0000
  Cu  Cu2       1.0  0.750000049919692  0.7500000004220363  0.7499999939977224  1.0000
  Sb  Sb1       1.0  3.079088558796352e-10  0.9999999838483753  2.990143565962414e-08  1.0000
  Cl  Cl1       1.0  0.2501439189048385  0.2501439105843296  0.7498560680459495  1.0000
  Cl  Cl2       1.0  0.7498560090533968  0.7498561318529667  0.250143899049141  1.0000
  Cl  Cl3       1.0  0.7498561541735501  0.2501439197050057  0.2501439294634933  1.0000
  Cl  Cl4       1.0  0.25014400138507664  0.7498559881354214  0.7498560775828421  1.0000
  Cl  Cl5       1.0  0.25014387894885837  0.7498559838787751  0.2501439856308962  1.0000
  Cl  Cl6       1.0  0.7498559742217709  0.2501439580595233  0.749856117462568  1.0000
