data_image0
_chemical_formula_structural       Cu2SbI6
_chemical_formula_sum              "Cu2 Sb1 I6"
_cell_length_a       7.915344389067555
_cell_length_b       7.91534447957379
_cell_length_c       7.915344577047819
_cell_angle_alpha    59.999998935469975
_cell_angle_beta     59.99999882145388
_cell_angle_gamma    60.0000009704423

_space_group_name_H-M_alt    "P 1"
_space_group_IT_number       1

loop_
  _space_group_symop_operation_xyz
  'x, y, z'

loop_
  _atom_site_type_symbol
  _atom_site_label
  _atom_site_symmetry_multiplicity
  _atom_site_fract_x
  _atom_site_fract_y
  _atom_site_fract_z
  _atom_site_occupancy
  Cu  Cu1       1.0  0.2499999953135161  0.24999994086881158  0.2500000364281195  1.0000
  Cu  Cu2       1.0  0.7500000480626358  0.7499999819788077  0.749999972006381  1.0000
  Sb  Sb1       1.0  4.730145050717435e-08  0.9999999675066041  8.355853195199818e-08  1.0000
  I   I1        1.0  0.263798081521776  0.2637980916908881  0.7362019217800382  1.0000
  I   I2        1.0  0.7362019014665553  0.736201937920746  0.26379808494363577  1.0000
  I   I3        1.0  0.7362018934767938  0.2637980826187136  0.2637981275586655  1.0000
  I   I4        1.0  0.26379813021167614  0.7362019036683933  0.7362018349959234  1.0000
  I   I5        1.0  0.2637980745879674  0.7362019142227998  0.2637980899368431  1.0000
  I   I6        1.0  0.7362018264110094  0.2637981819229303  0.7362018436588519  1.0000
