data_image0
_chemical_formula_structural       Cu2SbF6
_chemical_formula_sum              "Cu2 Sb1 F6"
_cell_length_a       5.824531951398888
_cell_length_b       5.824531977142871
_cell_length_c       5.82453211454319
_cell_angle_alpha    60.00000131358271
_cell_angle_beta     60.00000015268327
_cell_angle_gamma    60.00000020964913

_space_group_name_H-M_alt    "P 1"
_space_group_IT_number       1

loop_
  _space_group_symop_operation_xyz
  'x, y, z'

loop_
  _atom_site_type_symbol
  _atom_site_label
  _atom_site_symmetry_multiplicity
  _atom_site_fract_x
  _atom_site_fract_y
  _atom_site_fract_z
  _atom_site_occupancy
  Cu  Cu1       1.0  0.24999998992432426  0.24999996057378895  0.2500000415159444  1.0000
  Cu  Cu2       1.0  0.7500001195375862  0.7500000331183019  0.7499999722501867  1.0000
  Sb  Sb1       1.0  0.9999999934719122  0.9999999957945291  0.9999999830473899  1.0000
  F   F1        1.0  0.2367365898149851  0.23673665054621784  0.7632633589634873  1.0000
  F   F2        1.0  0.7632634394853773  0.7632634230498105  0.23673657767202488  1.0000
  F   F3        1.0  0.7632633328317886  0.2367366042642932  0.2367366419972895  1.0000
  F   F4        1.0  0.23673661316677966  0.7632633326539454  0.7632633754411182  1.0000
  F   F5        1.0  0.2367366012981893  0.7632633748712643  0.2367366041788926  1.0000
  F   F6        1.0  0.7632633507680698  0.23673655573876887  0.7632634168135245  1.0000
