data_image0
_chemical_formula_structural       Cu2SbCl6
_chemical_formula_sum              "Cu2 Sb1 Cl6"
_cell_length_a       6.824602050848117
_cell_length_b       6.824601971133225
_cell_length_c       6.824601991578135
_cell_angle_alpha    59.99999916149524
_cell_angle_beta     59.99999984704912
_cell_angle_gamma    59.999998794275506

_space_group_name_H-M_alt    "P 1"
_space_group_IT_number       1

loop_
  _space_group_symop_operation_xyz
  'x, y, z'

loop_
  _atom_site_type_symbol
  _atom_site_label
  _atom_site_symmetry_multiplicity
  _atom_site_fract_x
  _atom_site_fract_y
  _atom_site_fract_z
  _atom_site_occupancy
  Cu  Cu1       1.0  0.25000004709975904  0.24999998858726757  0.2499999849405771  1.0000
  Cu  Cu2       1.0  0.749999968325653  0.74999995678879  0.750000132246978  1.0000
  Sb  Sb1       1.0  1.0629761540601719e-08  3.4097450737608005e-08  0.9999999468653684  1.0000
  Cl  Cl1       1.0  0.2501298664285637  0.2501299359952104  0.7498700890004856  1.0000
  Cl  Cl2       1.0  0.7498700598679381  0.7498700991109817  0.25012991652465183  1.0000
  Cl  Cl3       1.0  0.749870143158791  0.2501299434303743  0.25012984116633463  1.0000
  Cl  Cl4       1.0  0.25012987619592786  0.7498700916758171  0.7498701105032595  1.0000
  Cl  Cl5       1.0  0.2501299120391361  0.7498700770873088  0.2501298594620737  1.0000
  Cl  Cl6       1.0  0.749870111743479  0.2501298736725577  0.7498701219097269  1.0000
