data_image0
_chemical_formula_structural       Cu2SbF6
_chemical_formula_sum              "Cu2 Sb1 F6"
_cell_length_a       5.825497752005221
_cell_length_b       5.825497010792369
_cell_length_c       5.8254975319977955
_cell_angle_alpha    59.99999938045891
_cell_angle_beta     59.9999989240759
_cell_angle_gamma    59.99999860395484

_space_group_name_H-M_alt    "P 1"
_space_group_IT_number       1

loop_
  _space_group_symop_operation_xyz
  'x, y, z'

loop_
  _atom_site_type_symbol
  _atom_site_label
  _atom_site_symmetry_multiplicity
  _atom_site_fract_x
  _atom_site_fract_y
  _atom_site_fract_z
  _atom_site_occupancy
  Cu  Cu1       1.0  0.24999999570770057  0.24999993956085434  0.25000002278109185  1.0000
  Cu  Cu2       1.0  0.750000039036775  0.7499999721568137  0.7500000308797954  1.0000
  Sb  Sb1       1.0  2.8011193790007788e-08  0.9999999516451009  2.3904583931610392e-08  1.0000
  F   F1        1.0  0.23670696411733605  0.23670702474293395  0.7632929863710193  1.0000
  F   F2        1.0  0.7632929858721333  0.7632930698823952  0.23670693753374122  1.0000
  F   F3        1.0  0.7632928875612436  0.23670712140567154  0.2367069845204879  1.0000
  F   F4        1.0  0.23670702394635845  0.7632929816292049  0.7632929509872503  1.0000
  F   F5        1.0  0.23670708376824084  0.7632929462140984  0.23670709385809838  1.0000
  F   F6        1.0  0.7632930034327522  0.236706986527441  0.7632929488114676  1.0000
