data_image0
_chemical_formula_structural       Cu2SbBr6
_chemical_formula_sum              "Cu2 Sb1 Br6"
_cell_length_a       7.234154181907994
_cell_length_b       7.234154309376319
_cell_length_c       7.234154386289133
_cell_angle_alpha    59.99999952754549
_cell_angle_beta     60.000000058684776
_cell_angle_gamma    59.999999588051956

_space_group_name_H-M_alt    "P 1"
_space_group_IT_number       1

loop_
  _space_group_symop_operation_xyz
  'x, y, z'

loop_
  _atom_site_type_symbol
  _atom_site_label
  _atom_site_symmetry_multiplicity
  _atom_site_fract_x
  _atom_site_fract_y
  _atom_site_fract_z
  _atom_site_occupancy
  Cu  Cu1       1.0  0.24999997696837403  0.2499999017106688  0.25000007984459816  1.0000
  Cu  Cu2       1.0  0.7499999465707375  0.7500000555837373  0.7499999942702003  1.0000
  Sb  Sb1       1.0  0.9999999987578944  3.724607749018862e-08  1.2409308611506547e-08  1.0000
  Br  Br1       1.0  0.25299393847874996  0.25299388106632925  0.7470060813500072  1.0000
  Br  Br2       1.0  0.7470060822972342  0.7470061388692071  0.25299388103216436  1.0000
  Br  Br3       1.0  0.7470060897750502  0.25299391690663986  0.2529939179969616  1.0000
  Br  Br4       1.0  0.25299388714611554  0.7470061148799215  0.747006045181459  1.0000
  Br  Br5       1.0  0.2529939330334791  0.7470060581552179  0.2529939077609698  1.0000
  Br  Br6       1.0  0.7470061431744871  0.25299390083219087  0.747006076731917  1.0000
