data_image0
_chemical_formula_structural       Cu2TaCl6
_chemical_formula_sum              "Cu2 Ta1 Cl6"
_cell_length_a       6.803285639042113
_cell_length_b       6.8032853111244815
_cell_length_c       6.803285222670043
_cell_angle_alpha    59.99999985603451
_cell_angle_beta     60.0000003213704
_cell_angle_gamma    60.00000059364994

_space_group_name_H-M_alt    "P 1"
_space_group_IT_number       1

loop_
  _space_group_symop_operation_xyz
  'x, y, z'

loop_
  _atom_site_type_symbol
  _atom_site_label
  _atom_site_symmetry_multiplicity
  _atom_site_fract_x
  _atom_site_fract_y
  _atom_site_fract_z
  _atom_site_occupancy
  Cu  Cu1       1.0  0.24999992763038328  0.25000012365471713  0.2500000021960122  1.0000
  Cu  Cu2       1.0  0.7500001042987801  0.7499999821154153  0.7499999741640724  1.0000
  Ta  Ta1       1.0  0.9999999555444724  4.6805866285204853e-08  5.7619955283262996e-08  1.0000
  Cl  Cl1       1.0  0.24626588710777242  0.24626584707681534  0.7537341165179577  1.0000
  Cl  Cl2       1.0  0.7537341205832043  0.7537340462666896  0.2462659428974606  1.0000
  Cl  Cl3       1.0  0.7537341435140037  0.24626586780397322  0.24626581453759683  1.0000
  Cl  Cl4       1.0  0.2462659347239077  0.7537340939481076  0.7537341033760379  1.0000
  Cl  Cl5       1.0  0.24626586046075932  0.7537340831832153  0.24626585564468292  1.0000
  Cl  Cl6       1.0  0.7537340415347243  0.24626592357450408  0.7537341455258856  1.0000
