data_image0
_chemical_formula_structural       Cu2TaI6
_chemical_formula_sum              "Cu2 Ta1 I6"
_cell_length_a       7.916991556713233
_cell_length_b       7.916991406702924
_cell_length_c       7.916991392646657
_cell_angle_alpha    60.00000048264669
_cell_angle_beta     60.000000489002225
_cell_angle_gamma    59.99999877715151

_space_group_name_H-M_alt    "P 1"
_space_group_IT_number       1

loop_
  _space_group_symop_operation_xyz
  'x, y, z'

loop_
  _atom_site_type_symbol
  _atom_site_label
  _atom_site_symmetry_multiplicity
  _atom_site_fract_x
  _atom_site_fract_y
  _atom_site_fract_z
  _atom_site_occupancy
  Cu  Cu1       1.0  0.24999998162409812  0.24999996212388467  0.25000003659868136  1.0000
  Cu  Cu2       1.0  0.7499999425719827  0.7500000070363045  0.7500000708235725  1.0000
  Ta  Ta1       1.0  4.0838259057883225e-08  0.9999999999999991  0.9999999303197336  1.0000
  I   I1        1.0  0.24586613676083496  0.24586612087934426  0.7541338510584417  1.0000
  I   I2        1.0  0.7541338745767269  0.7541338931433413  0.24586607668227572  1.0000
  I   I3        1.0  0.7541339336107896  0.24586609689934075  0.24586602709700564  1.0000
  I   I4        1.0  0.24586604527049385  0.7541339619858444  0.7541339954890882  1.0000
  I   I5        1.0  0.24586608026222653  0.7541339344141457  0.24586602097674465  1.0000
  I   I6        1.0  0.7541339607030676  0.24586603010509375  0.7541339823833461  1.0000
