data_image0
_chemical_formula_structural       Cu2TaBr6
_chemical_formula_sum              "Cu2 Ta1 Br6"
_cell_length_a       7.29090662049821
_cell_length_b       7.29090663254499
_cell_length_c       7.290906514712427
_cell_angle_alpha    60.0000013340733
_cell_angle_beta     60.000000957141005
_cell_angle_gamma    59.99999880197213

_space_group_name_H-M_alt    "P 1"
_space_group_IT_number       1

loop_
  _space_group_symop_operation_xyz
  'x, y, z'

loop_
  _atom_site_type_symbol
  _atom_site_label
  _atom_site_symmetry_multiplicity
  _atom_site_fract_x
  _atom_site_fract_y
  _atom_site_fract_z
  _atom_site_occupancy
  Cu  Cu1       1.0  0.25000009170179305  0.2499999350201507  0.24999997569796042  1.0000
  Cu  Cu2       1.0  0.7500000464023869  0.7499999495254246  0.7500000679660431  1.0000
  Ta  Ta1       1.0  6.885352230622854e-08  0.9999999882412219  0.9999999536221978  1.0000
  Br  Br1       1.0  0.24518267016675951  0.2451827040581415  0.7548173118636189  1.0000
  Br  Br2       1.0  0.7548172736927404  0.7548173451103065  0.2451826588307088  1.0000
  Br  Br3       1.0  0.7548173668779534  0.24518263659921982  0.24518262125670456  1.0000
  Br  Br4       1.0  0.24518253495577808  0.7548174293674815  0.7548173908543835  1.0000
  Br  Br5       1.0  0.2451825823710428  0.7548174223080584  0.2451826191538591  1.0000
  Br  Br6       1.0  0.7548173679360297  0.24518259326388592  0.7548173994042231  1.0000
