data_image0
_chemical_formula_structural       Cu2YI6
_chemical_formula_sum              "Cu2 Y1 I6"
_cell_length_a       8.137049253315023
_cell_length_b       8.137049135351328
_cell_length_c       8.137049057111994
_cell_angle_alpha    60.000001333990745
_cell_angle_beta     59.999998654045385
_cell_angle_gamma    59.99999977356816

_space_group_name_H-M_alt    "P 1"
_space_group_IT_number       1

loop_
  _space_group_symop_operation_xyz
  'x, y, z'

loop_
  _atom_site_type_symbol
  _atom_site_label
  _atom_site_symmetry_multiplicity
  _atom_site_fract_x
  _atom_site_fract_y
  _atom_site_fract_z
  _atom_site_occupancy
  Cu  Cu1       1.0  0.2499999442461437  0.25000003091403494  0.2500000276720526  1.0000
  Cu  Cu2       1.0  0.7499999900555341  0.7500000039384769  0.7499999688778781  1.0000
  Y   Y1        1.0  0.999999962587814  2.7092631318302248e-08  0.9999999854966302  1.0000
  I   I1        1.0  0.2606083477693723  0.26060832460416616  0.73939166563401  1.0000
  I   I2        1.0  0.7393916779550594  0.7393916786402758  0.2606083305032989  1.0000
  I   I3        1.0  0.7393917074791149  0.2606083326293393  0.2606082895889983  1.0000
  I   I4        1.0  0.2606082830982345  0.7393916781408336  0.739391709298466  1.0000
  I   I5        1.0  0.2606084172356399  0.7393915919861735  0.26060835701992774  1.0000
  I   I6        1.0  0.739391670054629  0.2606083329906662  0.7393916659024631  1.0000
