data_image0
_chemical_formula_structural       Cu2YCl6
_chemical_formula_sum              "Cu2 Y1 Cl6"
_cell_length_a       6.882745955294762
_cell_length_b       6.882746292569679
_cell_length_c       6.8827458875503
_cell_angle_alpha    60.000001019514066
_cell_angle_beta     59.99999984010206
_cell_angle_gamma    59.99999989810208

_space_group_name_H-M_alt    "P 1"
_space_group_IT_number       1

loop_
  _space_group_symop_operation_xyz
  'x, y, z'

loop_
  _atom_site_type_symbol
  _atom_site_label
  _atom_site_symmetry_multiplicity
  _atom_site_fract_x
  _atom_site_fract_y
  _atom_site_fract_z
  _atom_site_occupancy
  Cu  Cu1       1.0  0.2500000646248591  0.25000008930338163  0.2499999212714127  1.0000
  Cu  Cu2       1.0  0.7500000316869329  0.7500000045527151  0.7500000419676601  1.0000
  Y   Y1        1.0  2.000438496675433e-09  0.999999953734505  4.683197306406033e-08  1.0000
  Cl  Cl1       1.0  0.2621854943943794  0.2621855512844721  0.7378144834349777  1.0000
  Cl  Cl2       1.0  0.7378143617570764  0.7378144678350608  0.26218556315421343  1.0000
  Cl  Cl3       1.0  0.7378145060632256  0.26218548710158046  0.2621855518065249  1.0000
  Cl  Cl4       1.0  0.2621854847267003  0.7378144804141292  0.7378144532653425  1.0000
  Cl  Cl5       1.0  0.2621855563614722  0.7378144436130852  0.26218552792650546  1.0000
  Cl  Cl6       1.0  0.7378145072633605  0.2621855167848551  0.737814415228623  1.0000
