data_image0
_chemical_formula_structural       Cu2YBr6
_chemical_formula_sum              "Cu2 Y1 Br6"
_cell_length_a       7.44502404079656
_cell_length_b       7.445023775910714
_cell_length_c       7.445023908321338
_cell_angle_alpha    60.000000644208775
_cell_angle_beta     59.99999965501238
_cell_angle_gamma    59.99999860490705

_space_group_name_H-M_alt    "P 1"
_space_group_IT_number       1

loop_
  _space_group_symop_operation_xyz
  'x, y, z'

loop_
  _atom_site_type_symbol
  _atom_site_label
  _atom_site_symmetry_multiplicity
  _atom_site_fract_x
  _atom_site_fract_y
  _atom_site_fract_z
  _atom_site_occupancy
  Cu  Cu1       1.0  0.2500000537344517  0.2499999656838765  0.24999996343320097  1.0000
  Cu  Cu2       1.0  0.7499999743477199  0.7500000714271114  0.7500001087619695  1.0000
  Y   Y1        1.0  5.655529017953099e-09  1.6450499226589804e-09  0.9999999009839993  1.0000
  Br  Br1       1.0  0.2611374235025339  0.26113738036639844  0.7388625841059989  1.0000
  Br  Br2       1.0  0.7388625263269342  0.7388626123281921  0.2611373398877933  1.0000
  Br  Br3       1.0  0.738862567311896  0.2611374296067606  0.26113738525864544  1.0000
  Br  Br4       1.0  0.26113729020928217  0.738862686466708  0.7388626655768317  1.0000
  Br  Br5       1.0  0.26113749690955135  0.7388625497924006  0.26113735609902233  1.0000
  Br  Br6       1.0  0.7388626615670596  0.26113729155743715  0.7388626950523395  1.0000
