data_image0
_chemical_formula_structural       Cu2YF6
_chemical_formula_sum              "Cu2 Y1 F6"
_cell_length_a       5.697479994313858
_cell_length_b       5.697480080739511
_cell_length_c       5.697479973617767
_cell_angle_alpha    59.99999949782522
_cell_angle_beta     59.99999982279711
_cell_angle_gamma    60.000000028657674

_space_group_name_H-M_alt    "P 1"
_space_group_IT_number       1

loop_
  _space_group_symop_operation_xyz
  'x, y, z'

loop_
  _atom_site_type_symbol
  _atom_site_label
  _atom_site_symmetry_multiplicity
  _atom_site_fract_x
  _atom_site_fract_y
  _atom_site_fract_z
  _atom_site_occupancy
  Cu  Cu1       1.0  0.2500000273048169  0.24999994973849818  0.24999989175685552  1.0000
  Cu  Cu2       1.0  0.7499998948446034  0.7499998814598741  0.7500000686124496  1.0000
  Y   Y1        1.0  0.9999999803689241  0.999999931211982  7.404730053000484e-08  1.0000
  F   F1        1.0  0.26285124669444704  0.2628510847596651  0.7371489150619517  1.0000
  F   F2        1.0  0.7371487623144262  0.7371488324237264  0.26285118881133046  1.0000
  F   F3        1.0  0.737148874244808  0.2628512619488516  0.2628511131208763  1.0000
  F   F4        1.0  0.2628511761336569  0.7371488594489679  0.737148822326184  1.0000
  F   F5        1.0  0.26285121017146756  0.7371488649601686  0.26285111085060464  1.0000
  F   F6        1.0  0.7371488333682107  0.2628513316745446  0.73714882550064  1.0000
