data_image0
_chemical_formula_structural       Fe2AsCl6
_chemical_formula_sum              "Fe2 As1 Cl6"
_cell_length_a       6.53653397911896
_cell_length_b       6.536533819468149
_cell_length_c       6.536534239268354
_cell_angle_alpha    59.9999974424016
_cell_angle_beta     59.99999872545795
_cell_angle_gamma    59.99999755108991

_space_group_name_H-M_alt    "P 1"
_space_group_IT_number       1

loop_
  _space_group_symop_operation_xyz
  'x, y, z'

loop_
  _atom_site_type_symbol
  _atom_site_label
  _atom_site_symmetry_multiplicity
  _atom_site_fract_x
  _atom_site_fract_y
  _atom_site_fract_z
  _atom_site_occupancy
  Fe  Fe1       1.0  0.24999979486203064  0.24999958269689698  0.25000000150532314  1.0000
  Fe  Fe2       1.0  0.749999498087528  0.749999960369213  0.7499997256215275  1.0000
  As  As1       1.0  4.28958210948708e-08  3.5600141523089316e-08  3.11257033516e-08  1.0000
  Cl  Cl1       1.0  0.2546077595388017  0.25460779931302113  0.7453924142260534  1.0000
  Cl  Cl2       1.0  0.7453924862608926  0.7453921709547828  0.2546077871004052  1.0000
  Cl  Cl3       1.0  0.7453923036339387  0.25460755014881375  0.2546079563607784  1.0000
  Cl  Cl4       1.0  0.25460800704369924  0.7453925381615667  0.7453920770122843  1.0000
  Cl  Cl5       1.0  0.25460787532008394  0.7453924769435553  0.2546076487532035  1.0000
  Cl  Cl6       1.0  0.7453922404631588  0.2546078886731967  0.7453923816604378  1.0000
