data_image0
_chemical_formula_structural       Fe2AsI6
_chemical_formula_sum              "Fe2 As1 I6"
_cell_length_a       7.646388710306767
_cell_length_b       7.646388753443126
_cell_length_c       7.64638870288308
_cell_angle_alpha    59.99999897728032
_cell_angle_beta     59.999999429194915
_cell_angle_gamma    59.999999266056555

_space_group_name_H-M_alt    "P 1"
_space_group_IT_number       1

loop_
  _space_group_symop_operation_xyz
  'x, y, z'

loop_
  _atom_site_type_symbol
  _atom_site_label
  _atom_site_symmetry_multiplicity
  _atom_site_fract_x
  _atom_site_fract_y
  _atom_site_fract_z
  _atom_site_occupancy
  Fe  Fe1       1.0  0.25000000988228466  0.24999997886378664  0.24999998102881688  1.0000
  Fe  Fe2       1.0  0.7500000338709828  0.7500000054657417  0.7499999300777191  1.0000
  As  As1       1.0  4.53037603750041e-09  0.9999999999999999  9.505074246670192e-09  1.0000
  I   I1        1.0  0.25916666281382267  0.2591666774836236  0.7408333716349832  1.0000
  I   I2        1.0  0.7408333009786884  0.7408333292701211  0.2591666859424448  1.0000
  I   I3        1.0  0.7408333454920759  0.2591666198548788  0.2591666960237344  1.0000
  I   I4        1.0  0.259166653124923  0.7408333820936767  0.7408333230035202  1.0000
  I   I5        1.0  0.2591666408726055  0.7408333189006103  0.2591666781769309  1.0000
  I   I6        1.0  0.7408333421092298  0.25916668464967507  0.7408333413280059  1.0000
