data_image0
_chemical_formula_structural       Fe2AsBr6
_chemical_formula_sum              "Fe2 As1 Br6"
_cell_length_a       6.889965193351232
_cell_length_b       6.889965265707209
_cell_length_c       6.889965304477395
_cell_angle_alpha    60.000000359265144
_cell_angle_beta     60.00000084486521
_cell_angle_gamma    59.9999996963127

_space_group_name_H-M_alt    "P 1"
_space_group_IT_number       1

loop_
  _space_group_symop_operation_xyz
  'x, y, z'

loop_
  _atom_site_type_symbol
  _atom_site_label
  _atom_site_symmetry_multiplicity
  _atom_site_fract_x
  _atom_site_fract_y
  _atom_site_fract_z
  _atom_site_occupancy
  Fe  Fe1       1.0  0.24999999192084701  0.2499999000366206  0.2500000181437055  1.0000
  Fe  Fe2       1.0  0.7499999529036923  0.7500000200738502  0.7499998521772614  1.0000
  As  As1       1.0  5.111968193197516e-09  2.4886087952005307e-08  5.320377742503419e-09  1.0000
  Br  Br1       1.0  0.2618576666953973  0.26185764494739733  0.7381423749122827  1.0000
  Br  Br2       1.0  0.7381423430483526  0.7381423569316479  0.26185768766845224  1.0000
  Br  Br3       1.0  0.738142376771523  0.2618576332973897  0.2618576514918108  1.0000
  Br  Br4       1.0  0.2618576684540116  0.738142382802277  0.7381423601127715  1.0000
  Br  Br5       1.0  0.2618576227529882  0.7381423894485722  0.2618576793576119  1.0000
  Br  Br6       1.0  0.7381423672515259  0.2618576515371828  0.7381423749907721  1.0000
