data_image0
_chemical_formula_structural       Fe2AsI6
_chemical_formula_sum              "Fe2 As1 I6"
_cell_length_a       7.644457438921751
_cell_length_b       7.644457483976613
_cell_length_c       7.644457391895475
_cell_angle_alpha    60.000000727818666
_cell_angle_beta     59.99999993312273
_cell_angle_gamma    60.000000285038226

_space_group_name_H-M_alt    "P 1"
_space_group_IT_number       1

loop_
  _space_group_symop_operation_xyz
  'x, y, z'

loop_
  _atom_site_type_symbol
  _atom_site_label
  _atom_site_symmetry_multiplicity
  _atom_site_fract_x
  _atom_site_fract_y
  _atom_site_fract_z
  _atom_site_occupancy
  Fe  Fe1       1.0  0.24999989106744477  0.25000014083694616  0.2499999899218889  1.0000
  Fe  Fe2       1.0  0.7500000835054998  0.7499998441403057  0.7500002382467098  1.0000
  As  As1       1.0  2.0565889201187422e-08  8.331099068152839e-08  0.9999999140499899  1.0000
  I   I1        1.0  0.25930248886066853  0.25930245778506295  0.7406975291610444  1.0000
  I   I2        1.0  0.740697465740619  0.74069749194523  0.2593024676056732  1.0000
  I   I3        1.0  0.7406974819477852  0.2593025839096465  0.2593024493531391  1.0000
  I   I4        1.0  0.25930248147040547  0.740697484378595  0.7406974614878186  1.0000
  I   I5        1.0  0.2593025385646563  0.7406974484445674  0.25930245956385045  1.0000
  I   I6        1.0  0.7406975456967798  0.25930246123236433  0.740697492399473  1.0000
