data_image0
_chemical_formula_structural       Fe2AsCl6
_chemical_formula_sum              "Fe2 As1 Cl6"
_cell_length_a       6.536375183767999
_cell_length_b       6.536375220612389
_cell_length_c       6.536375080575466
_cell_angle_alpha    59.99999955139973
_cell_angle_beta     59.9999992694303
_cell_angle_gamma    59.9999998020605

_space_group_name_H-M_alt    "P 1"
_space_group_IT_number       1

loop_
  _space_group_symop_operation_xyz
  'x, y, z'

loop_
  _atom_site_type_symbol
  _atom_site_label
  _atom_site_symmetry_multiplicity
  _atom_site_fract_x
  _atom_site_fract_y
  _atom_site_fract_z
  _atom_site_occupancy
  Fe  Fe1       1.0  0.25000005024431143  0.2500001476451922  0.24999991787620252  1.0000
  Fe  Fe2       1.0  0.7500000608917904  0.7500001824861197  0.7499999104151116  1.0000
  As  As1       1.0  3.267404506185981e-08  0.9999999231767785  6.797158749236718e-08  1.0000
  Cl  Cl1       1.0  0.25465090098373117  0.2546508226458968  0.7453491288691094  1.0000
  Cl  Cl2       1.0  0.7453491282012009  0.7453490802733567  0.25465087903872496  1.0000
  Cl  Cl3       1.0  0.7453491067935  0.2546508587358662  0.2546509083649981  1.0000
  Cl  Cl4       1.0  0.2546508453938148  0.7453490366884385  0.7453491662675196  1.0000
  Cl  Cl5       1.0  0.2546508220036828  0.7453491307425533  0.2546508829828381  1.0000
  Cl  Cl6       1.0  0.7453490555403992  0.25465081902012787  0.7453491375463093  1.0000
