data_image0
_chemical_formula_structural       Fe2AsO6
_chemical_formula_sum              "Fe2 As1 O6"
_cell_length_a       4.589397781261826
_cell_length_b       4.5888868020788385
_cell_length_c       4.588212228482755
_cell_angle_alpha    60.01555478608984
_cell_angle_beta     60.03003540667697
_cell_angle_gamma    60.017073184748405

_space_group_name_H-M_alt    "P 1"
_space_group_IT_number       1

loop_
  _space_group_symop_operation_xyz
  'x, y, z'

loop_
  _atom_site_type_symbol
  _atom_site_label
  _atom_site_symmetry_multiplicity
  _atom_site_fract_x
  _atom_site_fract_y
  _atom_site_fract_z
  _atom_site_occupancy
  Fe  Fe1       1.0  0.2502575869545225  0.24998470105950507  0.2500343253407129  1.0000
  Fe  Fe2       1.0  0.7500203732055178  0.7499690811254538  0.7500299891843644  1.0000
  As  As1       1.0  0.000135013992610908  0.9999730795294857  3.958026153858637e-05  1.0000
  O   O1        1.0  0.26606448735443133  0.2667116372893434  0.733106304297078  1.0000
  O   O2        1.0  0.734216188571437  0.7332451819444807  0.2669566013095043  1.0000
  O   O3        1.0  0.7343208913109367  0.2660035545682102  0.26669973420088505  1.0000
  O   O4        1.0  0.2659576450454275  0.7339464302904641  0.733365432210516  1.0000
  O   O5        1.0  0.2674309920709266  0.7336852437020881  0.26549211567427283  1.0000
  O   O6        1.0  0.7328433178862338  0.2662688717668335  0.7345731048174049  1.0000
