data_image0
_chemical_formula_structural       Fe2AsBr6
_chemical_formula_sum              "Fe2 As1 Br6"
_cell_length_a       6.891090513161486
_cell_length_b       6.891090433077612
_cell_length_c       6.891090168769803
_cell_angle_alpha    59.99999789934424
_cell_angle_beta     59.99999960636284
_cell_angle_gamma    59.99999852901072

_space_group_name_H-M_alt    "P 1"
_space_group_IT_number       1

loop_
  _space_group_symop_operation_xyz
  'x, y, z'

loop_
  _atom_site_type_symbol
  _atom_site_label
  _atom_site_symmetry_multiplicity
  _atom_site_fract_x
  _atom_site_fract_y
  _atom_site_fract_z
  _atom_site_occupancy
  Fe  Fe1       1.0  0.24999973997476377  0.24999991167689573  0.2500001125142762  1.0000
  Fe  Fe2       1.0  0.7500003164219197  0.7499996728256242  0.7499997449367719  1.0000
  As  As1       1.0  1.2896917382813754e-08  2.665931299488076e-08  0.999999972966138  1.0000
  Br  Br1       1.0  0.2618514032911924  0.26185158718056617  0.738148568232763  1.0000
  Br  Br2       1.0  0.7381485271851322  0.738148596267835  0.2618514851479728  1.0000
  Br  Br3       1.0  0.7381485166845918  0.26185151890977515  0.2618515204627942  1.0000
  Br  Br4       1.0  0.2618515053277665  0.7381485507922253  0.7381485208047392  1.0000
  Br  Br5       1.0  0.26185138382884426  0.7381486079561697  0.2618515724342508  1.0000
  Br  Br6       1.0  0.7381485908240593  0.26185154350105533  0.7381484966210219  1.0000
