data_image0
_chemical_formula_structural       Fe2AsSe6
_chemical_formula_sum              "Fe2 As1 Se6"
_cell_length_a       6.439864480613978
_cell_length_b       6.439864283362745
_cell_length_c       6.439864295705285
_cell_angle_alpha    59.9999998192765
_cell_angle_beta     59.9999999047126
_cell_angle_gamma    60.00000012516441

_space_group_name_H-M_alt    "P 1"
_space_group_IT_number       1

loop_
  _space_group_symop_operation_xyz
  'x, y, z'

loop_
  _atom_site_type_symbol
  _atom_site_label
  _atom_site_symmetry_multiplicity
  _atom_site_fract_x
  _atom_site_fract_y
  _atom_site_fract_z
  _atom_site_occupancy
  Fe  Fe1       1.0  0.24999995197794744  0.25000011021703655  0.2499999794623056  1.0000
  Fe  Fe2       1.0  0.7500000688782483  0.7499999769129939  0.7499999404593491  1.0000
  As  As1       1.0  0.9999999685578939  1.9018178007456553e-08  0.9999999751554092  1.0000
  Se  Se1       1.0  0.2926808806084869  0.2926809150391011  0.7073191033775291  1.0000
  Se  Se2       1.0  0.7073190935382774  0.7073191454654795  0.29268089513791623  1.0000
  Se  Se3       1.0  0.7073191178365003  0.29268084949966316  0.2926809235608974  1.0000
  Se  Se4       1.0  0.2926808703129121  0.7073190721722156  0.707319160661991  1.0000
  Se  Se5       1.0  0.2926808639756224  0.7073190558716516  0.29268093468440326  1.0000
  Se  Se6       1.0  0.7073191774401474  0.2926808619965919  0.7073190968562241  1.0000
