data_image0
_chemical_formula_structural       Fe2BiI6
_chemical_formula_sum              "Fe2 Bi1 I6"
_cell_length_a       7.876382607244188
_cell_length_b       7.8763826754616995
_cell_length_c       7.876382776829017
_cell_angle_alpha    59.999999807238204
_cell_angle_beta     59.99999966298361
_cell_angle_gamma    60.00000015338651

_space_group_name_H-M_alt    "P 1"
_space_group_IT_number       1

loop_
  _space_group_symop_operation_xyz
  'x, y, z'

loop_
  _atom_site_type_symbol
  _atom_site_label
  _atom_site_symmetry_multiplicity
  _atom_site_fract_x
  _atom_site_fract_y
  _atom_site_fract_z
  _atom_site_occupancy
  Fe  Fe1       1.0  0.24999999891211772  0.2500000226793299  0.25000001975588104  1.0000
  Fe  Fe2       1.0  0.7500000195729272  0.7499999467512215  0.7499999954967081  1.0000
  Bi  Bi1       1.0  1.2632785581900425e-08  0.9999999269169475  1.1148070691506732e-07  1.0000
  I   I1        1.0  0.27088754182471314  0.2708875469552327  0.7291124305957284  1.0000
  I   I2        1.0  0.7291124897046324  0.7291125328773769  0.2708874848451316  1.0000
  I   I3        1.0  0.7291124489299425  0.27088752419569534  0.2708875479921956  1.0000
  I   I4        1.0  0.27088753281544753  0.7291124498997316  0.7291124464788515  1.0000
  I   I5        1.0  0.2708874952694311  0.7291125177574418  0.2708875034262138  1.0000
  I   I6        1.0  0.7291124631515806  0.2708875263111205  0.7291124664508364  1.0000
