data_image0
_chemical_formula_structural       Fe2BI6
_chemical_formula_sum              "Fe2 B1 I6"
_cell_length_a       7.336551806001943
_cell_length_b       7.336552039877836
_cell_length_c       7.336552081571452
_cell_angle_alpha    59.99999959173417
_cell_angle_beta     59.99999942490656
_cell_angle_gamma    60.00000277379526

_space_group_name_H-M_alt    "P 1"
_space_group_IT_number       1

loop_
  _space_group_symop_operation_xyz
  'x, y, z'

loop_
  _atom_site_type_symbol
  _atom_site_label
  _atom_site_symmetry_multiplicity
  _atom_site_fract_x
  _atom_site_fract_y
  _atom_site_fract_z
  _atom_site_occupancy
  Fe  Fe1       1.0  0.24999980641543285  0.2500000917450124  0.24999997669041096  1.0000
  Fe  Fe2       1.0  0.7500000679854891  0.7499999296746542  0.7500000606307193  1.0000
  B   B1        1.0  0.9999999360864299  2.1534923451511634e-07  0.9999996380441664  1.0000
  I   I1        1.0  0.23179186894895623  0.2317919369573006  0.7682081698569924  1.0000
  I   I2        1.0  0.7682081813661561  0.7682079108474839  0.23179195354892315  1.0000
  I   I3        1.0  0.7682080871130366  0.23179192707870944  0.23179188314137536  1.0000
  I   I4        1.0  0.2317920146770162  0.7682080826553461  0.7682081185690154  1.0000
  I   I5        1.0  0.23179189844139686  0.7682080569683076  0.23179202888106942  1.0000
  I   I6        1.0  0.7682081185026206  0.23179186261955337  0.7682081789097507  1.0000
