data_image0
_chemical_formula_structural       Fe2BiCl6
_chemical_formula_sum              "Fe2 Bi1 Cl6"
_cell_length_a       6.720959828548734
_cell_length_b       6.720960120186011
_cell_length_c       6.720959861667132
_cell_angle_alpha    60.00000086355173
_cell_angle_beta     60.000000539747056
_cell_angle_gamma    59.99999944938943

_space_group_name_H-M_alt    "P 1"
_space_group_IT_number       1

loop_
  _space_group_symop_operation_xyz
  'x, y, z'

loop_
  _atom_site_type_symbol
  _atom_site_label
  _atom_site_symmetry_multiplicity
  _atom_site_fract_x
  _atom_site_fract_y
  _atom_site_fract_z
  _atom_site_occupancy
  Fe  Fe1       1.0  0.250000070470035  0.2499997889489254  0.24999999632765846  1.0000
  Fe  Fe2       1.0  0.7499999936242832  0.7499998861956204  0.7500001506568313  1.0000
  Bi  Bi1       1.0  0.9999999788443222  5.8312852975371415e-08  0.9999999680304676  1.0000
  Cl  Cl1       1.0  0.2651023550084414  0.2651023983023851  0.7348976281490285  1.0000
  Cl  Cl2       1.0  0.7348976383266681  0.7348976540534268  0.26510233882754225  1.0000
  Cl  Cl3       1.0  0.7348976767217688  0.2651024105266298  0.26510232070558254  1.0000
  Cl  Cl4       1.0  0.26510233478246564  0.7348976800969906  0.7348976448344103  1.0000
  Cl  Cl5       1.0  0.2651023388864244  0.7348977145006447  0.26510230541977353  1.0000
  Cl  Cl6       1.0  0.7348976187326745  0.26510240892395665  0.7348976453682902  1.0000
