data_image0
_chemical_formula_structural       Fe2GaCl6
_chemical_formula_sum              "Fe2 Ga1 Cl6"
_cell_length_a       6.505676605841796
_cell_length_b       6.505676499070414
_cell_length_c       6.505676684783398
_cell_angle_alpha    59.99999898636582
_cell_angle_beta     59.999999128176334
_cell_angle_gamma    59.99999961637781

_space_group_name_H-M_alt    "P 1"
_space_group_IT_number       1

loop_
  _space_group_symop_operation_xyz
  'x, y, z'

loop_
  _atom_site_type_symbol
  _atom_site_label
  _atom_site_symmetry_multiplicity
  _atom_site_fract_x
  _atom_site_fract_y
  _atom_site_fract_z
  _atom_site_occupancy
  Fe  Fe1       1.0  0.24999987230761075  0.24999994164947814  0.25000008702266635  1.0000
  Fe  Fe2       1.0  0.7499999032004033  0.750000015088898  0.7500000997149363  1.0000
  Ga  Ga1       1.0  3.956793070975971e-08  3.765157856243747e-09  0.9999999352941203  1.0000
  Cl  Cl1       1.0  0.2536023194930795  0.25360224169480966  0.7463976961166282  1.0000
  Cl  Cl2       1.0  0.7463977593096064  0.7463977263390412  0.25360221957908563  1.0000
  Cl  Cl3       1.0  0.7463977459878901  0.2536023367132401  0.25360224468667436  1.0000
  Cl  Cl4       1.0  0.2536022333458154  0.7463977593359705  0.746397788928094  1.0000
  Cl  Cl5       1.0  0.2536023487223887  0.7463977343737545  0.25360221216634626  1.0000
  Cl  Cl6       1.0  0.7463977772677366  0.2536022411904121  0.7463977130613487  1.0000
