data_image0
_chemical_formula_structural       Fe2GaF6
_chemical_formula_sum              "Fe2 Ga1 F6"
_cell_length_a       5.394703864815861
_cell_length_b       5.394703696084992
_cell_length_c       5.394703539330905
_cell_angle_alpha    60.000000512320256
_cell_angle_beta     60.00000139310377
_cell_angle_gamma    59.999996420610564

_space_group_name_H-M_alt    "P 1"
_space_group_IT_number       1

loop_
  _space_group_symop_operation_xyz
  'x, y, z'

loop_
  _atom_site_type_symbol
  _atom_site_label
  _atom_site_symmetry_multiplicity
  _atom_site_fract_x
  _atom_site_fract_y
  _atom_site_fract_z
  _atom_site_occupancy
  Fe  Fe1       1.0  0.25000004234006185  0.25000002573600655  0.24999998442745908  1.0000
  Fe  Fe2       1.0  0.7499999102501992  0.7500002202352132  0.749999713956947  1.0000
  Ga  Ga1       1.0  0.999999990444108  0.9999999772972727  2.1690319687824836e-08  1.0000
  F   F1        1.0  0.24614615687932054  0.24614590273692222  0.7538539665059759  1.0000
  F   F2        1.0  0.75385395960084  0.7538539799906477  0.24614606511772327  1.0000
  F   F3        1.0  0.7538538971306089  0.24614591934046734  0.2461461343826825  1.0000
  F   F4        1.0  0.24614610244546378  0.7538540700899273  0.7538539449760577  1.0000
  F   F5        1.0  0.24614594359348663  0.7538539330304731  0.24614617904338623  1.0000
  F   F6        1.0  0.753853980982129  0.24614598602146878  0.7538539507607701  1.0000
