data_image0
_chemical_formula_structural       Fe2GaBr6
_chemical_formula_sum              "Fe2 Ga1 Br6"
_cell_length_a       6.911512043454488
_cell_length_b       6.91151207246125
_cell_length_c       6.911512043179365
_cell_angle_alpha    59.99999974769921
_cell_angle_beta     59.99999993413756
_cell_angle_gamma    60.00000016811997

_space_group_name_H-M_alt    "P 1"
_space_group_IT_number       1

loop_
  _space_group_symop_operation_xyz
  'x, y, z'

loop_
  _atom_site_type_symbol
  _atom_site_label
  _atom_site_symmetry_multiplicity
  _atom_site_fract_x
  _atom_site_fract_y
  _atom_site_fract_z
  _atom_site_occupancy
  Fe  Fe1       1.0  0.24999996481245773  0.25000000705346576  0.24999996522219678  1.0000
  Fe  Fe2       1.0  0.7500000179180294  0.7499999414187735  0.7500000445267198  1.0000
  Ga  Ga1       1.0  1.8968286702527747e-08  0.999999998227964  0.999999978380122  1.0000
  Br  Br1       1.0  0.25557858770029424  0.25557860667413856  0.7444214101461538  1.0000
  Br  Br2       1.0  0.7444214113143437  0.7444213931871467  0.2555786019376992  1.0000
  Br  Br3       1.0  0.7444214110867334  0.2555785824258499  0.2555786204150708  1.0000
  Br  Br4       1.0  0.25557857837570097  0.7444214511041208  0.7444214042071847  1.0000
  Br  Br5       1.0  0.2555785813644305  0.7444214531548383  0.2555785770071198  1.0000
  Br  Br6       1.0  0.744421426087622  0.25557857151495234  0.7444214025382976  1.0000
