data_image0
_chemical_formula_structural       Fe2IrCl6
_chemical_formula_sum              "Fe2 Ir1 Cl6"
_cell_length_a       6.537021187142421
_cell_length_b       6.5370212133495285
_cell_length_c       6.53702114489677
_cell_angle_alpha    60.00000007008095
_cell_angle_beta     59.99999996289347
_cell_angle_gamma    60.00000016054414

_space_group_name_H-M_alt    "P 1"
_space_group_IT_number       1

loop_
  _space_group_symop_operation_xyz
  'x, y, z'

loop_
  _atom_site_type_symbol
  _atom_site_label
  _atom_site_symmetry_multiplicity
  _atom_site_fract_x
  _atom_site_fract_y
  _atom_site_fract_z
  _atom_site_occupancy
  Fe  Fe1       1.0  0.2500000716692581  0.24999996168600552  0.24999998042199967  1.0000
  Fe  Fe2       1.0  0.7499999134152977  0.7499999843562685  0.7499999812231612  1.0000
  Ir  Ir1       1.0  2.0143702254162234e-08  2.435617499905713e-08  1.1404534036307851e-08  1.0000
  Cl  Cl1       1.0  0.2502375215056473  0.25023757569076654  0.749762452715183  1.0000
  Cl  Cl2       1.0  0.7497624380808487  0.7497624415464806  0.25023758398544177  1.0000
  Cl  Cl3       1.0  0.7497623929664171  0.2502376065833897  0.2502375011577116  1.0000
  Cl  Cl4       1.0  0.25023759093948617  0.749762401286098  0.749762471466385  1.0000
  Cl  Cl5       1.0  0.2502375794738039  0.7497624023772336  0.2502375649820493  1.0000
  Cl  Cl6       1.0  0.7497624711451473  0.25023759612449425  0.7497624554568414  1.0000
