data_image0
_chemical_formula_structural       Fe2MoBr6
_chemical_formula_sum              "Fe2 Mo1 Br6"
_cell_length_a       6.947165727967392
_cell_length_b       6.947165608102428
_cell_length_c       6.947165579495109
_cell_angle_alpha    60.00000088280895
_cell_angle_beta     60.00000018118666
_cell_angle_gamma    59.99999844336645

_space_group_name_H-M_alt    "P 1"
_space_group_IT_number       1

loop_
  _space_group_symop_operation_xyz
  'x, y, z'

loop_
  _atom_site_type_symbol
  _atom_site_label
  _atom_site_symmetry_multiplicity
  _atom_site_fract_x
  _atom_site_fract_y
  _atom_site_fract_z
  _atom_site_occupancy
  Fe  Fe1       1.0  0.2500000761678285  0.24999998212589342  0.24999998570103077  1.0000
  Fe  Fe2       1.0  0.7499999959567925  0.750000025710066  0.7499999905271685  1.0000
  Mo  Mo1       1.0  2.169105270037914e-08  2.468118403325015e-08  0.9999998947660316  1.0000
  Br  Br1       1.0  0.25745873605539427  0.2574587612872162  0.7425412273606009  1.0000
  Br  Br2       1.0  0.7425412339080654  0.7425412289193266  0.2574587598220647  1.0000
  Br  Br3       1.0  0.7425412637756583  0.257458715672667  0.25745872050517205  1.0000
  Br  Br4       1.0  0.25745862057861574  0.7425413767845032  0.7425413432834957  1.0000
  Br  Br5       1.0  0.25745870107982893  0.7425412377316453  0.2574587570036195  1.0000
  Br  Br6       1.0  0.742541349607287  0.25745864493544623  0.742541321316485  1.0000
