data_image0
_chemical_formula_structural       Fe2MoCl6
_chemical_formula_sum              "Fe2 Mo1 Cl6"
_cell_length_a       6.567022860615722
_cell_length_b       6.567022878994371
_cell_length_c       6.567022718470946
_cell_angle_alpha    60.000001766431936
_cell_angle_beta     60.0000031960895
_cell_angle_gamma    60.00000165862368

_space_group_name_H-M_alt    "P 1"
_space_group_IT_number       1

loop_
  _space_group_symop_operation_xyz
  'x, y, z'

loop_
  _atom_site_type_symbol
  _atom_site_label
  _atom_site_symmetry_multiplicity
  _atom_site_fract_x
  _atom_site_fract_y
  _atom_site_fract_z
  _atom_site_occupancy
  Fe  Fe1       1.0  0.24999984388952007  0.249999985484243  0.25000017110854966  1.0000
  Fe  Fe2       1.0  0.7500000397929792  0.7499998352282166  0.7500001005982537  1.0000
  Mo  Mo1       1.0  0.999999989148327  0.9999999850800598  7.037256686593093e-10  1.0000
  Cl  Cl1       1.0  0.2551429201553093  0.2551429753836253  0.7448570606152459  1.0000
  Cl  Cl2       1.0  0.7448571027156394  0.7448570765879059  0.25514290252423516  1.0000
  Cl  Cl3       1.0  0.7448570537486962  0.2551429761101231  0.25514290697073255  1.0000
  Cl  Cl4       1.0  0.25514299372059657  0.7448571075662809  0.7448569945164192  1.0000
  Cl  Cl5       1.0  0.25514296073159265  0.744857101243249  0.255142853300948  1.0000
  Cl  Cl6       1.0  0.7448570924393373  0.25514296005324477  0.7448570138880583  1.0000
