data_image0
_chemical_formula_structural       Fe2MoI6
_chemical_formula_sum              "Fe2 Mo1 I6"
_cell_length_a       7.556179628284395
_cell_length_b       7.556179836553887
_cell_length_c       7.556179976089736
_cell_angle_alpha    59.99999954310193
_cell_angle_beta     60.00000011365425
_cell_angle_gamma    60.00000250098276

_space_group_name_H-M_alt    "P 1"
_space_group_IT_number       1

loop_
  _space_group_symop_operation_xyz
  'x, y, z'

loop_
  _atom_site_type_symbol
  _atom_site_label
  _atom_site_symmetry_multiplicity
  _atom_site_fract_x
  _atom_site_fract_y
  _atom_site_fract_z
  _atom_site_occupancy
  Fe  Fe1       1.0  0.2499999134388971  0.2500000705284494  0.24999986211107364  1.0000
  Fe  Fe2       1.0  0.7500000382485387  0.7500000008746041  0.749999931808164  1.0000
  Mo  Mo1       1.0  0.9999999859235315  0.9999999367867752  0.9999998943920622  1.0000
  I   I1        1.0  0.25826828535221463  0.25826827245479317  0.7417317343722635  1.0000
  I   I2        1.0  0.7417317942843732  0.7417317405975932  0.25826827090386073  1.0000
  I   I3        1.0  0.7417316978943744  0.2582682972302161  0.25826838271846014  1.0000
  I   I4        1.0  0.2582682498574917  0.7417317401349451  0.7417317928045992  1.0000
  I   I5        1.0  0.25826828426903137  0.7417316725837887  0.2582683527654152  1.0000
  I   I6        1.0  0.7417317419298823  0.25826825780514767  0.7417317880556922  1.0000
