data_image0
_chemical_formula_structural       Fe2NF6
_chemical_formula_sum              "Fe2 N1 F6"
_cell_length_a       4.701930474079536
_cell_length_b       4.701930520440326
_cell_length_c       4.701930632151059
_cell_angle_alpha    59.99999885252509
_cell_angle_beta     59.999999581335366
_cell_angle_gamma    60.00000003515923

_space_group_name_H-M_alt    "P 1"
_space_group_IT_number       1

loop_
  _space_group_symop_operation_xyz
  'x, y, z'

loop_
  _atom_site_type_symbol
  _atom_site_label
  _atom_site_symmetry_multiplicity
  _atom_site_fract_x
  _atom_site_fract_y
  _atom_site_fract_z
  _atom_site_occupancy
  Fe  Fe1       1.0  0.2500000856165464  0.24999978203634804  0.25000006125487995  1.0000
  Fe  Fe2       1.0  0.7500002047710324  0.7499999738586746  0.750000514823837  1.0000
  N   N1        1.0  0.9999999066540015  4.428109617544478e-08  0.9999997055145583  1.0000
  F   F1        1.0  0.24151174566853478  0.24151181171335423  0.7584881427662344  1.0000
  F   F2        1.0  0.7584881647081132  0.7584883401067531  0.24151152147137456  1.0000
  F   F3        1.0  0.75848814258748  0.24151199099138135  0.24151175427964952  1.0000
  F   F4        1.0  0.24151156678372315  0.758488270229074  0.7584882939194723  1.0000
  F   F5        1.0  0.24151187206592187  0.7584881981642514  0.24151183925537884  1.0000
  F   F6        1.0  0.7584882882876105  0.2415115941975582  0.7584881838533296  1.0000
