data_image0
_chemical_formula_structural       Fe2NO6
_chemical_formula_sum              "Fe2 N1 O6"
_cell_length_a       4.462762412265127
_cell_length_b       4.462762406446993
_cell_length_c       4.462762335881475
_cell_angle_alpha    60.000000293627224
_cell_angle_beta     60.00000019423858
_cell_angle_gamma    60.000000071402866

_space_group_name_H-M_alt    "P 1"
_space_group_IT_number       1

loop_
  _space_group_symop_operation_xyz
  'x, y, z'

loop_
  _atom_site_type_symbol
  _atom_site_label
  _atom_site_symmetry_multiplicity
  _atom_site_fract_x
  _atom_site_fract_y
  _atom_site_fract_z
  _atom_site_occupancy
  Fe  Fe1       1.0  0.25000000139436035  0.24999999532864653  0.2500000480197568  1.0000
  Fe  Fe2       1.0  0.7500000745633036  0.7500001396703764  0.749999794505889  1.0000
  N   N1        1.0  1.6466189558442288e-08  0.999999950601431  5.455918847915306e-08  1.0000
  O   O1        1.0  0.25337030051295406  0.2533703191219904  0.7466296989169037  1.0000
  O   O2        1.0  0.7466296965174871  0.7466297033580702  0.253370326721656  1.0000
  O   O3        1.0  0.7466296939307135  0.2533702558142976  0.2533703226315892  1.0000
  O   O4        1.0  0.2533702894586897  0.7466296678686251  0.7466297166515304  1.0000
  O   O5        1.0  0.25337023264520403  0.7466297041350133  0.2533703229229604  1.0000
  O   O6        1.0  0.7466296842023917  0.2533702716908434  0.7466297280411253  1.0000
