data_image0
_chemical_formula_structural       Fe2NCl6
_chemical_formula_sum              "Fe2 N1 Cl6"
_cell_length_a       6.38227682437712
_cell_length_b       6.3822769754896775
_cell_length_c       6.382276962966169
_cell_angle_alpha    60.00000020810394
_cell_angle_beta     59.99999918941651
_cell_angle_gamma    59.99999929798149

_space_group_name_H-M_alt    "P 1"
_space_group_IT_number       1

loop_
  _space_group_symop_operation_xyz
  'x, y, z'

loop_
  _atom_site_type_symbol
  _atom_site_label
  _atom_site_symmetry_multiplicity
  _atom_site_fract_x
  _atom_site_fract_y
  _atom_site_fract_z
  _atom_site_occupancy
  Fe  Fe1       1.0  0.2500000517481714  0.25000002190734666  0.2500000084744128  1.0000
  Fe  Fe2       1.0  0.7499999794952971  0.7499999525023436  0.7500000617958092  1.0000
  N   N1        1.0  3.7793159759864145e-08  0.999999978891242  0.9999998600433291  1.0000
  Cl  Cl1       1.0  0.24295459385082263  0.24295462598353856  0.7570453771768639  1.0000
  Cl  Cl2       1.0  0.7570453574384598  0.7570453983195788  0.24295459844501266  1.0000
  Cl  Cl3       1.0  0.7570453512168465  0.24295467109646332  0.2429546891522339  1.0000
  Cl  Cl4       1.0  0.24295460729052518  0.757045385829279  0.7570453777948497  1.0000
  Cl  Cl5       1.0  0.24295463899190686  0.7570453464359646  0.24295468814087107  1.0000
  Cl  Cl6       1.0  0.7570453882129392  0.24295461837883606  0.7570453341067446  1.0000
