data_image0
_chemical_formula_structural       Fe2NCl6
_chemical_formula_sum              "Fe2 N1 Cl6"
_cell_length_a       6.381898891066217
_cell_length_b       6.381898726887333
_cell_length_c       6.381898638572049
_cell_angle_alpha    60.00000113217595
_cell_angle_beta     60.00000026820548
_cell_angle_gamma    60.000001821347205

_space_group_name_H-M_alt    "P 1"
_space_group_IT_number       1

loop_
  _space_group_symop_operation_xyz
  'x, y, z'

loop_
  _atom_site_type_symbol
  _atom_site_label
  _atom_site_symmetry_multiplicity
  _atom_site_fract_x
  _atom_site_fract_y
  _atom_site_fract_z
  _atom_site_occupancy
  Fe  Fe1       1.0  0.2499997145503023  0.250000138481177  0.25000066677148247  1.0000
  Fe  Fe2       1.0  0.7499997594560217  0.7499998761787823  0.7500012710273274  1.0000
  N   N1        1.0  9.703706699068657e-08  0.9999983898821078  4.0711460948333875e-07  1.0000
  Cl  Cl1       1.0  0.24295446370899712  0.24295453308730716  0.7570453538616919  1.0000
  Cl  Cl2       1.0  0.7570461761559469  0.7570462069892909  0.24295352920926355  1.0000
  Cl  Cl3       1.0  0.757045709850153  0.24295454732251473  0.24295400127888164  1.0000
  Cl  Cl4       1.0  0.2429538110574569  0.7570462656795492  0.7570457605015386  1.0000
  Cl  Cl5       1.0  0.24295440694948836  0.7570457914694236  0.24295357664088443  1.0000
  Cl  Cl6       1.0  0.7570458231213646  0.24295426732962846  0.7570454476974817  1.0000
