data_image0
_chemical_formula_structural       Fe2PF6
_chemical_formula_sum              "Fe2 P1 F6"
_cell_length_a       6.1551022119412275
_cell_length_b       6.155099075039406
_cell_length_c       6.155095763519119
_cell_angle_alpha    59.999976487714186
_cell_angle_beta     59.99998342394396
_cell_angle_gamma    59.99998080070011

_space_group_name_H-M_alt    "P 1"
_space_group_IT_number       1

loop_
  _space_group_symop_operation_xyz
  'x, y, z'

loop_
  _atom_site_type_symbol
  _atom_site_label
  _atom_site_symmetry_multiplicity
  _atom_site_fract_x
  _atom_site_fract_y
  _atom_site_fract_z
  _atom_site_occupancy
  Fe  Fe1       1.0  0.2500025702783423  0.24999362396473668  0.25000782675903566  1.0000
  Fe  Fe2       1.0  0.7500038446075401  0.7499948343654331  0.7500055826366196  1.0000
  P   P1        1.0  0.999999208985215  1.3431192801406966e-06  0.9999984680776584  1.0000
  F   F1        1.0  0.18685838689478856  0.18686254865388943  0.813137844532929  1.0000
  F   F2        1.0  0.8131398242919763  0.8131406999069106  0.18685816458512047  1.0000
  F   F3        1.0  0.8131381215962651  0.18686190516415066  0.18685783506018686  1.0000
  F   F4        1.0  0.18686013239052296  0.8131417552865065  0.8131378069911496  1.0000
  F   F5        1.0  0.18685863640020536  0.8131426038607509  0.18685866599194717  1.0000
  F   F6        1.0  0.8131393361369899  0.1868605670974596  0.8131380471414495  1.0000
