data_image0
_chemical_formula_structural       Fe2PCl6
_chemical_formula_sum              "Fe2 P1 Cl6"
_cell_length_a       6.657038425949012
_cell_length_b       6.6570383782173845
_cell_length_c       6.657038447424296
_cell_angle_alpha    59.99999852506713
_cell_angle_beta     59.99999807844334
_cell_angle_gamma    59.99999848578291

_space_group_name_H-M_alt    "P 1"
_space_group_IT_number       1

loop_
  _space_group_symop_operation_xyz
  'x, y, z'

loop_
  _atom_site_type_symbol
  _atom_site_label
  _atom_site_symmetry_multiplicity
  _atom_site_fract_x
  _atom_site_fract_y
  _atom_site_fract_z
  _atom_site_occupancy
  Fe  Fe1       1.0  0.25000005260475505  0.24999986610884467  0.25000000447631815  1.0000
  Fe  Fe2       1.0  0.7499998475659971  0.7500000711485606  0.7499999802114989  1.0000
  P   P1        1.0  0.9999999933774311  0.99999998344203  5.064667625778815e-08  1.0000
  Cl  Cl1       1.0  0.24729788323794305  0.24729786555814037  0.7527021069636407  1.0000
  Cl  Cl2       1.0  0.7527021737071609  0.7527021581686615  0.24729787026717992  1.0000
  Cl  Cl3       1.0  0.7527021648479497  0.24729789456565415  0.24729786957554348  1.0000
  Cl  Cl4       1.0  0.24729786832141085  0.7527021328406965  0.7527021192055444  1.0000
  Cl  Cl5       1.0  0.24729787930994035  0.7527021432139462  0.24729788312142398  1.0000
  Cl  Cl6       1.0  0.7527021360058208  0.24729788051285567  0.7527021119197296  1.0000
