data_image0
_chemical_formula_structural       Fe2PI6
_chemical_formula_sum              "Fe2 P1 I6"
_cell_length_a       7.499185340545359
_cell_length_b       7.4991852685884925
_cell_length_c       7.499185658575558
_cell_angle_alpha    59.99999881071766
_cell_angle_beta     59.99999839057772
_cell_angle_gamma    60.0000023525844

_space_group_name_H-M_alt    "P 1"
_space_group_IT_number       1

loop_
  _space_group_symop_operation_xyz
  'x, y, z'

loop_
  _atom_site_type_symbol
  _atom_site_label
  _atom_site_symmetry_multiplicity
  _atom_site_fract_x
  _atom_site_fract_y
  _atom_site_fract_z
  _atom_site_occupancy
  Fe  Fe1       1.0  0.25000009209806723  0.24999993897452671  0.24999983982254464  1.0000
  Fe  Fe2       1.0  0.7499999328884064  0.7500001958191417  0.7499996950770804  1.0000
  P   P1        1.0  0.9999999754571147  0.9999999951004875  4.005728320657858e-08  1.0000
  I   I1        1.0  0.2569726333237563  0.25697245083994197  0.7430274987425204  1.0000
  I   I2        1.0  0.7430274194746849  0.7430275173703321  0.2569726069305908  1.0000
  I   I3        1.0  0.7430274646752277  0.2569723893869577  0.25697266272518093  1.0000
  I   I4        1.0  0.2569725767871667  0.7430274465364995  0.7430275240937083  1.0000
  I   I5        1.0  0.2569724981627873  0.7430275052918055  0.2569725894047839  1.0000
  I   I6        1.0  0.7430274048564776  0.2569725658082092  0.7430275410465237  1.0000
