data_image0
_chemical_formula_structural       Fe2RuCl6
_chemical_formula_sum              "Fe2 Ru1 Cl6"
_cell_length_a       6.501464074159979
_cell_length_b       6.501463877618589
_cell_length_c       6.501463937198651
_cell_angle_alpha    59.99999993046001
_cell_angle_beta     60.00000078382132
_cell_angle_gamma    60.000000917237905

_space_group_name_H-M_alt    "P 1"
_space_group_IT_number       1

loop_
  _space_group_symop_operation_xyz
  'x, y, z'

loop_
  _atom_site_type_symbol
  _atom_site_label
  _atom_site_symmetry_multiplicity
  _atom_site_fract_x
  _atom_site_fract_y
  _atom_site_fract_z
  _atom_site_occupancy
  Fe  Fe1       1.0  0.24999989155360247  0.25000009607481494  0.2500000208499285  1.0000
  Fe  Fe2       1.0  0.7500000783350044  0.7499999510244968  0.7500000216220852  1.0000
  Ru  Ru1       1.0  0.9999999950657888  4.144356975190684e-08  3.2789324771192147e-09  1.0000
  Cl  Cl1       1.0  0.25305972879470556  0.2530597988012735  0.7469402357078488  1.0000
  Cl  Cl2       1.0  0.7469402298465637  0.7469401861326832  0.25305978194590606  1.0000
  Cl  Cl3       1.0  0.7469402569092889  0.25305976606675035  0.25305974449758317  1.0000
  Cl  Cl4       1.0  0.2530598045650905  0.7469401661208462  0.7469402004312281  1.0000
  Cl  Cl5       1.0  0.25305977690365095  0.7469402158377886  0.25305979400078665  1.0000
  Cl  Cl6       1.0  0.7469402449401922  0.2530597766313634  0.7469401944365446  1.0000
