data_image0
_chemical_formula_structural       Fe2RhCl6
_chemical_formula_sum              "Fe2 Rh1 Cl6"
_cell_length_a       6.482342675010196
_cell_length_b       6.482342724561643
_cell_length_c       6.482342593635464
_cell_angle_alpha    60.0000011298215
_cell_angle_beta     60.00000110621682
_cell_angle_gamma    60.000001253333785

_space_group_name_H-M_alt    "P 1"
_space_group_IT_number       1

loop_
  _space_group_symop_operation_xyz
  'x, y, z'

loop_
  _atom_site_type_symbol
  _atom_site_label
  _atom_site_symmetry_multiplicity
  _atom_site_fract_x
  _atom_site_fract_y
  _atom_site_fract_z
  _atom_site_occupancy
  Fe  Fe1       1.0  0.24999992669921348  0.2500000541485482  0.25000010634661374  1.0000
  Fe  Fe2       1.0  0.7500000181654043  0.7499999772888266  0.750000196939933  1.0000
  Rh  Rh1       1.0  5.147870697451684e-08  0.9999999470980522  5.470444719225215e-08  1.0000
  Cl  Cl1       1.0  0.2509512289970145  0.2509512683911275  0.7490487159075352  1.0000
  Cl  Cl2       1.0  0.7490487805347165  0.749048734705917  0.25095115269952917  1.0000
  Cl  Cl3       1.0  0.749048789074806  0.250951241529813  0.2509511617939307  1.0000
  Cl  Cl4       1.0  0.2509512070338692  0.7490487804607846  0.7490487441868421  1.0000
  Cl  Cl5       1.0  0.2509512296773982  0.7490487715968676  0.25095116942548307  1.0000
  Cl  Cl6       1.0  0.7490487659280846  0.2509512144959793  0.7490486992202822  1.0000
