data_image0
_chemical_formula_structural       Fe2RuBr6
_chemical_formula_sum              "Fe2 Ru1 Br6"
_cell_length_a       6.908115982525036
_cell_length_b       6.908116071824069
_cell_length_c       6.908116113518284
_cell_angle_alpha    59.99999892723937
_cell_angle_beta     59.999999896863855
_cell_angle_gamma    60.00000059091438

_space_group_name_H-M_alt    "P 1"
_space_group_IT_number       1

loop_
  _space_group_symop_operation_xyz
  'x, y, z'

loop_
  _atom_site_type_symbol
  _atom_site_label
  _atom_site_symmetry_multiplicity
  _atom_site_fract_x
  _atom_site_fract_y
  _atom_site_fract_z
  _atom_site_occupancy
  Fe  Fe1       1.0  0.24999993549769398  0.24999996326206467  0.250000059115346  1.0000
  Fe  Fe2       1.0  0.7499999765296376  0.7500000014793504  0.7500000046345834  1.0000
  Ru  Ru1       1.0  0.9999999391157747  3.723105020476714e-08  6.104405741541427e-08  1.0000
  Br  Br1       1.0  0.252152499650531  0.25215250781520016  0.7478475008831024  1.0000
  Br  Br2       1.0  0.7478475502838261  0.7478475296154119  0.2521524662541516  1.0000
  Br  Br3       1.0  0.7478474971997333  0.25215248939537954  0.2521525145044193  1.0000
  Br  Br4       1.0  0.252152555234686  0.7478474753460377  0.7478474428526493  1.0000
  Br  Br5       1.0  0.25215251545084866  0.7478474865527747  0.2521525088036842  1.0000
  Br  Br6       1.0  0.7478475285072156  0.25215251364678654  0.74784744085278  1.0000
