data_image0
_chemical_formula_structural       Fe2RhI6
_chemical_formula_sum              "Fe2 Rh1 I6"
_cell_length_a       7.38340358845556
_cell_length_b       7.383403568035377
_cell_length_c       7.383403541167031
_cell_angle_alpha    59.999999816532764
_cell_angle_beta     59.99999911512938
_cell_angle_gamma    60.000000375995285

_space_group_name_H-M_alt    "P 1"
_space_group_IT_number       1

loop_
  _space_group_symop_operation_xyz
  'x, y, z'

loop_
  _atom_site_type_symbol
  _atom_site_label
  _atom_site_symmetry_multiplicity
  _atom_site_fract_x
  _atom_site_fract_y
  _atom_site_fract_z
  _atom_site_occupancy
  Fe  Fe1       1.0  0.2500001137659895  0.25000001980351727  0.25000009572544335  1.0000
  Fe  Fe2       1.0  0.7499999090751271  0.7499999532485715  0.7499999103252265  1.0000
  Rh  Rh1       1.0  0.9999999907899756  1.8246589703271964e-08  6.049238589006207e-08  1.0000
  I   I1        1.0  0.25219343154857954  0.2521934974606891  0.7478065380854222  1.0000
  I   I2        1.0  0.7478065381980644  0.7478064988143318  0.25219351676074153  1.0000
  I   I3        1.0  0.7478065101290543  0.25219342137926826  0.25219344057862253  1.0000
  I   I4        1.0  0.25219354729162097  0.7478065699194104  0.7478064686307484  1.0000
  I   I5        1.0  0.25219346339448573  0.7478065330793885  0.2521934259639756  1.0000
  I   I6        1.0  0.7478064963994739  0.2521934930536883  0.7478065417293336  1.0000
