data_image0
_chemical_formula_structural       Fe2RuF6
_chemical_formula_sum              "Fe2 Ru1 F6"
_cell_length_a       5.4691968315535595
_cell_length_b       5.469196871840495
_cell_length_c       5.469197007230756
_cell_angle_alpha    60.000000565912885
_cell_angle_beta     59.999998826451204
_cell_angle_gamma    60.0000014249216

_space_group_name_H-M_alt    "P 1"
_space_group_IT_number       1

loop_
  _space_group_symop_operation_xyz
  'x, y, z'

loop_
  _atom_site_type_symbol
  _atom_site_label
  _atom_site_symmetry_multiplicity
  _atom_site_fract_x
  _atom_site_fract_y
  _atom_site_fract_z
  _atom_site_occupancy
  Fe  Fe1       1.0  0.2500001066973124  0.25000007834037224  0.24999998053528685  1.0000
  Fe  Fe2       1.0  0.7500000571223876  0.7500001118568309  0.7499997177925666  1.0000
  Ru  Ru1       1.0  0.9999999897217136  0.9999999484949399  7.294537819965312e-08  1.0000
  F   F1        1.0  0.25331009062053733  0.2533100860404122  0.746689879874423  1.0000
  F   F2        1.0  0.7466898350966317  0.7466899317268049  0.253310206561885  1.0000
  F   F3        1.0  0.7466899354954072  0.25330997465704536  0.2533101132257  1.0000
  F   F4        1.0  0.25331000643146895  0.7466899311426484  0.7466899954916072  1.0000
  F   F5        1.0  0.25330997666212746  0.7466900284398883  0.25331008229883434  1.0000
  F   F6        1.0  0.7466899765456259  0.2533099131894127  0.7466899809221673  1.0000
