data_image0
_chemical_formula_structural       Fe2RhBr6
_chemical_formula_sum              "Fe2 Rh1 Br6"
_cell_length_a       6.848179897529855
_cell_length_b       6.84817987680221
_cell_length_c       6.848179900283289
_cell_angle_alpha    60.000000051476405
_cell_angle_beta     59.9999998165513
_cell_angle_gamma    59.999999716402364

_space_group_name_H-M_alt    "P 1"
_space_group_IT_number       1

loop_
  _space_group_symop_operation_xyz
  'x, y, z'

loop_
  _atom_site_type_symbol
  _atom_site_label
  _atom_site_symmetry_multiplicity
  _atom_site_fract_x
  _atom_site_fract_y
  _atom_site_fract_z
  _atom_site_occupancy
  Fe  Fe1       1.0  0.2500000131988832  0.25000005727446684  0.24999992676643426  1.0000
  Fe  Fe2       1.0  0.7500000423933526  0.7499999661546497  0.7500000482029158  1.0000
  Rh  Rh1       1.0  4.355040200860756e-08  0.9999999856926086  1.8964060916245988e-08  1.0000
  Br  Br1       1.0  0.25099114657087335  0.25099120664289715  0.7490088306430035  1.0000
  Br  Br2       1.0  0.7490088080573913  0.7490088060556761  0.2509911870314255  1.0000
  Br  Br3       1.0  0.7490088212020597  0.25099115107344017  0.25099117800113574  1.0000
  Br  Br4       1.0  0.25099118443714796  0.7490088097608392  0.7490088123553705  1.0000
  Br  Br5       1.0  0.2509911523592538  0.749008847854997  0.25099116675304856  1.0000
  Br  Br6       1.0  0.7490087881837317  0.25099116663200005  0.7490088293252098  1.0000
