data_image0
_chemical_formula_structural       Fe2SbBr6
_chemical_formula_sum              "Fe2 Sb1 Br6"
_cell_length_a       7.057542489188848
_cell_length_b       7.05754232764675
_cell_length_c       7.057542301122184
_cell_angle_alpha    60.000000046511396
_cell_angle_beta     60.00000137996074
_cell_angle_gamma    59.99999890835946

_space_group_name_H-M_alt    "P 1"
_space_group_IT_number       1

loop_
  _space_group_symop_operation_xyz
  'x, y, z'

loop_
  _atom_site_type_symbol
  _atom_site_label
  _atom_site_symmetry_multiplicity
  _atom_site_fract_x
  _atom_site_fract_y
  _atom_site_fract_z
  _atom_site_occupancy
  Fe  Fe1       1.0  0.24999993855695965  0.2500000194896097  0.2500000146073621  1.0000
  Fe  Fe2       1.0  0.7500000834676267  0.7499999717003151  0.7499999079664073  1.0000
  Sb  Sb1       1.0  1.8178816471174463e-08  1.9089071901986714e-08  1.1172304995538946e-07  1.0000
  Br  Br1       1.0  0.26246829309046743  0.26246825215756875  0.7375317478883172  1.0000
  Br  Br2       1.0  0.7375316824449805  0.7375317459738371  0.2624683177316554  1.0000
  Br  Br3       1.0  0.7375317241390423  0.2624682944655353  0.2624683003334384  1.0000
  Br  Br4       1.0  0.26246833669030784  0.7375316637523547  0.7375316264085858  1.0000
  Br  Br5       1.0  0.2624682353499824  0.7375317691884439  0.2624682642067172  1.0000
  Br  Br6       1.0  0.7375316838625607  0.2624682653857374  0.7375317121686503  1.0000
