data_image0
_chemical_formula_structural       Fe2SbI6
_chemical_formula_sum              "Fe2 Sb1 I6"
_cell_length_a       7.759765228953351
_cell_length_b       7.759765175349305
_cell_length_c       7.759765338079712
_cell_angle_alpha    60.00000003703772
_cell_angle_beta     59.99999871630348
_cell_angle_gamma    60.00000157942795

_space_group_name_H-M_alt    "P 1"
_space_group_IT_number       1

loop_
  _space_group_symop_operation_xyz
  'x, y, z'

loop_
  _atom_site_type_symbol
  _atom_site_label
  _atom_site_symmetry_multiplicity
  _atom_site_fract_x
  _atom_site_fract_y
  _atom_site_fract_z
  _atom_site_occupancy
  Fe  Fe1       1.0  0.2500000381381809  0.2499999531517666  0.24999996178592918  1.0000
  Fe  Fe2       1.0  0.7499999469649612  0.7500001609157969  0.7499999240256311  1.0000
  Sb  Sb1       1.0  0.9999998108175574  1.9255591708392398e-07  3.468060047308324e-09  1.0000
  I   I1        1.0  0.26381317565463613  0.26381306861737147  0.7361868779365327  1.0000
  I   I2        1.0  0.7361868974273005  0.7361868797258362  0.2638131098940461  1.0000
  I   I3        1.0  0.736186895162736  0.26381302869658674  0.26381316356304413  1.0000
  I   I4        1.0  0.26381318297143946  0.7361868107420428  0.7361868774824024  1.0000
  I   I5        1.0  0.2638132148430197  0.7361867848496451  0.2638131917459697  1.0000
  I   I6        1.0  0.7361868407587322  0.26381311772207366  0.7361868895679865  1.0000
