data_image0
_chemical_formula_structural       Fe2TaF6
_chemical_formula_sum              "Fe2 Ta1 F6"
_cell_length_a       6.723926365575815
_cell_length_b       6.723925214316659
_cell_length_c       6.72392331858026
_cell_angle_alpha    60.00002356484715
_cell_angle_beta     60.00003682560547
_cell_angle_gamma    60.00001598765695

_space_group_name_H-M_alt    "P 1"
_space_group_IT_number       1

loop_
  _space_group_symop_operation_xyz
  'x, y, z'

loop_
  _atom_site_type_symbol
  _atom_site_label
  _atom_site_symmetry_multiplicity
  _atom_site_fract_x
  _atom_site_fract_y
  _atom_site_fract_z
  _atom_site_occupancy
  Fe  Fe1       1.0  0.25000129756251976  0.24999865490197457  0.2500002928057268  1.0000
  Fe  Fe2       1.0  0.7500004494075416  0.750001374479705  0.7499985061003368  1.0000
  Ta  Ta1       1.0  0.9999998194751037  1.0928828036918912e-08  4.487749953921181e-09  1.0000
  F   F1        1.0  0.20095800691029425  0.20095873438159914  0.7990418211767029  1.0000
  F   F2        1.0  0.7990404324704053  0.7990422895242058  0.20095893885132254  1.0000
  F   F3        1.0  0.7990412736882003  0.2009580538703246  0.20095900107932324  1.0000
  F   F4        1.0  0.20095841525404293  0.7990414418198597  0.7990414431843341  1.0000
  F   F5        1.0  0.20095832979776657  0.7990413909883636  0.2009586600726629  1.0000
  F   F6        1.0  0.7990415760599265  0.2009582267404753  0.7990413782449055  1.0000
