data_image0
_chemical_formula_structural       Fe2TaI6
_chemical_formula_sum              "Fe2 Ta1 I6"
_cell_length_a       7.782837203671263
_cell_length_b       7.782837165324739
_cell_length_c       7.782837363934662
_cell_angle_alpha    59.99999806607231
_cell_angle_beta     59.999998230274066
_cell_angle_gamma    59.9999991068301

_space_group_name_H-M_alt    "P 1"
_space_group_IT_number       1

loop_
  _space_group_symop_operation_xyz
  'x, y, z'

loop_
  _atom_site_type_symbol
  _atom_site_label
  _atom_site_symmetry_multiplicity
  _atom_site_fract_x
  _atom_site_fract_y
  _atom_site_fract_z
  _atom_site_occupancy
  Fe  Fe1       1.0  0.24999993930903883  0.2500001034890767  0.2500000962959577  1.0000
  Fe  Fe2       1.0  0.749999967855615  0.7500000209159372  0.7499998062015385  1.0000
  Ta  Ta1       1.0  2.3108408658734124e-08  3.304661519215626e-08  3.102689626041845e-08  1.0000
  I   I1        1.0  0.24991980024235233  0.24991975989868612  0.7500802217339787  1.0000
  I   I2        1.0  0.7500802346242798  0.7500801772421727  0.24991981333488206  1.0000
  I   I3        1.0  0.7500802836175726  0.24991970786097864  0.24991979867927183  1.0000
  I   I4        1.0  0.24991976487190418  0.7500802151170451  0.7500802058225013  1.0000
  I   I5        1.0  0.2499197524095831  0.7500802066494363  0.2499198547156763  1.0000
  I   I6        1.0  0.7500802276211191  0.2499197792745216  0.750080176955208  1.0000
