data_image0
_chemical_formula_structural       Fe2TaBr6
_chemical_formula_sum              "Fe2 Ta1 Br6"
_cell_length_a       7.22233607322776
_cell_length_b       7.2223360263425995
_cell_length_c       7.222336154346082
_cell_angle_alpha    59.999999465067596
_cell_angle_beta     59.999999146074295
_cell_angle_gamma    60.0000000260039

_space_group_name_H-M_alt    "P 1"
_space_group_IT_number       1

loop_
  _space_group_symop_operation_xyz
  'x, y, z'

loop_
  _atom_site_type_symbol
  _atom_site_label
  _atom_site_symmetry_multiplicity
  _atom_site_fract_x
  _atom_site_fract_y
  _atom_site_fract_z
  _atom_site_occupancy
  Fe  Fe1       1.0  0.25000000077958007  0.2500000040254915  0.24999999578989615  1.0000
  Fe  Fe2       1.0  0.7499999775339481  0.7499999713779014  0.7500000644283645  1.0000
  Ta  Ta1       1.0  4.167410905597256e-09  0.9999999491267838  3.166046388905553e-08  1.0000
  Br  Br1       1.0  0.24840058220284786  0.24840055299369088  0.7515994254524173  1.0000
  Br  Br2       1.0  0.7515994274242583  0.7515994291927977  0.2484005658721386  1.0000
  Br  Br3       1.0  0.7515993778870503  0.24840064197149128  0.2484006107831754  1.0000
  Br  Br4       1.0  0.2484006204182572  0.7515994029586306  0.751599379753147  1.0000
  Br  Br5       1.0  0.2484006514002556  0.7515993797034147  0.248400600267403  1.0000
  Br  Br6       1.0  0.7515993623277036  0.24840066692248097  0.751599320787591  1.0000
