data_image0
_chemical_formula_structural       Ga2AsCl6
_chemical_formula_sum              "Ga2 As1 Cl6"
_cell_length_a       6.82194042980002
_cell_length_b       6.821940649825436
_cell_length_c       6.821940568768385
_cell_angle_alpha    60.0000002165839
_cell_angle_beta     60.00000042615389
_cell_angle_gamma    60.000001583476624

_space_group_name_H-M_alt    "P 1"
_space_group_IT_number       1

loop_
  _space_group_symop_operation_xyz
  'x, y, z'

loop_
  _atom_site_type_symbol
  _atom_site_label
  _atom_site_symmetry_multiplicity
  _atom_site_fract_x
  _atom_site_fract_y
  _atom_site_fract_z
  _atom_site_occupancy
  Ga  Ga1       1.0  0.2499999930587196  0.25000002868198673  0.2499999916977783  1.0000
  Ga  Ga2       1.0  0.7500000301105112  0.749999989099614  0.749999986372464  1.0000
  As  As1       1.0  0.9999999854674603  0.9999999928187888  3.1378895236123665e-08  1.0000
  Cl  Cl1       1.0  0.2481281792769237  0.24812823937902195  0.751871796982009  1.0000
  Cl  Cl2       1.0  0.7518717885137368  0.7518718125133298  0.2481281755976982  1.0000
  Cl  Cl3       1.0  0.7518718098346655  0.24812820999598462  0.24812821825319356  1.0000
  Cl  Cl4       1.0  0.24812821145420313  0.7518717880372863  0.751871760370385  1.0000
  Cl  Cl5       1.0  0.24812821362538065  0.7518717444610212  0.24812823253884658  1.0000
  Cl  Cl6       1.0  0.7518717898659832  0.2481282104849842  0.7518717838564097  1.0000
