data_image0
_chemical_formula_structural       Ga2AsO6
_chemical_formula_sum              "Ga2 As1 O6"
_cell_length_a       5.036842264302608
_cell_length_b       5.036842067956318
_cell_length_c       5.0368421120944005
_cell_angle_alpha    60.00000085883472
_cell_angle_beta     60.00000124422014
_cell_angle_gamma    60.000001344510025

_space_group_name_H-M_alt    "P 1"
_space_group_IT_number       1

loop_
  _space_group_symop_operation_xyz
  'x, y, z'

loop_
  _atom_site_type_symbol
  _atom_site_label
  _atom_site_symmetry_multiplicity
  _atom_site_fract_x
  _atom_site_fract_y
  _atom_site_fract_z
  _atom_site_occupancy
  Ga  Ga1       1.0  0.24999980741557454  0.24999972041946836  0.2500002394997158  1.0000
  Ga  Ga2       1.0  0.7499996828892183  0.7499996791834352  0.7500004304693083  1.0000
  As  As1       1.0  0.9999999770749121  0.9999999999999994  0.9999999955795766  1.0000
  O   O1        1.0  0.25356372636382757  0.2535638142091644  0.7464362180700801  1.0000
  O   O2        1.0  0.7464362302336978  0.7464363391813386  0.2535636016289006  1.0000
  O   O3        1.0  0.7464364097014125  0.25356384553185757  0.2535636338765481  1.0000
  O   O4        1.0  0.2535638749791384  0.7464363346059537  0.7464361315002654  1.0000
  O   O5        1.0  0.25356392120882204  0.746436309190658  0.2535635841439772  1.0000
  O   O6        1.0  0.7464363716683162  0.25356392201018396  0.7464361516030276  1.0000
