data_image0
_chemical_formula_structural       Ga2AsF6
_chemical_formula_sum              "Ga2 As1 F6"
_cell_length_a       5.811929936362102
_cell_length_b       5.811928565582117
_cell_length_c       5.811929763304022
_cell_angle_alpha    59.99998947972518
_cell_angle_beta     59.999994798664375
_cell_angle_gamma    59.99998813186176

_space_group_name_H-M_alt    "P 1"
_space_group_IT_number       1

loop_
  _space_group_symop_operation_xyz
  'x, y, z'

loop_
  _atom_site_type_symbol
  _atom_site_label
  _atom_site_symmetry_multiplicity
  _atom_site_fract_x
  _atom_site_fract_y
  _atom_site_fract_z
  _atom_site_occupancy
  Ga  Ga1       1.0  0.25000026816918425  0.2499999531023486  0.2499997826444025  1.0000
  Ga  Ga2       1.0  0.7499999710219538  0.7500000173542114  0.7500001897879385  1.0000
  As  As1       1.0  0.9999999537429121  0.9999999599613887  0.9999999880886878  1.0000
  F   F1        1.0  0.2341556469197403  0.23415570392780735  0.7658443323158975  1.0000
  F   F2        1.0  0.7658443007009017  0.765844032618967  0.23415581338546146  1.0000
  F   F3        1.0  0.7658442155936361  0.23415583054234212  0.23415568382876323  1.0000
  F   F4        1.0  0.2341558008959705  0.7658442537081784  0.7658442122918535  1.0000
  F   F5        1.0  0.23415576497968707  0.7658442045953653  0.2341556598218546  1.0000
  F   F6        1.0  0.7658441526324836  0.2341558901916337  0.7658443286460147  1.0000
