data_image0
_chemical_formula_structural       Ga2AsSe6
_chemical_formula_sum              "Ga2 As1 Se6"
_cell_length_a       6.5095519649498
_cell_length_b       6.509552016365948
_cell_length_c       6.509551784970505
_cell_angle_alpha    60.000000009973135
_cell_angle_beta     60.00000028686831
_cell_angle_gamma    59.9999997764191

_space_group_name_H-M_alt    "P 1"
_space_group_IT_number       1

loop_
  _space_group_symop_operation_xyz
  'x, y, z'

loop_
  _atom_site_type_symbol
  _atom_site_label
  _atom_site_symmetry_multiplicity
  _atom_site_fract_x
  _atom_site_fract_y
  _atom_site_fract_z
  _atom_site_occupancy
  Ga  Ga1       1.0  0.24999998698937298  0.24999999716395643  0.2500000087612841  1.0000
  Ga  Ga2       1.0  0.7499999984158302  0.7500000121879071  0.7499999833861406  1.0000
  As  As1       1.0  2.5783938479871228e-08  0.9999999811854192  5.1818667986501996e-08  1.0000
  Se  Se1       1.0  0.292738771731618  0.2927387662839968  0.7072612370138263  1.0000
  Se  Se2       1.0  0.7072612256786267  0.7072612336605762  0.29273878763121264  1.0000
  Se  Se3       1.0  0.707261302349412  0.29273869512370737  0.29273872765037673  1.0000
  Se  Se4       1.0  0.29273875508604025  0.707261257784416  0.7072612336607326  1.0000
  Se  Se5       1.0  0.29273870725792983  0.7072612867388797  0.2927387261663496  1.0000
  Se  Se6       1.0  0.7072612310586056  0.29273877341235033  0.7072612395464604  1.0000
