data_image0
_chemical_formula_structural       Ga2BI6
_chemical_formula_sum              "Ga2 B1 I6"
_cell_length_a       7.552221318193116
_cell_length_b       7.552221375571251
_cell_length_c       7.552221390840146
_cell_angle_alpha    59.99999952168873
_cell_angle_beta     59.9999991637724
_cell_angle_gamma    59.99999860330626

_space_group_name_H-M_alt    "P 1"
_space_group_IT_number       1

loop_
  _space_group_symop_operation_xyz
  'x, y, z'

loop_
  _atom_site_type_symbol
  _atom_site_label
  _atom_site_symmetry_multiplicity
  _atom_site_fract_x
  _atom_site_fract_y
  _atom_site_fract_z
  _atom_site_occupancy
  Ga  Ga1       1.0  0.2500000160492175  0.24999998714137947  0.24999999328270575  1.0000
  Ga  Ga2       1.0  0.7500000192511774  0.750000006831781  0.7499999888060119  1.0000
  B   B1        1.0  2.3525764259178394e-07  3.729913152212771e-08  0.9999999219826158  1.0000
  I   I1        1.0  0.23217277894770422  0.2321728175455272  0.7678271854460241  1.0000
  I   I2        1.0  0.7678271461301862  0.7678271034510669  0.23217287632520628  1.0000
  I   I3        1.0  0.7678271133602379  0.23217285348898534  0.23217280067205526  1.0000
  I   I4        1.0  0.2321727889820045  0.767827190756924  0.7678271936288626  1.0000
  I   I5        1.0  0.23217277356476926  0.7678272132888498  0.23217278712902473  1.0000
  I   I6        1.0  0.7678271280832384  0.23217278717111836  0.7678272625148244  1.0000
