data_image0
_chemical_formula_structural       Ga2BeCl6
_chemical_formula_sum              "Ga2 Be1 Cl6"
_cell_length_a       6.8166578889669385
_cell_length_b       6.816658097360162
_cell_length_c       6.816658475340636
_cell_angle_alpha    60.000006237726026
_cell_angle_beta     59.999997536450934
_cell_angle_gamma    60.000000595195274

_space_group_name_H-M_alt    "P 1"
_space_group_IT_number       1

loop_
  _space_group_symop_operation_xyz
  'x, y, z'

loop_
  _atom_site_type_symbol
  _atom_site_label
  _atom_site_symmetry_multiplicity
  _atom_site_fract_x
  _atom_site_fract_y
  _atom_site_fract_z
  _atom_site_occupancy
  Ga  Ga1       1.0  0.24999070519499003  0.2500017423635252  0.2500059358141624  1.0000
  Ga  Ga2       1.0  0.7499986293919348  0.75000062216311  0.7500039190136772  1.0000
  Be  Be1       1.0  2.084955778392827e-07  0.9999997556496657  4.565586978777228e-07  1.0000
  Cl  Cl1       1.0  0.24305139897460887  0.243049171601261  0.7569488199206831  1.0000
  Cl  Cl2       1.0  0.7569520397272241  0.7569492635547171  0.24304791574033968  1.0000
  Cl  Cl3       1.0  0.7569522249626166  0.2430497297061896  0.2430483765814202  1.0000
  Cl  Cl4       1.0  0.24305043595906056  0.756950022426494  0.7569488508515139  1.0000
  Cl  Cl5       1.0  0.2430513044194345  0.7569500282474717  0.24304857368328892  1.0000
  Cl  Cl6       1.0  0.7569530450194025  0.2430496232702412  0.7569471571082186  1.0000
