data_image0
_chemical_formula_structural       Ga2BeI6
_chemical_formula_sum              "Ga2 Be1 I6"
_cell_length_a       7.598802798074231
_cell_length_b       7.598802769577976
_cell_length_c       7.5988028861829235
_cell_angle_alpha    59.999999321356675
_cell_angle_beta     59.99999935168137
_cell_angle_gamma    59.999999680113405

_space_group_name_H-M_alt    "P 1"
_space_group_IT_number       1

loop_
  _space_group_symop_operation_xyz
  'x, y, z'

loop_
  _atom_site_type_symbol
  _atom_site_label
  _atom_site_symmetry_multiplicity
  _atom_site_fract_x
  _atom_site_fract_y
  _atom_site_fract_z
  _atom_site_occupancy
  Ga  Ga1       1.0  0.24999998377805813  0.2500000113754623  0.2500000011930428  1.0000
  Ga  Ga2       1.0  0.7500000083883189  0.7499999906088584  0.7499999994428139  1.0000
  Be  Be1       1.0  1.0452719210191926e-08  9.670561975075801e-09  0.9999999649344209  1.0000
  I   I1        1.0  0.2419339944353432  0.2419339660304288  0.7580660339486078  1.0000
  I   I2        1.0  0.7580660022897805  0.758066035953892  0.24193397230385613  1.0000
  I   I3        1.0  0.7580659522200066  0.2419340270165757  0.24193403479878858  1.0000
  I   I4        1.0  0.2419340145585484  0.7580659781912656  0.7580660019231575  1.0000
  I   I5        1.0  0.24193403928941956  0.7580659673932708  0.24193399643739527  1.0000
  I   I6        1.0  0.7580660031311635  0.24193400235584356  0.7580659951889617  1.0000
