data_image0
_chemical_formula_structural       Ga2BCl6
_chemical_formula_sum              "Ga2 B1 Cl6"
_cell_length_a       6.738801532562769
_cell_length_b       6.73880146619115
_cell_length_c       6.73880132749099
_cell_angle_alpha    60.00000167005817
_cell_angle_beta     60.00000236448979
_cell_angle_gamma    59.99999895287844

_space_group_name_H-M_alt    "P 1"
_space_group_IT_number       1

loop_
  _space_group_symop_operation_xyz
  'x, y, z'

loop_
  _atom_site_type_symbol
  _atom_site_label
  _atom_site_symmetry_multiplicity
  _atom_site_fract_x
  _atom_site_fract_y
  _atom_site_fract_z
  _atom_site_occupancy
  Ga  Ga1       1.0  0.2500000910390749  0.2499999700737078  0.24999995996671673  1.0000
  Ga  Ga2       1.0  0.7499999435322176  0.7500000610696528  0.7500000226903506  1.0000
  B   B1        1.0  1.573897093417244e-09  6.724572524397203e-08  0.9999997890009205  1.0000
  Cl  Cl1       1.0  0.21651543508768106  0.21651546246034256  0.7834845302117446  1.0000
  Cl  Cl2       1.0  0.7834845765338884  0.7834845141594566  0.21651547189069958  1.0000
  Cl  Cl3       1.0  0.7834845646575682  0.2165154398831151  0.21651544171365825  1.0000
  Cl  Cl4       1.0  0.21651536551137854  0.7834845549112072  0.7834846469337421  1.0000
  Cl  Cl5       1.0  0.21651546020851556  0.7834845405576516  0.21651545389296092  1.0000
  Cl  Cl6       1.0  0.7834845828977248  0.2165153724513251  0.7834846533091651  1.0000
