data_image0
_chemical_formula_structural       Ga2BBr6
_chemical_formula_sum              "Ga2 B1 Br6"
_cell_length_a       7.189586308416391
_cell_length_b       7.189585794611338
_cell_length_c       7.189586054588604
_cell_angle_alpha    59.99999947727077
_cell_angle_beta     60.00000251341382
_cell_angle_gamma    59.99999885118999

_space_group_name_H-M_alt    "P 1"
_space_group_IT_number       1

loop_
  _space_group_symop_operation_xyz
  'x, y, z'

loop_
  _atom_site_type_symbol
  _atom_site_label
  _atom_site_symmetry_multiplicity
  _atom_site_fract_x
  _atom_site_fract_y
  _atom_site_fract_z
  _atom_site_occupancy
  Ga  Ga1       1.0  0.24999997312276828  0.25000000471209044  0.24999998745549915  1.0000
  Ga  Ga2       1.0  0.750000021881461  0.7500000005082831  0.7499999916416494  1.0000
  B   B1        1.0  0.9999999120418066  0.9999998398711368  8.788010936511967e-08  1.0000
  Br  Br1       1.0  0.22157343021137763  0.22157347028153318  0.778426539978071  1.0000
  Br  Br2       1.0  0.7784267769559903  0.7784265826367993  0.22157337177906086  1.0000
  Br  Br3       1.0  0.7784265411630354  0.221573499449751  0.2215733895712962  1.0000
  Br  Br4       1.0  0.2215733973196248  0.7784265500615847  0.7784266137228641  1.0000
  Br  Br5       1.0  0.2215733866409762  0.7784265690836651  0.22157345005042545  1.0000
  Br  Br6       1.0  0.7784265462774977  0.22157346339268527  0.7784266034885391  1.0000
