data_image0
_chemical_formula_structural       Ga2BeBr6
_chemical_formula_sum              "Ga2 Be1 Br6"
_cell_length_a       7.097745542077642
_cell_length_b       7.097745785426146
_cell_length_c       7.097745503533918
_cell_angle_alpha    60.00000055219767
_cell_angle_beta     60.00000066809278
_cell_angle_gamma    60.000000821081436

_space_group_name_H-M_alt    "P 1"
_space_group_IT_number       1

loop_
  _space_group_symop_operation_xyz
  'x, y, z'

loop_
  _atom_site_type_symbol
  _atom_site_label
  _atom_site_symmetry_multiplicity
  _atom_site_fract_x
  _atom_site_fract_y
  _atom_site_fract_z
  _atom_site_occupancy
  Ga  Ga1       1.0  0.24999999176534957  0.24999996593620535  0.25000007392235496  1.0000
  Ga  Ga2       1.0  0.7499999497568847  0.7500000427540294  0.7499999845427816  1.0000
  Be  Be1       1.0  0.9999999625513672  0.9999998878398603  7.480438670075169e-08  1.0000
  Br  Br1       1.0  0.2434960221948227  0.24349595640410765  0.7565039758864656  1.0000
  Br  Br2       1.0  0.7565040474881053  0.7565040143242343  0.24349595576318261  1.0000
  Br  Br3       1.0  0.7565039818284607  0.24349606702511548  0.24349592893566674  1.0000
  Br  Br4       1.0  0.24349594833674523  0.7565040538252598  0.756504005865213  1.0000
  Br  Br5       1.0  0.2434960359300418  0.7565039884540636  0.24349598422644422  1.0000
  Br  Br6       1.0  0.7565040585165954  0.2434960202361708  0.7565040118654724  1.0000
