data_image0
_chemical_formula_structural       Ga2CoTe6
_chemical_formula_sum              "Ga2 Co1 Te6"
_cell_length_a       6.994475697288781
_cell_length_b       6.994475840159723
_cell_length_c       6.994475357552425
_cell_angle_alpha    60.00000177807212
_cell_angle_beta     59.99999856940581
_cell_angle_gamma    59.99999735942215

_space_group_name_H-M_alt    "P 1"
_space_group_IT_number       1

loop_
  _space_group_symop_operation_xyz
  'x, y, z'

loop_
  _atom_site_type_symbol
  _atom_site_label
  _atom_site_symmetry_multiplicity
  _atom_site_fract_x
  _atom_site_fract_y
  _atom_site_fract_z
  _atom_site_occupancy
  Ga  Ga1       1.0  0.25000006828565063  0.2499999772497606  0.24999998215321723  1.0000
  Ga  Ga2       1.0  0.7499999730162591  0.7499999982879508  0.7500000333997678  1.0000
  Co  Co1       1.0  0.9999999129871451  3.502039186214861e-09  1.9759268772614808e-07  1.0000
  Te  Te1       1.0  0.24797505067462403  0.24797505996873603  0.7520249383908119  1.0000
  Te  Te2       1.0  0.7520249721814636  0.7520250749115553  0.24797498812769675  1.0000
  Te  Te3       1.0  0.7520250194244611  0.24797486968309276  0.24797493922319744  1.0000
  Te  Te4       1.0  0.2479750525288535  0.7520249990425577  0.752024925689742  1.0000
  Te  Te5       1.0  0.24797500152105145  0.7520250101475424  0.24797494049055818  1.0000
  Te  Te6       1.0  0.7520249505162799  0.24797500041051967  0.7520250607232487  1.0000
