data_image0
_chemical_formula_structural       Ga2CI6
_chemical_formula_sum              "Ga2 C1 I6"
_cell_length_a       7.518131952727146
_cell_length_b       7.518131778339456
_cell_length_c       7.5181320984759505
_cell_angle_alpha    60.000000845834556
_cell_angle_beta     59.999998265529065
_cell_angle_gamma    59.999999202524634

_space_group_name_H-M_alt    "P 1"
_space_group_IT_number       1

loop_
  _space_group_symop_operation_xyz
  'x, y, z'

loop_
  _atom_site_type_symbol
  _atom_site_label
  _atom_site_symmetry_multiplicity
  _atom_site_fract_x
  _atom_site_fract_y
  _atom_site_fract_z
  _atom_site_occupancy
  Ga  Ga1       1.0  0.2500000319561913  0.24999999155413488  0.24999999187036112  1.0000
  Ga  Ga2       1.0  0.7499999328009711  0.749999961629969  0.7500001128754559  1.0000
  C   C1        1.0  5.332219933085162e-08  0.9999999690479594  1.6747389773276477e-08  1.0000
  I   I1        1.0  0.24974654844765848  0.24974645868202508  0.75025346956711  1.0000
  I   I2        1.0  0.7502534961596762  0.7502535221960064  0.24974647233701183  1.0000
  I   I3        1.0  0.7502534937764529  0.24974650842025192  0.24974648134685262  1.0000
  I   I4        1.0  0.24974647977541264  0.7502535473943014  0.7502534905395678  1.0000
  I   I5        1.0  0.2497465361640101  0.7502534869218916  0.2497465021865048  1.0000
  I   I6        1.0  0.7502534242942199  0.24974655748927785  0.7502534606665432  1.0000
