data_image0
_chemical_formula_structural       Ga2CO6
_chemical_formula_sum              "Ga2 C1 O6"
_cell_length_a       4.753073695014457
_cell_length_b       4.7530739293247475
_cell_length_c       4.753073861828029
_cell_angle_alpha    59.99999941392375
_cell_angle_beta     59.99999869008799
_cell_angle_gamma    59.99999908932265

_space_group_name_H-M_alt    "P 1"
_space_group_IT_number       1

loop_
  _space_group_symop_operation_xyz
  'x, y, z'

loop_
  _atom_site_type_symbol
  _atom_site_label
  _atom_site_symmetry_multiplicity
  _atom_site_fract_x
  _atom_site_fract_y
  _atom_site_fract_z
  _atom_site_occupancy
  Ga  Ga1       1.0  0.2500009140542238  0.24999982601299572  0.2499998231606704  1.0000
  Ga  Ga2       1.0  0.7500005194218575  0.7499999805038553  0.7500001002947014  1.0000
  C   C1        1.0  7.604750363366612e-08  0.9999999613488573  2.5483754669402008e-08  1.0000
  O   O1        1.0  0.2247612543275694  0.22476127997927953  0.7752387998442573  1.0000
  O   O2        1.0  0.7752382357397644  0.7752388615141628  0.22476123564354533  1.0000
  O   O3        1.0  0.77523815078137  0.224761520329288  0.22476129323613325  1.0000
  O   O4        1.0  0.22476119639484837  0.7752385979734728  0.7752387116818782  1.0000
  O   O5        1.0  0.22476090271870702  0.775238650633762  0.22476159239498386  1.0000
  O   O6        1.0  0.775238653287093  0.22476138778996924  0.7752385037364751  1.0000
