data_image0
_chemical_formula_structural       Ga2CoI6
_chemical_formula_sum              "Ga2 Co1 I6"
_cell_length_a       7.5618950462417365
_cell_length_b       7.561895112385484
_cell_length_c       7.561895090078371
_cell_angle_alpha    60.00000012279025
_cell_angle_beta     59.999999667850304
_cell_angle_gamma    59.99999917395794

_space_group_name_H-M_alt    "P 1"
_space_group_IT_number       1

loop_
  _space_group_symop_operation_xyz
  'x, y, z'

loop_
  _atom_site_type_symbol
  _atom_site_label
  _atom_site_symmetry_multiplicity
  _atom_site_fract_x
  _atom_site_fract_y
  _atom_site_fract_z
  _atom_site_occupancy
  Ga  Ga1       1.0  0.2499999973406184  0.2500000016996725  0.2500000114976267  1.0000
  Ga  Ga2       1.0  0.7499999976826034  0.7500000018597637  0.7499999922871182  1.0000
  Co  Co1       1.0  1.429875832680775e-08  0.9999999708467158  6.825857501321421e-08  1.0000
  I   I1        1.0  0.24812395010522287  0.24812397857489565  0.751876046012954  1.0000
  I   I2        1.0  0.7518760476014845  0.7518760444200634  0.24812395067954637  1.0000
  I   I3        1.0  0.7518760275639551  0.24812398250916698  0.2481239595166952  1.0000
  I   I4        1.0  0.24812399216913342  0.7518760064736268  0.7518760008512628  1.0000
  I   I5        1.0  0.24812397648381002  0.7518760190194633  0.24812397668898567  1.0000
  I   I6        1.0  0.751875999937541  0.2481239991166152  0.7518759973702979  1.0000
