data_image0
_chemical_formula_structural       Ga2CoBr6
_chemical_formula_sum              "Ga2 Co1 Br6"
_cell_length_a       7.127012928193538
_cell_length_b       7.1270130502861315
_cell_length_c       7.127013002179825
_cell_angle_alpha    59.99999949658391
_cell_angle_beta     60.00000117958961
_cell_angle_gamma    59.99999969283556

_space_group_name_H-M_alt    "P 1"
_space_group_IT_number       1

loop_
  _space_group_symop_operation_xyz
  'x, y, z'

loop_
  _atom_site_type_symbol
  _atom_site_label
  _atom_site_symmetry_multiplicity
  _atom_site_fract_x
  _atom_site_fract_y
  _atom_site_fract_z
  _atom_site_occupancy
  Ga  Ga1       1.0  0.2500000029567603  0.24999996112881756  0.2500000263243446  1.0000
  Ga  Ga2       1.0  0.7499999937467214  0.7499999968044606  0.7500000101822356  1.0000
  Co  Co1       1.0  1.477813094709765e-08  0.9999999896892724  0.9999999683009391  1.0000
  Br  Br1       1.0  0.2431755542070328  0.2431755548459057  0.7568244494373306  1.0000
  Br  Br2       1.0  0.7568244599083864  0.7568244529225578  0.24317555063946356  1.0000
  Br  Br3       1.0  0.7568244369433791  0.24317555532211962  0.24317554893017881  1.0000
  Br  Br4       1.0  0.2431755399894423  0.7568244765047093  0.7568244549025063  1.0000
  Br  Br5       1.0  0.24317554915288497  0.7568244836922268  0.24317551850417393  1.0000
  Br  Br6       1.0  0.7568244518045775  0.24317553438696482  0.7568244843993468  1.0000
