data_image0
_chemical_formula_structural       Ga2CS6
_chemical_formula_sum              "Ga2 C1 S6"
_cell_length_a       5.7485385904242765
_cell_length_b       5.748545229315974
_cell_length_c       5.748539410053744
_cell_angle_alpha    60.00002070843358
_cell_angle_beta     60.00001134184716
_cell_angle_gamma    60.00001440773731

_space_group_name_H-M_alt    "P 1"
_space_group_IT_number       1

loop_
  _space_group_symop_operation_xyz
  'x, y, z'

loop_
  _atom_site_type_symbol
  _atom_site_label
  _atom_site_symmetry_multiplicity
  _atom_site_fract_x
  _atom_site_fract_y
  _atom_site_fract_z
  _atom_site_occupancy
  Ga  Ga1       1.0  0.25000070865169005  0.25000012741993843  0.24999922545617562  1.0000
  Ga  Ga2       1.0  0.7499999729511475  0.7500002608197711  0.7500001652379482  1.0000
  C   C1        1.0  4.777742200643076e-07  0.9999992777509626  0.9999974693897585  1.0000
  S   S1        1.0  0.23943529091051793  0.23943606474191756  0.760564098476348  1.0000
  S   S2        1.0  0.7605639074887317  0.7605644705046972  0.2394355375998507  1.0000
  S   S3        1.0  0.7605625730564829  0.23943684700780363  0.2394371737525674  1.0000
  S   S4        1.0  0.2394362838353667  0.7605643572246155  0.7605648053080267  1.0000
  S   S5        1.0  0.23943676344140327  0.7605636717790825  0.2394361942521757  1.0000
  S   S6        1.0  0.7605637681721051  0.2394347499817869  0.7605650653169023  1.0000
