data_image0
_chemical_formula_structural       Ga2CBr6
_chemical_formula_sum              "Ga2 C1 Br6"
_cell_length_a       7.195965370474142
_cell_length_b       7.195965463128311
_cell_length_c       7.1959655928682675
_cell_angle_alpha    59.99999767990769
_cell_angle_beta     59.99999999150061
_cell_angle_gamma    59.99999822008511

_space_group_name_H-M_alt    "P 1"
_space_group_IT_number       1

loop_
  _space_group_symop_operation_xyz
  'x, y, z'

loop_
  _atom_site_type_symbol
  _atom_site_label
  _atom_site_symmetry_multiplicity
  _atom_site_fract_x
  _atom_site_fract_y
  _atom_site_fract_z
  _atom_site_occupancy
  Ga  Ga1       1.0  0.24999990233367553  0.2500000509040374  0.2500001086949207  1.0000
  Ga  Ga2       1.0  0.7500000186786312  0.7499999927252144  0.7500000014889188  1.0000
  C   C1        1.0  5.6863691096889203e-08  0.9999997668275945  3.994398957393661e-07  1.0000
  Br  Br1       1.0  0.2302356721617009  0.2302356423562494  0.7697642744032684  1.0000
  Br  Br2       1.0  0.7697644359132763  0.7697644370147603  0.2302355048108822  1.0000
  Br  Br3       1.0  0.7697644408008784  0.2302356010260973  0.23023552469106542  1.0000
  Br  Br4       1.0  0.23023566743824175  0.769764357503742  0.7697643412652844  1.0000
  Br  Br5       1.0  0.23023550834331527  0.7697644620205064  0.2302354672700407  1.0000
  Br  Br6       1.0  0.7697642939387233  0.23023572117179514  0.7697643073151945  1.0000
