data_image0
_chemical_formula_structural       Ga2CrS6
_chemical_formula_sum              "Ga2 Cr1 S6"
_cell_length_a       6.151429567562083
_cell_length_b       6.151428993289899
_cell_length_c       6.151429306838361
_cell_angle_alpha    60.00000216958957
_cell_angle_beta     59.99999775104184
_cell_angle_gamma    60.000000495633365

_space_group_name_H-M_alt    "P 1"
_space_group_IT_number       1

loop_
  _space_group_symop_operation_xyz
  'x, y, z'

loop_
  _atom_site_type_symbol
  _atom_site_label
  _atom_site_symmetry_multiplicity
  _atom_site_fract_x
  _atom_site_fract_y
  _atom_site_fract_z
  _atom_site_occupancy
  Ga  Ga1       1.0  0.2500000508483413  0.25000023136053307  0.24999963438838282  1.0000
  Ga  Ga2       1.0  0.7500000341532576  0.7499995850988566  0.7500001004565772  1.0000
  Cr  Cr1       1.0  2.6260890967068594e-07  0.9999999442522229  1.0364116293836499e-08  1.0000
  S   S1        1.0  0.25218345011317306  0.25218342712979686  0.7478164241033488  1.0000
  S   S2        1.0  0.7478166005860863  0.7478165147621172  0.2521833155713153  1.0000
  S   S3        1.0  0.7478165372045745  0.25218345021525423  0.2521836643434395  1.0000
  S   S4        1.0  0.2521833686143939  0.7478165095956135  0.7478165582266176  1.0000
  S   S5        1.0  0.25218339521067235  0.7478165408236844  0.25218359298033166  1.0000
  S   S6        1.0  0.7478163599208149  0.2521837415279606  0.7478166932218284  1.0000
