data_image0
_chemical_formula_structural       Ga2CoS6
_chemical_formula_sum              "Ga2 Co1 S6"
_cell_length_a       6.170348260043711
_cell_length_b       6.17034805684201
_cell_length_c       6.170348252679456
_cell_angle_alpha    59.99999859168939
_cell_angle_beta     59.99999853667445
_cell_angle_gamma    59.999998637169746

_space_group_name_H-M_alt    "P 1"
_space_group_IT_number       1

loop_
  _space_group_symop_operation_xyz
  'x, y, z'

loop_
  _atom_site_type_symbol
  _atom_site_label
  _atom_site_symmetry_multiplicity
  _atom_site_fract_x
  _atom_site_fract_y
  _atom_site_fract_z
  _atom_site_occupancy
  Ga  Ga1       1.0  0.2499999793345417  0.24999995144796608  0.25000004465064907  1.0000
  Ga  Ga2       1.0  0.7499998720677289  0.7500000409233569  0.7500002875565033  1.0000
  Co  Co1       1.0  0.999999943515001  2.1436788822557262e-07  0.999999770337727  1.0000
  S   S1        1.0  0.24658314079298463  0.24658312262626994  0.7534169162485845  1.0000
  S   S2        1.0  0.7534168621157084  0.7534168082135293  0.24658310032188735  1.0000
  S   S3        1.0  0.7534168624192663  0.24658320037382234  0.24658301131571575  1.0000
  S   S4        1.0  0.24658322273232952  0.7534168991814447  0.7534168311559474  1.0000
  S   S5        1.0  0.246583228358317  0.7534167256773112  0.2465831122149383  1.0000
  S   S6        1.0  0.7534168992738909  0.24658301064347826  0.7534169295293557  1.0000
