data_image0
_chemical_formula_structural       Ga2CrO6
_chemical_formula_sum              "Ga2 Cr1 O6"
_cell_length_a       5.1934154107472015
_cell_length_b       5.193415044244419
_cell_length_c       5.193415382776796
_cell_angle_alpha    59.99999818600961
_cell_angle_beta     59.99999814376248
_cell_angle_gamma    60.00000343842125

_space_group_name_H-M_alt    "P 1"
_space_group_IT_number       1

loop_
  _space_group_symop_operation_xyz
  'x, y, z'

loop_
  _atom_site_type_symbol
  _atom_site_label
  _atom_site_symmetry_multiplicity
  _atom_site_fract_x
  _atom_site_fract_y
  _atom_site_fract_z
  _atom_site_occupancy
  Ga  Ga1       1.0  0.2499986547113212  0.25000091102182953  0.2500007893981542  1.0000
  Ga  Ga2       1.0  0.7499986554857702  0.7499993348058389  0.7500022903329403  1.0000
  Cr  Cr1       1.0  2.1506421886072587e-07  0.9999999151024741  0.999999832864347  1.0000
  O   O1        1.0  0.25411773216161854  0.2541174996935165  0.7458822705337497  1.0000
  O   O2        1.0  0.7458832068488421  0.7458821117610878  0.25411700135895476  1.0000
  O   O3        1.0  0.7458827525230726  0.254117755699001  0.2541169125698493  1.0000
  O   O4        1.0  0.2541177388759462  0.7458826316247485  0.7458821547581941  1.0000
  O   O5        1.0  0.25411824159915963  0.7458823476607841  0.25411666522626764  1.0000
  O   O6        1.0  0.7458828433652205  0.2541174996203236  0.7458821385020421  1.0000
