data_image0
_chemical_formula_structural       Ga2CCl6
_chemical_formula_sum              "Ga2 C1 Cl6"
_cell_length_a       6.846776212389609
_cell_length_b       6.846776345757874
_cell_length_c       6.846776186786596
_cell_angle_alpha    60.00000150706054
_cell_angle_beta     60.000001293695114
_cell_angle_gamma    59.999998331952405

_space_group_name_H-M_alt    "P 1"
_space_group_IT_number       1

loop_
  _space_group_symop_operation_xyz
  'x, y, z'

loop_
  _atom_site_type_symbol
  _atom_site_label
  _atom_site_symmetry_multiplicity
  _atom_site_fract_x
  _atom_site_fract_y
  _atom_site_fract_z
  _atom_site_occupancy
  Ga  Ga1       1.0  0.2500000303166821  0.24999992945482696  0.24999994873783954  1.0000
  Ga  Ga2       1.0  0.750000044438474  0.7500001049804054  0.7499998762025207  1.0000
  C   C1        1.0  4.6675945417127717e-07  3.4523655155843323e-07  0.9999987147560871  1.0000
  Cl  Cl1       1.0  0.22309436058756885  0.22309422250406336  0.7769056916945706  1.0000
  Cl  Cl2       1.0  0.7769052541219865  0.7769053504232303  0.22309472985290188  1.0000
  Cl  Cl3       1.0  0.7769053317671667  0.22309468222502732  0.22309470071758905  1.0000
  Cl  Cl4       1.0  0.2230942271037133  0.7769057260674439  0.776905821808543  1.0000
  Cl  Cl5       1.0  0.2230945626624414  0.7769053929500936  0.2230947324851465  1.0000
  Cl  Cl6       1.0  0.7769057239152163  0.22309426405033342  0.7769056689243546  1.0000
