data_image0
_chemical_formula_structural       Ga2CrSe6
_chemical_formula_sum              "Ga2 Cr1 Se6"
_cell_length_a       6.515606998772501
_cell_length_b       6.515606967272325
_cell_length_c       6.515606967566126
_cell_angle_alpha    60.00000003939989
_cell_angle_beta     60.00000006793775
_cell_angle_gamma    60.000000331338136

_space_group_name_H-M_alt    "P 1"
_space_group_IT_number       1

loop_
  _space_group_symop_operation_xyz
  'x, y, z'

loop_
  _atom_site_type_symbol
  _atom_site_label
  _atom_site_symmetry_multiplicity
  _atom_site_fract_x
  _atom_site_fract_y
  _atom_site_fract_z
  _atom_site_occupancy
  Ga  Ga1       1.0  0.2499999855117275  0.2500000138021152  0.24999999046008115  1.0000
  Ga  Ga2       1.0  0.7500000090042138  0.7499999850150589  0.7500000209194401  1.0000
  Cr  Cr1       1.0  2.1785553306368115e-08  3.759419247838244e-09  3.1736030174867004e-08  1.0000
  Se  Se1       1.0  0.26223592070475155  0.26223592912058447  0.7377640784321196  1.0000
  Se  Se2       1.0  0.7377640765324739  0.7377640508994939  0.26223592870709606  1.0000
  Se  Se3       1.0  0.7377640733083046  0.2622359403775763  0.2622359094673358  1.0000
  Se  Se4       1.0  0.26223593726500366  0.737764052800469  0.7377640690770907  1.0000
  Se  Se5       1.0  0.26223592457929956  0.7377640655753875  0.26223591556601134  1.0000
  Se  Se6       1.0  0.7377640529301979  0.2622359576780107  0.7377640583335383  1.0000
