data_image0
_chemical_formula_structural       Ga2CoF6
_chemical_formula_sum              "Ga2 Co1 F6"
_cell_length_a       5.329701465036407
_cell_length_b       5.329701377646957
_cell_length_c       5.329701183612236
_cell_angle_alpha    60.000001174660845
_cell_angle_beta     60.00000130773287
_cell_angle_gamma    60.00000055963485

_space_group_name_H-M_alt    "P 1"
_space_group_IT_number       1

loop_
  _space_group_symop_operation_xyz
  'x, y, z'

loop_
  _atom_site_type_symbol
  _atom_site_label
  _atom_site_symmetry_multiplicity
  _atom_site_fract_x
  _atom_site_fract_y
  _atom_site_fract_z
  _atom_site_occupancy
  Ga  Ga1       1.0  0.2500000281491189  0.24999996887850387  0.25000010345717955  1.0000
  Ga  Ga2       1.0  0.7500000620159831  0.7499999089334726  0.7499999076571293  1.0000
  Co  Co1       1.0  0.9999999737612373  0.9999999747224235  5.202605888686433e-08  1.0000
  F   F1        1.0  0.24402800266335364  0.2440280110951593  0.7559719709396726  1.0000
  F   F2        1.0  0.7559719670916618  0.7559720459578143  0.24402803702707032  1.0000
  F   F3        1.0  0.755971918775163  0.24402809822740062  0.2440279190933685  1.0000
  F   F4        1.0  0.2440280767380222  0.7559719335479964  0.7559720248396328  1.0000
  F   F5        1.0  0.24402789463310395  0.7559720316832125  0.24402810861729332  1.0000
  F   F6        1.0  0.7559720663243336  0.24402803226364567  0.755971868404574  1.0000
