data_image0
_chemical_formula_structural       Ga2FeTe6
_chemical_formula_sum              "Ga2 Fe1 Te6"
_cell_length_a       7.1224158443543
_cell_length_b       7.12241624347655
_cell_length_c       7.122415849188539
_cell_angle_alpha    60.000000481447735
_cell_angle_beta     60.000000721108215
_cell_angle_gamma    59.999999296411495

_space_group_name_H-M_alt    "P 1"
_space_group_IT_number       1

loop_
  _space_group_symop_operation_xyz
  'x, y, z'

loop_
  _atom_site_type_symbol
  _atom_site_label
  _atom_site_symmetry_multiplicity
  _atom_site_fract_x
  _atom_site_fract_y
  _atom_site_fract_z
  _atom_site_occupancy
  Ga  Ga1       1.0  0.24999995690202698  0.2500000586325267  0.2500000016743998  1.0000
  Ga  Ga2       1.0  0.7499999995383843  0.7500000228564051  0.7500000115115655  1.0000
  Fe  Fe1       1.0  1.1049028857413733e-07  0.9999999019848654  0.9999999530459028  1.0000
  Te  Te1       1.0  0.23695839966104748  0.23695831622178332  0.763041639682828  1.0000
  Te  Te2       1.0  0.7630416754740977  0.7630416620933224  0.23695834468241525  1.0000
  Te  Te3       1.0  0.7630415965474509  0.23695838992931156  0.23695840324747328  1.0000
  Te  Te4       1.0  0.2369582772921941  0.7630417156335142  0.7630416560501433  1.0000
  Te  Te5       1.0  0.2369583322247802  0.7630416168291257  0.23695833220290177  1.0000
  Te  Te6       1.0  0.7630416524339292  0.23695831677732604  0.7630416481499687  1.0000
