data_image0
_chemical_formula_structural       Ga2FeSe6
_chemical_formula_sum              "Ga2 Fe1 Se6"
_cell_length_a       6.631540778495322
_cell_length_b       6.631540828580139
_cell_length_c       6.631540878149464
_cell_angle_alpha    59.99999941949425
_cell_angle_beta     59.999999173252505
_cell_angle_gamma    60.0000002596789

_space_group_name_H-M_alt    "P 1"
_space_group_IT_number       1

loop_
  _space_group_symop_operation_xyz
  'x, y, z'

loop_
  _atom_site_type_symbol
  _atom_site_label
  _atom_site_symmetry_multiplicity
  _atom_site_fract_x
  _atom_site_fract_y
  _atom_site_fract_z
  _atom_site_occupancy
  Ga  Ga1       1.0  0.2500000194884252  0.249999956029966  0.2500000322391134  1.0000
  Ga  Ga2       1.0  0.7499999779614421  0.7500000416936213  0.749999995881369  1.0000
  Fe  Fe1       1.0  2.5185892090007147e-08  1.8468481455038446e-08  0.9999999600774712  1.0000
  Se  Se1       1.0  0.2416806961380769  0.24168071098102867  0.7583192834451659  1.0000
  Se  Se2       1.0  0.7583192733646874  0.758319260886685  0.24168074141790166  1.0000
  Se  Se3       1.0  0.7583192587421157  0.24168074078718654  0.2416807670148034  1.0000
  Se  Se4       1.0  0.24168075499439376  0.758319255089553  0.758319256901672  1.0000
  Se  Se5       1.0  0.2416807280105162  0.7583192471634682  0.24168073695596723  1.0000
  Se  Se6       1.0  0.7583192621575818  0.24168076718175246  0.7583192337165021  1.0000
