data_image0
_chemical_formula_structural       Ga2GeCl6
_chemical_formula_sum              "Ga2 Ge1 Cl6"
_cell_length_a       6.877050542526944
_cell_length_b       6.877050285206855
_cell_length_c       6.877050691710073
_cell_angle_alpha    60.00000011066617
_cell_angle_beta     59.99999998457415
_cell_angle_gamma    59.999999743405084

_space_group_name_H-M_alt    "P 1"
_space_group_IT_number       1

loop_
  _space_group_symop_operation_xyz
  'x, y, z'

loop_
  _atom_site_type_symbol
  _atom_site_label
  _atom_site_symmetry_multiplicity
  _atom_site_fract_x
  _atom_site_fract_y
  _atom_site_fract_z
  _atom_site_occupancy
  Ga  Ga1       1.0  0.24999997899938858  0.25000001517016623  0.24999996367061558  1.0000
  Ga  Ga2       1.0  0.7500000092328525  0.7499999849593569  0.7499999564215479  1.0000
  Ge  Ge1       1.0  3.4294238773152145e-08  0.9999999626007652  2.918062029664106e-08  1.0000
  Cl  Cl1       1.0  0.23425782848957702  0.2342578537832779  0.7657421766027124  1.0000
  Cl  Cl2       1.0  0.765742144613616  0.7657421766218195  0.23425786824035505  1.0000
  Cl  Cl3       1.0  0.7657421811151732  0.2342577877972753  0.23425780561445114  1.0000
  Cl  Cl4       1.0  0.23425781166247236  0.7657422087704172  0.7657421750586176  1.0000
  Cl  Cl5       1.0  0.2342578333245953  0.7657421727999852  0.23425782302286982  1.0000
  Cl  Cl6       1.0  0.7657421905579157  0.23425783623412033  0.7657421896666938  1.0000
