data_image0
_chemical_formula_structural       Ga2GeO6
_chemical_formula_sum              "Ga2 Ge1 O6"
_cell_length_a       5.0884246666097654
_cell_length_b       5.0884249267714114
_cell_length_c       5.088424654800615
_cell_angle_alpha    60.00000182514937
_cell_angle_beta     60.00000123558564
_cell_angle_gamma    60.00000131562676

_space_group_name_H-M_alt    "P 1"
_space_group_IT_number       1

loop_
  _space_group_symop_operation_xyz
  'x, y, z'

loop_
  _atom_site_type_symbol
  _atom_site_label
  _atom_site_symmetry_multiplicity
  _atom_site_fract_x
  _atom_site_fract_y
  _atom_site_fract_z
  _atom_site_occupancy
  Ga  Ga1       1.0  0.24999987757101108  0.25000047943280135  0.25000009551004365  1.0000
  Ga  Ga2       1.0  0.7500003899026322  0.7499994935043877  0.7500003575772335  1.0000
  Ge  Ge1       1.0  2.642892270574769e-08  2.4069229936040115e-09  1.1130259545122955e-08  1.0000
  O   O1        1.0  0.25866136708504683  0.2586615189556324  0.7413384699770645  1.0000
  O   O2        1.0  0.7413386205802068  0.7413384900854108  0.2586613601347055  1.0000
  O   O3        1.0  0.741338549717034  0.258661692013077  0.2586611653862814  1.0000
  O   O4        1.0  0.258661160314639  0.7413385168026012  0.7413385916360067  1.0000
  O   O5        1.0  0.25866138366757785  0.7413382995738683  0.25866145829885007  1.0000
  O   O6        1.0  0.7413386365501843  0.2586615096925419  0.7413384868678988  1.0000
