data_image0
_chemical_formula_structural       Ga2GeS6
_chemical_formula_sum              "Ga2 Ge1 S6"
_cell_length_a       6.612205747166855
_cell_length_b       6.612205365344217
_cell_length_c       6.612205582361227
_cell_angle_alpha    59.99999914474596
_cell_angle_beta     60.00000006211766
_cell_angle_gamma    59.99999727351751

_space_group_name_H-M_alt    "P 1"
_space_group_IT_number       1

loop_
  _space_group_symop_operation_xyz
  'x, y, z'

loop_
  _atom_site_type_symbol
  _atom_site_label
  _atom_site_symmetry_multiplicity
  _atom_site_fract_x
  _atom_site_fract_y
  _atom_site_fract_z
  _atom_site_occupancy
  Ga  Ga1       1.0  0.25000003484117145  0.25000016960134647  0.2499998814716254  1.0000
  Ga  Ga2       1.0  0.7500001504153828  0.7499998419944968  0.7500000289790908  1.0000
  Ge  Ge1       1.0  0.9999999287883895  4.074947360748347e-08  1.0143528517551477e-07  1.0000
  S   S1        1.0  0.24919294721518342  0.2491931327710717  0.7508070357780857  1.0000
  S   S2        1.0  0.7508071579226645  0.750806867711281  0.24919309269716194  1.0000
  S   S3        1.0  0.750807084915588  0.2491930829438117  0.24919278561458266  1.0000
  S   S4        1.0  0.24919293315151755  0.750807026821216  0.7508070731420505  1.0000
  S   S5        1.0  0.249192983173541  0.7508067573419248  0.24919297431554457  1.0000
  S   S6        1.0  0.7508067621020841  0.24919309681278187  0.7508070291659714  1.0000
