data_image0
_chemical_formula_structural       Ga2GeTe6
_chemical_formula_sum              "Ga2 Ge1 Te6"
_cell_length_a       7.2834460348532755
_cell_length_b       7.2834459694439815
_cell_length_c       7.283445966348766
_cell_angle_alpha    60.00000055607229
_cell_angle_beta     60.000000776582965
_cell_angle_gamma    60.00000001406231

_space_group_name_H-M_alt    "P 1"
_space_group_IT_number       1

loop_
  _space_group_symop_operation_xyz
  'x, y, z'

loop_
  _atom_site_type_symbol
  _atom_site_label
  _atom_site_symmetry_multiplicity
  _atom_site_fract_x
  _atom_site_fract_y
  _atom_site_fract_z
  _atom_site_occupancy
  Ga  Ga1       1.0  0.25000000235508163  0.25000001197000987  0.24999999430509837  1.0000
  Ga  Ga2       1.0  0.7500000021497768  0.7499999888267446  0.750000007541695  1.0000
  Ge  Ge1       1.0  0.9999999918972784  0.9999999815029951  0.9999999844673572  1.0000
  Te  Te1       1.0  0.27538397142233195  0.275383995303885  0.7246160055051835  1.0000
  Te  Te2       1.0  0.7246160383030021  0.7246160088559611  0.27538396184434366  1.0000
  Te  Te3       1.0  0.7246160223899792  0.2753839964348908  0.27538400975566013  1.0000
  Te  Te4       1.0  0.27538399117929324  0.7246159724124918  0.7246160364850475  1.0000
  Te  Te5       1.0  0.27538401115494104  0.7246160107994467  0.27538400295893317  1.0000
  Te  Te6       1.0  0.7246159767267967  0.2753840303544093  0.7246159980046815  1.0000
