data_image0
_chemical_formula_structural       Ga2GeBr6
_chemical_formula_sum              "Ga2 Ge1 Br6"
_cell_length_a       7.24700101566166
_cell_length_b       7.247000993923121
_cell_length_c       7.247001058862713
_cell_angle_alpha    59.999999603608295
_cell_angle_beta     59.999999439762384
_cell_angle_gamma    60.00000028161951

_space_group_name_H-M_alt    "P 1"
_space_group_IT_number       1

loop_
  _space_group_symop_operation_xyz
  'x, y, z'

loop_
  _atom_site_type_symbol
  _atom_site_label
  _atom_site_symmetry_multiplicity
  _atom_site_fract_x
  _atom_site_fract_y
  _atom_site_fract_z
  _atom_site_occupancy
  Ga  Ga1       1.0  0.24999998817856714  0.2500000051455873  0.24999998322325503  1.0000
  Ga  Ga2       1.0  0.7500000015527681  0.750000023886774  0.7499999600533728  1.0000
  Ge  Ge1       1.0  1.2843448867769548e-08  0.999999994929993  0.9999999767949432  1.0000
  Br  Br1       1.0  0.24034083286749836  0.24034080181484369  0.7596591833546434  1.0000
  Br  Br2       1.0  0.759659181343996  0.7596591967974754  0.24034081532740867  1.0000
  Br  Br3       1.0  0.759659171854394  0.24034081048941275  0.24034082153130346  1.0000
  Br  Br4       1.0  0.24034080767343968  0.7596591965729177  0.7596592220048394  1.0000
  Br  Br5       1.0  0.24034080971118998  0.7596591913790087  0.24034081181072364  1.0000
  Br  Br6       1.0  0.7596591975801549  0.2403407801932726  0.7596592314490449  1.0000
