data_image0
_chemical_formula_structural       Ga2HfSe6
_chemical_formula_sum              "Ga2 Hf1 Se6"
_cell_length_a       6.94660270749524
_cell_length_b       6.946601718646179
_cell_length_c       6.9466022348418015
_cell_angle_alpha    60.00000473787413
_cell_angle_beta     60.00000545918967
_cell_angle_gamma    60.000010388171965

_space_group_name_H-M_alt    "P 1"
_space_group_IT_number       1

loop_
  _space_group_symop_operation_xyz
  'x, y, z'

loop_
  _atom_site_type_symbol
  _atom_site_label
  _atom_site_symmetry_multiplicity
  _atom_site_fract_x
  _atom_site_fract_y
  _atom_site_fract_z
  _atom_site_occupancy
  Ga  Ga1       1.0  0.2500000757166108  0.24999968248881513  0.2500001610801133  1.0000
  Ga  Ga2       1.0  0.7500003308312887  0.7500000030583978  0.7499996397812013  1.0000
  Hf  Hf1       1.0  0.9999999872550803  5.818178812225094e-08  0.9999998477218257  1.0000
  Se  Se1       1.0  0.2677126205330678  0.26771287675562  0.7322875538615929  1.0000
  Se  Se2       1.0  0.7322877027608905  0.7322872231165686  0.26771288761373696  1.0000
  Se  Se3       1.0  0.7322872875878896  0.26771185613961934  0.2677129247196087  1.0000
  Se  Se4       1.0  0.26771232601981987  0.7322875702340232  0.7322871243648819  1.0000
  Se  Se5       1.0  0.2677123112311501  0.7322883225412312  0.267712507520251  1.0000
  Se  Se6       1.0  0.7322873624475223  0.26771239969978194  0.732287355922168  1.0000
