data_image0
_chemical_formula_structural       Ga2HfO6
_chemical_formula_sum              "Ga2 Hf1 O6"
_cell_length_a       5.314951019190228
_cell_length_b       5.314951072118799
_cell_length_c       5.3149502272069205
_cell_angle_alpha    59.99999637354456
_cell_angle_beta     59.99999839479828
_cell_angle_gamma    60.000001128620625

_space_group_name_H-M_alt    "P 1"
_space_group_IT_number       1

loop_
  _space_group_symop_operation_xyz
  'x, y, z'

loop_
  _atom_site_type_symbol
  _atom_site_label
  _atom_site_symmetry_multiplicity
  _atom_site_fract_x
  _atom_site_fract_y
  _atom_site_fract_z
  _atom_site_occupancy
  Ga  Ga1       1.0  0.2500015477854719  0.25000088866844344  0.2499976776336226  1.0000
  Ga  Ga2       1.0  0.750000307806887  0.749999619668697  0.7500010117490563  1.0000
  Hf  Hf1       1.0  9.06295621248303e-09  1.843470901947099e-08  2.9525324471067205e-08  1.0000
  O   O1        1.0  0.2692657456290322  0.26926647800108927  0.7307341470807548  1.0000
  O   O2        1.0  0.7307338344283764  0.7307337722500268  0.2692655193638258  1.0000
  O   O3        1.0  0.7307337875673303  0.2692662579945588  0.2692660394246902  1.0000
  O   O4        1.0  0.26926593580351316  0.7307332364333291  0.7307344751425581  1.0000
  O   O5        1.0  0.26926635594856413  0.730733637909483  0.2692658915078464  1.0000
  O   O6        1.0  0.7307324770449862  0.26926610308263055  0.730735163218242  1.0000
