data_image0
_chemical_formula_structural       Ga2HfTe6
_chemical_formula_sum              "Ga2 Hf1 Te6"
_cell_length_a       7.437967418282896
_cell_length_b       7.437967319897972
_cell_length_c       7.4379674070716035
_cell_angle_alpha    60.00000015788474
_cell_angle_beta     60.000000161657816
_cell_angle_gamma    59.999999785451976

_space_group_name_H-M_alt    "P 1"
_space_group_IT_number       1

loop_
  _space_group_symop_operation_xyz
  'x, y, z'

loop_
  _atom_site_type_symbol
  _atom_site_label
  _atom_site_symmetry_multiplicity
  _atom_site_fract_x
  _atom_site_fract_y
  _atom_site_fract_z
  _atom_site_occupancy
  Ga  Ga1       1.0  0.24999999917185636  0.24999999917606688  0.2499999989037934  1.0000
  Ga  Ga2       1.0  0.7499999754047098  0.7500000172875487  0.7500000113316692  1.0000
  Hf  Hf1       1.0  0.9999999993892726  0.99999995060163  2.5004548441011975e-08  1.0000
  Te  Te1       1.0  0.26930791236461366  0.26930793455007535  0.7306920917188562  1.0000
  Te  Te2       1.0  0.7306921053977855  0.7306920967330514  0.26930791102518764  1.0000
  Te  Te3       1.0  0.7306921164853076  0.2693078865839009  0.2693079262483198  1.0000
  Te  Te4       1.0  0.2693079118159652  0.7306920804813447  0.7306920831684275  1.0000
  Te  Te5       1.0  0.2693078938975044  0.7306921140481345  0.2693079105336895  1.0000
  Te  Te6       1.0  0.7306920834072581  0.26930792217482896  0.7306920427465879  1.0000
