data_image0
_chemical_formula_structural       Ga2IrCl6
_chemical_formula_sum              "Ga2 Ir1 Cl6"
_cell_length_a       6.848296694005803
_cell_length_b       6.848296505484032
_cell_length_c       6.848296698474691
_cell_angle_alpha    59.99999890689347
_cell_angle_beta     60.00000008318838
_cell_angle_gamma    59.99999991574825

_space_group_name_H-M_alt    "P 1"
_space_group_IT_number       1

loop_
  _space_group_symop_operation_xyz
  'x, y, z'

loop_
  _atom_site_type_symbol
  _atom_site_label
  _atom_site_symmetry_multiplicity
  _atom_site_fract_x
  _atom_site_fract_y
  _atom_site_fract_z
  _atom_site_occupancy
  Ga  Ga1       1.0  0.24999998624425548  0.2500000438413853  0.2500000039453396  1.0000
  Ga  Ga2       1.0  0.7499999915550762  0.7499999723571363  0.7500000034577358  1.0000
  Ir  Ir1       1.0  0.9999999932555461  0.0  0.9999999946109244  1.0000
  Cl  Cl1       1.0  0.24033168144120248  0.2403316959336867  0.7596682880698837  1.0000
  Cl  Cl2       1.0  0.7596683194698667  0.7596683166880484  0.24033166283876856  1.0000
  Cl  Cl3       1.0  0.7596683091298042  0.24033172150311244  0.24033167230557922  1.0000
  Cl  Cl4       1.0  0.2403316746132904  0.7596683072141636  0.7596683346275399  1.0000
  Cl  Cl5       1.0  0.24033171188273228  0.7596682797527102  0.24033171266486184  1.0000
  Cl  Cl6       1.0  0.759668316432821  0.24033168100561378  0.759668329324978  1.0000
