data_image0
_chemical_formula_structural       Ga2IrF6
_chemical_formula_sum              "Ga2 Ir1 F6"
_cell_length_a       5.819617694184613
_cell_length_b       5.819616599587209
_cell_length_c       5.81961777934906
_cell_angle_alpha    60.00000007061478
_cell_angle_beta     60.00000001839794
_cell_angle_gamma    59.999997709090096

_space_group_name_H-M_alt    "P 1"
_space_group_IT_number       1

loop_
  _space_group_symop_operation_xyz
  'x, y, z'

loop_
  _atom_site_type_symbol
  _atom_site_label
  _atom_site_symmetry_multiplicity
  _atom_site_fract_x
  _atom_site_fract_y
  _atom_site_fract_z
  _atom_site_occupancy
  Ga  Ga1       1.0  0.24999994285714497  0.24999996381485934  0.2500001429524686  1.0000
  Ga  Ga2       1.0  0.7499999098768065  0.7500001713445621  0.7499999716042716  1.0000
  Ir  Ir1       1.0  7.88055831870959e-08  0.9999999600142854  0.9999999754350862  1.0000
  F   F1        1.0  0.24013325615219347  0.2401330777765777  0.7598668033994288  1.0000
  F   F2        1.0  0.7598667939379211  0.759866870081331  0.24013320131209687  1.0000
  F   F3        1.0  0.7598668919666945  0.24013309237531277  0.24013320758113382  1.0000
  F   F4        1.0  0.24013314551700612  0.7598668575871037  0.7598667559865453  1.0000
  F   F5        1.0  0.2401331483687969  0.7598668649466959  0.2401331232304278  1.0000
  F   F6        1.0  0.7598669236466975  0.240133112374363  0.7598667423773245  1.0000
