data_image0
_chemical_formula_structural       Ga2IrS6
_chemical_formula_sum              "Ga2 Ir1 S6"
_cell_length_a       6.341978964904208
_cell_length_b       6.341979186101946
_cell_length_c       6.341979020389524
_cell_angle_alpha    60.0000007847225
_cell_angle_beta     60.000000830480786
_cell_angle_gamma    60.00000077362453

_space_group_name_H-M_alt    "P 1"
_space_group_IT_number       1

loop_
  _space_group_symop_operation_xyz
  'x, y, z'

loop_
  _atom_site_type_symbol
  _atom_site_label
  _atom_site_symmetry_multiplicity
  _atom_site_fract_x
  _atom_site_fract_y
  _atom_site_fract_z
  _atom_site_occupancy
  Ga  Ga1       1.0  0.25000007822571824  0.2499999782145541  0.24999997213779893  1.0000
  Ga  Ga2       1.0  0.750000018376759  0.7500000427892595  0.7499999657604095  1.0000
  Ir  Ir1       1.0  0.9999999793818894  9.462739679474265e-08  0.9999999629953567  1.0000
  S   S1        1.0  0.25408000092714356  0.2540799903349893  0.7459199999978495  1.0000
  S   S2        1.0  0.7459199825694374  0.745920042255853  0.2540799949669713  1.0000
  S   S3        1.0  0.7459200283654732  0.2540799433871162  0.25408000929442376  1.0000
  S   S4        1.0  0.25407996425368595  0.745920056373813  0.7459199707185518  1.0000
  S   S5        1.0  0.2540800025909236  0.7459199410977254  0.25408004094279396  1.0000
  S   S6        1.0  0.7459199503604507  0.25407994279292184  0.7459200814878042  1.0000
