data_image0
_chemical_formula_structural       Ga2IrO6
_chemical_formula_sum              "Ga2 Ir1 O6"
_cell_length_a       5.51880648513178
_cell_length_b       5.518806449562052
_cell_length_c       5.51880660405876
_cell_angle_alpha    60.00000076633802
_cell_angle_beta     60.00000263712429
_cell_angle_gamma    60.00000239423931

_space_group_name_H-M_alt    "P 1"
_space_group_IT_number       1

loop_
  _space_group_symop_operation_xyz
  'x, y, z'

loop_
  _atom_site_type_symbol
  _atom_site_label
  _atom_site_symmetry_multiplicity
  _atom_site_fract_x
  _atom_site_fract_y
  _atom_site_fract_z
  _atom_site_occupancy
  Ga  Ga1       1.0  0.24999944140091354  0.2499995815965345  0.25000076945834016  1.0000
  Ga  Ga2       1.0  0.7499987439961541  0.7500011260132262  0.7499985975844635  1.0000
  Ir  Ir1       1.0  4.763702579183546e-08  0.9999999889038985  3.06531593996789e-08  1.0000
  O   O1        1.0  0.23958011022152267  0.2395790682160166  0.7604203630040465  1.0000
  O   O2        1.0  0.7604204839840983  0.7604204387954957  0.23958039311818988  1.0000
  O   O3        1.0  0.7604201246383642  0.239579535803419  0.23957947668156948  1.0000
  O   O4        1.0  0.23958051075315728  0.7604202619259804  0.7604206006967555  1.0000
  O   O5        1.0  0.23957928737273967  0.7604209731156135  0.23957990398793935  1.0000
  O   O6        1.0  0.7604212437589642  0.23957906207037877  0.7604198060023315  1.0000
