data_image0
_chemical_formula_structural       Ga2MoSe6
_chemical_formula_sum              "Ga2 Mo1 Se6"
_cell_length_a       6.817640258626131
_cell_length_b       6.817640129686545
_cell_length_c       6.8176402528035
_cell_angle_alpha    59.99999928356166
_cell_angle_beta     59.99999947326627
_cell_angle_gamma    59.999999719033625

_space_group_name_H-M_alt    "P 1"
_space_group_IT_number       1

loop_
  _space_group_symop_operation_xyz
  'x, y, z'

loop_
  _atom_site_type_symbol
  _atom_site_label
  _atom_site_symmetry_multiplicity
  _atom_site_fract_x
  _atom_site_fract_y
  _atom_site_fract_z
  _atom_site_occupancy
  Ga  Ga1       1.0  0.24999999351025  0.2500000102044756  0.24999998712940544  1.0000
  Ga  Ga2       1.0  0.749999986724347  0.7500000018704633  0.7499999770632493  1.0000
  Mo  Mo1       1.0  2.1436854537420248e-08  0.9999999712570368  6.965829707372721e-08  1.0000
  Se  Se1       1.0  0.25109278769738846  0.2510928216469501  0.7489071775029015  1.0000
  Se  Se2       1.0  0.7489072169504946  0.7489071832422484  0.25109279567737824  1.0000
  Se  Se3       1.0  0.7489071944439029  0.2510928079896973  0.25109282667753313  1.0000
  Se  Se4       1.0  0.251092820468892  0.7489071915101955  0.7489071675334744  1.0000
  Se  Se5       1.0  0.25109278661166684  0.748907194730998  0.25109283592946774  1.0000
  Se  Se6       1.0  0.7489071891406556  0.251092815547506  0.748907168072121  1.0000
