data_image0
_chemical_formula_structural       Ga2MnSe6
_chemical_formula_sum              "Ga2 Mn1 Se6"
_cell_length_a       6.702953902005052
_cell_length_b       6.702953937268235
_cell_length_c       6.702953780605166
_cell_angle_alpha    60.00000028166586
_cell_angle_beta     60.00000029196694
_cell_angle_gamma    59.99999988115133

_space_group_name_H-M_alt    "P 1"
_space_group_IT_number       1

loop_
  _space_group_symop_operation_xyz
  'x, y, z'

loop_
  _atom_site_type_symbol
  _atom_site_label
  _atom_site_symmetry_multiplicity
  _atom_site_fract_x
  _atom_site_fract_y
  _atom_site_fract_z
  _atom_site_occupancy
  Ga  Ga1       1.0  0.2500000318025916  0.24999999746064497  0.249999968895523  1.0000
  Ga  Ga2       1.0  0.7499999998426441  0.7500000051721379  0.7499999987979393  1.0000
  Mn  Mn1       1.0  4.014399393426461e-08  0.9999999725924222  0.9999999727454775  1.0000
  Se  Se1       1.0  0.24582590324838632  0.2458259399679916  0.7541740678665224  1.0000
  Se  Se2       1.0  0.754174062517241  0.7541740845908536  0.24582592478747217  1.0000
  Se  Se3       1.0  0.7541740698342643  0.24582593332927094  0.24582592319338106  1.0000
  Se  Se4       1.0  0.24582589937671123  0.7541740912295744  0.7541741289050031  1.0000
  Se  Se5       1.0  0.2458259212927458  0.754174071545786  0.2458259127289269  1.0000
  Se  Se6       1.0  0.754174074089764  0.2458259055065914  0.7541740948373789  1.0000
