data_image0
_chemical_formula_structural       Ga2MgBr6
_chemical_formula_sum              "Ga2 Mg1 Br6"
_cell_length_a       7.260483576969646
_cell_length_b       7.260483550899538
_cell_length_c       7.260483822968772
_cell_angle_alpha    60.00000027824669
_cell_angle_beta     59.999999928569366
_cell_angle_gamma    60.00000108918339

_space_group_name_H-M_alt    "P 1"
_space_group_IT_number       1

loop_
  _space_group_symop_operation_xyz
  'x, y, z'

loop_
  _atom_site_type_symbol
  _atom_site_label
  _atom_site_symmetry_multiplicity
  _atom_site_fract_x
  _atom_site_fract_y
  _atom_site_fract_z
  _atom_site_occupancy
  Ga  Ga1       1.0  0.2500000037020466  0.24999998275128132  0.2500000072873433  1.0000
  Ga  Ga2       1.0  0.7499999961972318  0.7500000072940847  0.7499999515902105  1.0000
  Mg  Mg1       1.0  0.9999999905541292  0.9999999949394077  7.253231341805938e-09  1.0000
  Br  Br1       1.0  0.255963597226584  0.25596363748574347  0.7440363830691006  1.0000
  Br  Br2       1.0  0.7440363758923695  0.7440363947312241  0.25596362458288113  1.0000
  Br  Br3       1.0  0.744036361258428  0.25596363315802445  0.25596364626085244  1.0000
  Br  Br4       1.0  0.25596364921129755  0.7440363585742068  0.7440363781086167  1.0000
  Br  Br5       1.0  0.25596364170623903  0.7440363656064602  0.2559636346540866  1.0000
  Br  Br6       1.0  0.7440363879446479  0.2559636210651787  0.7440363606179989  1.0000
