data_image0
_chemical_formula_structural       Ga2MoBr6
_chemical_formula_sum              "Ga2 Mo1 Br6"
_cell_length_a       7.3110455354915835
_cell_length_b       7.3110453470220715
_cell_length_c       7.311045317072066
_cell_angle_alpha    59.999999614922814
_cell_angle_beta     59.999998872361815
_cell_angle_gamma    59.99999838778988

_space_group_name_H-M_alt    "P 1"
_space_group_IT_number       1

loop_
  _space_group_symop_operation_xyz
  'x, y, z'

loop_
  _atom_site_type_symbol
  _atom_site_label
  _atom_site_symmetry_multiplicity
  _atom_site_fract_x
  _atom_site_fract_y
  _atom_site_fract_z
  _atom_site_occupancy
  Ga  Ga1       1.0  0.2500000391180924  0.2499999772437261  0.2500000239684299  1.0000
  Ga  Ga2       1.0  0.7499999968250322  0.7499999853375161  0.7499999672196053  1.0000
  Mo  Mo1       1.0  0.9999999778885148  1.6750236851141945e-16  0.9999999946422213  1.0000
  Br  Br1       1.0  0.24525933919922632  0.24525935048083125  0.7547406575125543  1.0000
  Br  Br2       1.0  0.7547406555510277  0.7547406740827389  0.24525933422310037  1.0000
  Br  Br3       1.0  0.7547406843993885  0.24525933524481888  0.24525932976714382  1.0000
  Br  Br4       1.0  0.2452593390673371  0.7547406742419688  0.7547406606198398  1.0000
  Br  Br5       1.0  0.24525931767689801  0.7547406714999482  0.24525934430446336  1.0000
  Br  Br6       1.0  0.7547406711390136  0.2452593329612455  0.7547406768630726  1.0000
