data_image0
_chemical_formula_structural       Ga2MoCl6
_chemical_formula_sum              "Ga2 Mo1 Cl6"
_cell_length_a       6.8981620379663395
_cell_length_b       6.898162034763031
_cell_length_c       6.898161985172669
_cell_angle_alpha    60.00000041994022
_cell_angle_beta     60.00000019339937
_cell_angle_gamma    59.999999797670654

_space_group_name_H-M_alt    "P 1"
_space_group_IT_number       1

loop_
  _space_group_symop_operation_xyz
  'x, y, z'

loop_
  _atom_site_type_symbol
  _atom_site_label
  _atom_site_symmetry_multiplicity
  _atom_site_fract_x
  _atom_site_fract_y
  _atom_site_fract_z
  _atom_site_occupancy
  Ga  Ga1       1.0  0.24999994751119214  0.2500000384398794  0.24999999963241418  1.0000
  Ga  Ga2       1.0  0.7500000205644303  0.7499999377730878  0.7499999899571214  1.0000
  Mo  Mo1       1.0  0.9999999994081782  1.7754654625477656e-09  0.9999999834619014  1.0000
  Cl  Cl1       1.0  0.24158600651530115  0.24158596127696758  0.758413992382827  1.0000
  Cl  Cl2       1.0  0.7584140332518929  0.7584140007322754  0.24158599165736921  1.0000
  Cl  Cl3       1.0  0.7584139904657942  0.2415859829821049  0.24158599240011525  1.0000
  Cl  Cl4       1.0  0.24158599000324343  0.7584140163119139  0.7584140388883093  1.0000
  Cl  Cl5       1.0  0.24158597158516454  0.7584140524128671  0.24158596951956346  1.0000
  Cl  Cl6       1.0  0.7584140446106964  0.24158597528859937  0.7584140485473254  1.0000
