data_image0
_chemical_formula_structural       Ga2MoF6
_chemical_formula_sum              "Ga2 Mo1 F6"
_cell_length_a       5.834976727486618
_cell_length_b       5.834977103946771
_cell_length_c       5.8349775769753505
_cell_angle_alpha    59.99999603776142
_cell_angle_beta     59.99999777984411
_cell_angle_gamma    59.99999661822494

_space_group_name_H-M_alt    "P 1"
_space_group_IT_number       1

loop_
  _space_group_symop_operation_xyz
  'x, y, z'

loop_
  _atom_site_type_symbol
  _atom_site_label
  _atom_site_symmetry_multiplicity
  _atom_site_fract_x
  _atom_site_fract_y
  _atom_site_fract_z
  _atom_site_occupancy
  Ga  Ga1       1.0  0.24999995472147513  0.24999986565385834  0.24999992803144303  1.0000
  Ga  Ga2       1.0  0.7500000714682977  0.7499998299473712  0.7499999067100257  1.0000
  Mo  Mo1       1.0  0.9999999693180645  0.999999913942181  0.9999999812487586  1.0000
  F   F1        1.0  0.24279456484180412  0.24279468144413277  0.7572055357447957  1.0000
  F   F2        1.0  0.7572051608249614  0.7572053457945472  0.24279491754642066  1.0000
  F   F3        1.0  0.7572055457990505  0.24279469225951889  0.24279447714331343  1.0000
  F   F4        1.0  0.24279480139210136  0.7572052929997326  0.7572052219349201  1.0000
  F   F5        1.0  0.24279454023384595  0.7572055196079959  0.24279463515821115  1.0000
  F   F6        1.0  0.7572052890504098  0.24279488544551567  0.7572052655047613  1.0000
