data_image0
_chemical_formula_structural       Ga2MnO6
_chemical_formula_sum              "Ga2 Mn1 O6"
_cell_length_a       5.238643601427434
_cell_length_b       5.238642789230334
_cell_length_c       5.238643216012118
_cell_angle_alpha    60.00000123066596
_cell_angle_beta     60.00000371218387
_cell_angle_gamma    60.000005651213115

_space_group_name_H-M_alt    "P 1"
_space_group_IT_number       1

loop_
  _space_group_symop_operation_xyz
  'x, y, z'

loop_
  _atom_site_type_symbol
  _atom_site_label
  _atom_site_symmetry_multiplicity
  _atom_site_fract_x
  _atom_site_fract_y
  _atom_site_fract_z
  _atom_site_occupancy
  Ga  Ga1       1.0  0.2499999179686459  0.25000001181612846  0.25000006059178387  1.0000
  Ga  Ga2       1.0  0.7500001596349078  0.7499999886903161  0.7499999049364517  1.0000
  Mn  Mn1       1.0  0.9999989388601719  4.7225669710279206e-07  2.0281479104904193e-07  1.0000
  O   O1        1.0  0.25120031439440627  0.2512004570593209  0.7487995619206024  1.0000
  O   O2        1.0  0.7487999941530614  0.7487999549183981  0.2512000404044468  1.0000
  O   O3        1.0  0.7487999967773574  0.25120002600413205  0.25120001019379457  1.0000
  O   O4        1.0  0.2512002837080516  0.7487995840721935  0.7487995203456977  1.0000
  O   O5        1.0  0.2512003525211428  0.7487994708159166  0.251200581822569  1.0000
  O   O6        1.0  0.7488001185300114  0.25119997093131013  0.7487998710463997  1.0000
