data_image0
_chemical_formula_structural       Ga2MgI6
_chemical_formula_sum              "Ga2 Mg1 I6"
_cell_length_a       7.804100107766572
_cell_length_b       7.804100222681451
_cell_length_c       7.804100099349933
_cell_angle_alpha    60.00000031516467
_cell_angle_beta     60.0000008690072
_cell_angle_gamma    60.000000449044485

_space_group_name_H-M_alt    "P 1"
_space_group_IT_number       1

loop_
  _space_group_symop_operation_xyz
  'x, y, z'

loop_
  _atom_site_type_symbol
  _atom_site_label
  _atom_site_symmetry_multiplicity
  _atom_site_fract_x
  _atom_site_fract_y
  _atom_site_fract_z
  _atom_site_occupancy
  Ga  Ga1       1.0  0.25000000246775705  0.2499999917080033  0.25000000157323865  1.0000
  Ga  Ga2       1.0  0.7499999960741323  0.750000000233782  0.7500000106431766  1.0000
  Mg  Mg1       1.0  2.61560140829598e-09  0.9999999921531961  1.5429378474491873e-08  1.0000
  I   I1        1.0  0.25953879292566084  0.2595388241664136  0.7404611927645941  1.0000
  I   I2        1.0  0.7404611790576464  0.7404611897464225  0.2595387897111433  1.0000
  I   I3        1.0  0.7404611764003445  0.2595388328079454  0.2595388182908926  1.0000
  I   I4        1.0  0.2595388121125063  0.7404611936597767  0.7404611663005406  1.0000
  I   I5        1.0  0.2595388394895292  0.7404611837511422  0.2595387959589355  1.0000
  I   I6        1.0  0.7404611962220544  0.2595387987744785  0.7404611998179594  1.0000
