data_image0
_chemical_formula_structural       Ga2MoI6
_chemical_formula_sum              "Ga2 Mo1 I6"
_cell_length_a       7.777918031232937
_cell_length_b       7.7779179669082525
_cell_length_c       7.77791798249303
_cell_angle_alpha    60.00000059997492
_cell_angle_beta     60.00000023909022
_cell_angle_gamma    59.999999977022284

_space_group_name_H-M_alt    "P 1"
_space_group_IT_number       1

loop_
  _space_group_symop_operation_xyz
  'x, y, z'

loop_
  _atom_site_type_symbol
  _atom_site_label
  _atom_site_symmetry_multiplicity
  _atom_site_fract_x
  _atom_site_fract_y
  _atom_site_fract_z
  _atom_site_occupancy
  Ga  Ga1       1.0  0.24999999380543433  0.2500000040202156  0.25000001767409263  1.0000
  Ga  Ga2       1.0  0.7500000245748674  0.7499999805677747  0.7500000034759339  1.0000
  Mo  Mo1       1.0  0.9999999678175875  7.873217829666166e-08  0.9999998147280377  1.0000
  I   I1        1.0  0.2515795533117924  0.25157961459747497  0.7484203733385629  1.0000
  I   I2        1.0  0.7484203619269315  0.7484203810130201  0.25157961544384244  1.0000
  I   I3        1.0  0.7484204019490344  0.25157959100762534  0.25157958232534877  1.0000
  I   I4        1.0  0.25157948335600977  0.7484205211264958  0.7484204300180218  1.0000
  I   I5        1.0  0.2515796554282313  0.7484203473721185  0.2515796620700505  1.0000
  I   I6        1.0  0.7484205625044779  0.2515794750275828  0.7484204972522313  1.0000
