data_image0
_chemical_formula_structural       Ga2MgCl6
_chemical_formula_sum              "Ga2 Mg1 Cl6"
_cell_length_a       6.930846222617574
_cell_length_b       6.9308462489011875
_cell_length_c       6.93084613436746
_cell_angle_alpha    60.00000205910619
_cell_angle_beta     60.00000123527023
_cell_angle_gamma    59.999998405836486

_space_group_name_H-M_alt    "P 1"
_space_group_IT_number       1

loop_
  _space_group_symop_operation_xyz
  'x, y, z'

loop_
  _atom_site_type_symbol
  _atom_site_label
  _atom_site_symmetry_multiplicity
  _atom_site_fract_x
  _atom_site_fract_y
  _atom_site_fract_z
  _atom_site_occupancy
  Ga  Ga1       1.0  0.24999980754753423  0.25000030236738463  0.2500002470665624  1.0000
  Ga  Ga2       1.0  0.7500001777510745  0.749999371498462  0.7500000752991809  1.0000
  Mg  Mg1       1.0  3.6771086030090825e-08  0.999999964658141  0.9999998896306652  1.0000
  Cl  Cl1       1.0  0.25037127894608296  0.2503714837005133  0.7496283872682377  1.0000
  Cl  Cl2       1.0  0.7496286193750816  0.749628616034699  0.2503714568869398  1.0000
  Cl  Cl3       1.0  0.7496287560643201  0.25037150269475417  0.25037114722569037  1.0000
  Cl  Cl4       1.0  0.2503713231121215  0.74962869423056  0.7496287844303685  1.0000
  Cl  Cl5       1.0  0.25037129184314294  0.749628545838866  0.2503713228858735  1.0000
  Cl  Cl6       1.0  0.7496287210646012  0.2503715150203038  0.7496286911808757  1.0000
