data_image0
_chemical_formula_structural       Ga2NiS6
_chemical_formula_sum              "Ga2 Ni1 S6"
_cell_length_a       6.251728429509121
_cell_length_b       6.251728370950215
_cell_length_c       6.25172852314705
_cell_angle_alpha    59.99999804099992
_cell_angle_beta     59.99999974655186
_cell_angle_gamma    59.99999815873741

_space_group_name_H-M_alt    "P 1"
_space_group_IT_number       1

loop_
  _space_group_symop_operation_xyz
  'x, y, z'

loop_
  _atom_site_type_symbol
  _atom_site_label
  _atom_site_symmetry_multiplicity
  _atom_site_fract_x
  _atom_site_fract_y
  _atom_site_fract_z
  _atom_site_occupancy
  Ga  Ga1       1.0  0.25000004085117733  0.2500000582545206  0.24999993247740507  1.0000
  Ga  Ga2       1.0  0.7500000650946649  0.7499999592680517  0.7499999770974615  1.0000
  Ni  Ni1       1.0  6.673566631942879e-08  0.9999999549418481  0.999999939574957  1.0000
  S   S1        1.0  0.24403908057350673  0.2440390752389842  0.7559609311058644  1.0000
  S   S2        1.0  0.7559609767355042  0.7559608776349349  0.24403908629758872  1.0000
  S   S3        1.0  0.7559608744003931  0.24403905733235431  0.24403925754514819  1.0000
  S   S4        1.0  0.24403893294438603  0.7559610248388715  0.755960895370974  1.0000
  S   S5        1.0  0.24403898621345257  0.7559608889915076  0.24403922442477619  1.0000
  S   S6        1.0  0.7559609751246266  0.2440391246129654  0.7559607802072704  1.0000
