data_image0
_chemical_formula_structural       Ga2NbO6
_chemical_formula_sum              "Ga2 Nb1 O6"
_cell_length_a       5.5017559647508465
_cell_length_b       5.501759094951594
_cell_length_c       5.501763617950375
_cell_angle_alpha    60.00001033981746
_cell_angle_beta     59.99999511931557
_cell_angle_gamma    59.99996975851266

_space_group_name_H-M_alt    "P 1"
_space_group_IT_number       1

loop_
  _space_group_symop_operation_xyz
  'x, y, z'

loop_
  _atom_site_type_symbol
  _atom_site_label
  _atom_site_symmetry_multiplicity
  _atom_site_fract_x
  _atom_site_fract_y
  _atom_site_fract_z
  _atom_site_occupancy
  Ga  Ga1       1.0  0.24995890068166243  0.25000220878797347  0.25003583250468087  1.0000
  Ga  Ga2       1.0  0.7500209742184604  0.7500165947359494  0.7499655453505645  1.0000
  Nb  Nb1       1.0  0.9999978801958969  1.7630697680926653e-06  3.1650453198823364e-07  1.0000
  O   O1        1.0  0.25398016226246134  0.2539802053973839  0.7460136804701397  1.0000
  O   O2        1.0  0.7460292161568899  0.7460105515178006  0.25398580385012354  1.0000
  O   O3        1.0  0.7460308875197925  0.253967316035557  0.25399208730415207  1.0000
  O   O4        1.0  0.253975407741841  0.7460271495596911  0.7460116773276821  1.0000
  O   O5        1.0  0.25396808330606824  0.7460180744534793  0.2539930965959885  1.0000
  O   O6        1.0  0.746038469132429  0.2539761484947653  0.7460020598925017  1.0000
