data_image0
_chemical_formula_structural       Ga2NiCl6
_chemical_formula_sum              "Ga2 Ni1 Cl6"
_cell_length_a       6.790136604858486
_cell_length_b       6.790136725347603
_cell_length_c       6.79013678998113
_cell_angle_alpha    59.99999908125021
_cell_angle_beta     59.999999866104
_cell_angle_gamma    59.99999917591969

_space_group_name_H-M_alt    "P 1"
_space_group_IT_number       1

loop_
  _space_group_symop_operation_xyz
  'x, y, z'

loop_
  _atom_site_type_symbol
  _atom_site_label
  _atom_site_symmetry_multiplicity
  _atom_site_fract_x
  _atom_site_fract_y
  _atom_site_fract_z
  _atom_site_occupancy
  Ga  Ga1       1.0  0.25000022214539425  0.24999997517664158  0.24999996865937962  1.0000
  Ga  Ga2       1.0  0.7499999220408018  0.7499998425592033  0.7499993049540878  1.0000
  Ni  Ni1       1.0  0.9999999989684385  5.411135117975201e-08  0.9999998585876032  1.0000
  Cl  Cl1       1.0  0.24000376030895826  0.24000371012292415  0.7599962709753858  1.0000
  Cl  Cl2       1.0  0.7599961695687973  0.7599963475065641  0.24000400897074928  1.0000
  Cl  Cl3       1.0  0.7599962172077422  0.24000363134927855  0.24000387946337987  1.0000
  Cl  Cl4       1.0  0.24000374078961004  0.7599964082430926  0.7599964116414839  1.0000
  Cl  Cl5       1.0  0.24000361846281862  0.7599961968663891  0.2400038715407384  1.0000
  Cl  Cl6       1.0  0.7599963160185232  0.24000385715567563  0.7599964270527323  1.0000
