data_image0
_chemical_formula_structural       Ga2NCl6
_chemical_formula_sum              "Ga2 N1 Cl6"
_cell_length_a       6.627864007572696
_cell_length_b       6.627863688091642
_cell_length_c       6.62786400076511
_cell_angle_alpha    59.99999804478895
_cell_angle_beta     60.00000234912461
_cell_angle_gamma    59.99999956191599

_space_group_name_H-M_alt    "P 1"
_space_group_IT_number       1

loop_
  _space_group_symop_operation_xyz
  'x, y, z'

loop_
  _atom_site_type_symbol
  _atom_site_label
  _atom_site_symmetry_multiplicity
  _atom_site_fract_x
  _atom_site_fract_y
  _atom_site_fract_z
  _atom_site_occupancy
  Ga  Ga1       1.0  0.24999997857754716  0.24999998632282527  0.2500000437523518  1.0000
  Ga  Ga2       1.0  0.7500000123890439  0.7499999589684776  0.7500000310688044  1.0000
  N   N1        1.0  8.871034661061427e-09  0.9999999002148691  2.2825322914350207e-08  1.0000
  Cl  Cl1       1.0  0.23022636924235512  0.23022637677684799  0.7697736543570024  1.0000
  Cl  Cl2       1.0  0.7697736361357739  0.7697736350378761  0.23022636792642046  1.0000
  Cl  Cl3       1.0  0.7697736163526703  0.2302264397138489  0.23022634718470295  1.0000
  Cl  Cl4       1.0  0.23022638460807351  0.7697735905796035  0.7697736529802314  1.0000
  Cl  Cl5       1.0  0.2302263477855553  0.7697736476062073  0.23022637401642643  1.0000
  Cl  Cl6       1.0  0.7697736455541996  0.23022644736279374  0.7697735402875227  1.0000
