data_image0
_chemical_formula_structural       Ga2NF6
_chemical_formula_sum              "Ga2 N1 F6"
_cell_length_a       5.3322806877248174
_cell_length_b       5.332279387320617
_cell_length_c       5.332280154408132
_cell_angle_alpha    59.99999471468669
_cell_angle_beta     59.99999524605551
_cell_angle_gamma    59.999997610601625

_space_group_name_H-M_alt    "P 1"
_space_group_IT_number       1

loop_
  _space_group_symop_operation_xyz
  'x, y, z'

loop_
  _atom_site_type_symbol
  _atom_site_label
  _atom_site_symmetry_multiplicity
  _atom_site_fract_x
  _atom_site_fract_y
  _atom_site_fract_z
  _atom_site_occupancy
  Ga  Ga1       1.0  0.24999805990254795  0.25000080502570865  0.24999702426086498  1.0000
  Ga  Ga2       1.0  0.7499994203289134  0.7499984323384623  0.7499947684449725  1.0000
  N   N1        1.0  4.385475275455151e-07  0.9999998277362633  1.4477952678567334e-06  1.0000
  F   F1        1.0  0.23302607091573424  0.2330261848460296  0.7669760072161343  1.0000
  F   F2        1.0  0.7669752713416529  0.7669733809683744  0.2330285563120037  1.0000
  F   F3        1.0  0.7669758272515669  0.23302444506913136  0.23302703845806708  1.0000
  F   F4        1.0  0.23302817514215687  0.7669728767222529  0.7669747458805349  1.0000
  F   F5        1.0  0.23302410007068955  0.7669754613800203  0.23302669103324283  1.0000
  F   F6        1.0  0.7669730593455737  0.2330285258715972  0.7669738355484657  1.0000
