data_image0
_chemical_formula_structural       Ga2NiBr6
_chemical_formula_sum              "Ga2 Ni1 Br6"
_cell_length_a       7.078735437405398
_cell_length_b       7.078735426307556
_cell_length_c       7.078735313655644
_cell_angle_alpha    59.999999269277836
_cell_angle_beta     59.99999987444645
_cell_angle_gamma    59.9999988740916

_space_group_name_H-M_alt    "P 1"
_space_group_IT_number       1

loop_
  _space_group_symop_operation_xyz
  'x, y, z'

loop_
  _atom_site_type_symbol
  _atom_site_label
  _atom_site_symmetry_multiplicity
  _atom_site_fract_x
  _atom_site_fract_y
  _atom_site_fract_z
  _atom_site_occupancy
  Ga  Ga1       1.0  0.24999998297015713  0.24999998486331715  0.25000001706435876  1.0000
  Ga  Ga2       1.0  0.7499999620902565  0.7500000618607817  0.7500000135706747  1.0000
  Ni  Ni1       1.0  0.9999999936730034  0.9999999896189516  3.660765708120836e-08  1.0000
  Br  Br1       1.0  0.24176209566397253  0.24176208455661596  0.7582379255678349  1.0000
  Br  Br2       1.0  0.7582378980702749  0.7582379189131156  0.24176207975455805  1.0000
  Br  Br3       1.0  0.7582379489141342  0.24176205914901808  0.2417620809358082  1.0000
  Br  Br4       1.0  0.2417620850239964  0.7582379460508882  0.7582378723405577  1.0000
  Br  Br5       1.0  0.24176210043390423  0.7582379157040902  0.24176207897672863  1.0000
  Br  Br6       1.0  0.7582379162534116  0.24176205316214797  0.7582378996791975  1.0000
