data_image0
_chemical_formula_structural       Ga2NiTe6
_chemical_formula_sum              "Ga2 Ni1 Te6"
_cell_length_a       6.982809079550408
_cell_length_b       6.982809018301431
_cell_length_c       6.982808973087522
_cell_angle_alpha    60.000000592362554
_cell_angle_beta     60.00000042065029
_cell_angle_gamma    59.99999935100994

_space_group_name_H-M_alt    "P 1"
_space_group_IT_number       1

loop_
  _space_group_symop_operation_xyz
  'x, y, z'

loop_
  _atom_site_type_symbol
  _atom_site_label
  _atom_site_symmetry_multiplicity
  _atom_site_fract_x
  _atom_site_fract_y
  _atom_site_fract_z
  _atom_site_occupancy
  Ga  Ga1       1.0  0.2500000131791267  0.2500000025110611  0.25000000609503487  1.0000
  Ga  Ga2       1.0  0.7499999842997359  0.7499999847319252  0.7500000028851949  1.0000
  Ni  Ni1       1.0  4.538173289320613e-08  7.717348966951948e-08  0.9999999487470079  1.0000
  Te  Te1       1.0  0.25870758896525675  0.25870760712570895  0.7412923949276619  1.0000
  Te  Te2       1.0  0.7412923286720818  0.7412923467923619  0.2587076749320528  1.0000
  Te  Te3       1.0  0.7412923814795996  0.258707618793783  0.2587075675924971  1.0000
  Te  Te4       1.0  0.25870762172821926  0.7412923859886323  0.7412924082722133  1.0000
  Te  Te5       1.0  0.25870763815965886  0.7412923627198331  0.25870762052911944  1.0000
  Te  Te6       1.0  0.7412923997916692  0.25870761224555205  0.7412923757857665  1.0000
