data_image0
_chemical_formula_structural       Ga2NiO6
_chemical_formula_sum              "Ga2 Ni1 O6"
_cell_length_a       5.068781116759239
_cell_length_b       5.068781237416426
_cell_length_c       5.068781249179201
_cell_angle_alpha    59.9999997310576
_cell_angle_beta     60.00000037840004
_cell_angle_gamma    60.00000217504981

_space_group_name_H-M_alt    "P 1"
_space_group_IT_number       1

loop_
  _space_group_symop_operation_xyz
  'x, y, z'

loop_
  _atom_site_type_symbol
  _atom_site_label
  _atom_site_symmetry_multiplicity
  _atom_site_fract_x
  _atom_site_fract_y
  _atom_site_fract_z
  _atom_site_occupancy
  Ga  Ga1       1.0  0.250000322778255  0.2499994015855767  0.2500002020288041  1.0000
  Ga  Ga2       1.0  0.7500015085785713  0.7499997004162308  0.749998090733389  1.0000
  Ni  Ni1       1.0  0.9999999485007282  7.24875340759865e-08  1.5153059154884543e-08  1.0000
  O   O1        1.0  0.25020007148652307  0.2502011140498436  0.7497993718956134  1.0000
  O   O2        1.0  0.7497991949754205  0.7497994908601293  0.2502013931549724  1.0000
  O   O3        1.0  0.7497993178386319  0.25020047628853687  0.25020087249313067  1.0000
  O   O4        1.0  0.2502003647116289  0.749799652619967  0.7497993168457597  1.0000
  O   O5        1.0  0.2501999858291178  0.7497994651703601  0.2502012674915337  1.0000
  O   O6        1.0  0.749799298498306  0.25020060091560237  0.7497994877563839  1.0000
