data_image0
_chemical_formula_structural       Ga2NO6
_chemical_formula_sum              "Ga2 N1 O6"
_cell_length_a       4.844252506535949
_cell_length_b       4.84425379943509
_cell_length_c       4.844253340208462
_cell_angle_alpha    60.00000279393631
_cell_angle_beta     59.999998967216
_cell_angle_gamma    60.00000393952935

_space_group_name_H-M_alt    "P 1"
_space_group_IT_number       1

loop_
  _space_group_symop_operation_xyz
  'x, y, z'

loop_
  _atom_site_type_symbol
  _atom_site_label
  _atom_site_symmetry_multiplicity
  _atom_site_fract_x
  _atom_site_fract_y
  _atom_site_fract_z
  _atom_site_occupancy
  Ga  Ga1       1.0  0.25000119815855654  0.24999933080351944  0.2499998468711056  1.0000
  Ga  Ga2       1.0  0.7500005792145078  0.7500003234501318  0.7499999673603651  1.0000
  N   N1        1.0  1.7842930616948583e-06  0.999998680257461  0.9999978128311743  1.0000
  O   O1        1.0  0.23595800946608622  0.23595854145429715  0.7640416393034888  1.0000
  O   O2        1.0  0.7640412820896556  0.7640415122617189  0.2359585905576809  1.0000
  O   O3        1.0  0.7640402305468021  0.23595915384345423  0.23595944062005964  1.0000
  O   O4        1.0  0.23595732245532267  0.7640426544728101  0.7640421415924937  1.0000
  O   O5        1.0  0.23595847418360022  0.7640417278411686  0.23595841319230357  1.0000
  O   O6        1.0  0.7640411089253014  0.23595824497107684  0.7640420498896471  1.0000
