data_image0
_chemical_formula_structural       Ga2NbS6
_chemical_formula_sum              "Ga2 Nb1 S6"
_cell_length_a       6.480237311302698
_cell_length_b       6.480237220272625
_cell_length_c       6.480237320835944
_cell_angle_alpha    59.99999927682721
_cell_angle_beta     59.99999975164547
_cell_angle_gamma    59.99999937610747

_space_group_name_H-M_alt    "P 1"
_space_group_IT_number       1

loop_
  _space_group_symop_operation_xyz
  'x, y, z'

loop_
  _atom_site_type_symbol
  _atom_site_label
  _atom_site_symmetry_multiplicity
  _atom_site_fract_x
  _atom_site_fract_y
  _atom_site_fract_z
  _atom_site_occupancy
  Ga  Ga1       1.0  0.25000003723323655  0.24999994237152504  0.25000005565399086  1.0000
  Ga  Ga2       1.0  0.7500000264720076  0.7500000293412808  0.750000046736336  1.0000
  Nb  Nb1       1.0  1.0780824030382656e-08  2.6459569066824194e-08  0.999999919653669  1.0000
  S   S1        1.0  0.2577372021960166  0.25773724682732435  0.7422628054247219  1.0000
  S   S2        1.0  0.7422627347239314  0.7422628326137267  0.25773722007754224  1.0000
  S   S3        1.0  0.7422627328487583  0.2577372416136336  0.2577372416669161  1.0000
  S   S4        1.0  0.25773715671705355  0.7422627981380641  0.7422627887782589  1.0000
  S   S5        1.0  0.2577372395413808  0.7422627289961038  0.25773717669350643  1.0000
  S   S6        1.0  0.7422628471677618  0.25773715766808797  0.7422627499366281  1.0000
