data_image0
_chemical_formula_structural       Ga2NbTe6
_chemical_formula_sum              "Ga2 Nb1 Te6"
_cell_length_a       7.309340313645646
_cell_length_b       7.309340248623026
_cell_length_c       7.309340266638774
_cell_angle_alpha    60.00000025607514
_cell_angle_beta     60.000000182776105
_cell_angle_gamma    59.99999983175111

_space_group_name_H-M_alt    "P 1"
_space_group_IT_number       1

loop_
  _space_group_symop_operation_xyz
  'x, y, z'

loop_
  _atom_site_type_symbol
  _atom_site_label
  _atom_site_symmetry_multiplicity
  _atom_site_fract_x
  _atom_site_fract_y
  _atom_site_fract_z
  _atom_site_occupancy
  Ga  Ga1       1.0  0.24999999123757954  0.2499999994880905  0.2499999924512821  1.0000
  Ga  Ga2       1.0  0.7500000072545766  0.7500000068422156  0.7500000042778937  1.0000
  Nb  Nb1       1.0  2.7335067229765397e-08  0.9999999748661679  0.9999999988993824  1.0000
  Te  Te1       1.0  0.2645221855897162  0.26452220226947454  0.7354778262988576  1.0000
  Te  Te2       1.0  0.7354777960836067  0.735477802385243  0.26452222208901766  1.0000
  Te  Te3       1.0  0.735477814975157  0.26452215179058286  0.2645221937035259  1.0000
  Te  Te4       1.0  0.2645221696030842  0.7354778109744144  0.7354778235565868  1.0000
  Te  Te5       1.0  0.26452218920871534  0.7354778426304213  0.2645221652113273  1.0000
  Te  Te6       1.0  0.7354778142773238  0.26452220558960493  0.735477776609459  1.0000
