data_image0
_chemical_formula_structural       Ga2OsO6
_chemical_formula_sum              "Ga2 Os1 O6"
_cell_length_a       5.441119863033183
_cell_length_b       5.44111993539609
_cell_length_c       5.4411198314579785
_cell_angle_alpha    60.000001118786656
_cell_angle_beta     60.00000022540957
_cell_angle_gamma    59.99999939316592

_space_group_name_H-M_alt    "P 1"
_space_group_IT_number       1

loop_
  _space_group_symop_operation_xyz
  'x, y, z'

loop_
  _atom_site_type_symbol
  _atom_site_label
  _atom_site_symmetry_multiplicity
  _atom_site_fract_x
  _atom_site_fract_y
  _atom_site_fract_z
  _atom_site_occupancy
  Ga  Ga1       1.0  0.24999968420138755  0.2500004836058628  0.24999996748656747  1.0000
  Ga  Ga2       1.0  0.7500006990152696  0.7499995420494128  0.7499997340675442  1.0000
  Os  Os1       1.0  3.309784445670339e-08  0.9999999707382236  0.9999999833791101  1.0000
  O   O1        1.0  0.24131354500719154  0.24131419355909442  0.7586861019921358  1.0000
  O   O2        1.0  0.7586861991112389  0.7586859603978247  0.24131398728596973  1.0000
  O   O3        1.0  0.7586861774466094  0.24131392946115604  0.241313797521176  1.0000
  O   O4        1.0  0.24131381857071157  0.7586860354196685  0.7586861905069658  1.0000
  O   O5        1.0  0.24131367866342834  0.7586859898622306  0.2413141397837608  1.0000
  O   O6        1.0  0.7586861874525878  0.24131388723326935  0.7586860894133973  1.0000
