data_image0
_chemical_formula_structural       Ga2OsSe6
_chemical_formula_sum              "Ga2 Os1 Se6"
_cell_length_a       6.640248794449183
_cell_length_b       6.640248826511698
_cell_length_c       6.640248867182014
_cell_angle_alpha    59.999998796621455
_cell_angle_beta     59.99999835504163
_cell_angle_gamma    60.00000077331126

_space_group_name_H-M_alt    "P 1"
_space_group_IT_number       1

loop_
  _space_group_symop_operation_xyz
  'x, y, z'

loop_
  _atom_site_type_symbol
  _atom_site_label
  _atom_site_symmetry_multiplicity
  _atom_site_fract_x
  _atom_site_fract_y
  _atom_site_fract_z
  _atom_site_occupancy
  Ga  Ga1       1.0  0.25000003288502637  0.24999998109176705  0.25000002279387495  1.0000
  Ga  Ga2       1.0  0.7500000078774639  0.750000022585626  0.7499999656855995  1.0000
  Os  Os1       1.0  0.9999999842440408  5.533278562290478e-09  0.9999999584263431  1.0000
  Se  Se1       1.0  0.26160536225777287  0.2616054229688814  0.7383946032965909  1.0000
  Se  Se2       1.0  0.7383945805603648  0.7383946710853925  0.2616054236038754  1.0000
  Se  Se3       1.0  0.7383945608872095  0.2616054053336952  0.26160542814571264  1.0000
  Se  Se4       1.0  0.26160541288233163  0.7383945854327134  0.7383946153454057  1.0000
  Se  Se5       1.0  0.26160541518498376  0.738394523976104  0.2616054441972039  1.0000
  Se  Se6       1.0  0.7383946046590142  0.261605391168832  0.7383946231032283  1.0000
