data_image0
_chemical_formula_structural       Ga2OsS6
_chemical_formula_sum              "Ga2 Os1 S6"
_cell_length_a       6.340688487807233
_cell_length_b       6.340688317627905
_cell_length_c       6.3406885562580095
_cell_angle_alpha    59.99999778042929
_cell_angle_beta     59.999997914900725
_cell_angle_gamma    59.999998442536324

_space_group_name_H-M_alt    "P 1"
_space_group_IT_number       1

loop_
  _space_group_symop_operation_xyz
  'x, y, z'

loop_
  _atom_site_type_symbol
  _atom_site_label
  _atom_site_symmetry_multiplicity
  _atom_site_fract_x
  _atom_site_fract_y
  _atom_site_fract_z
  _atom_site_occupancy
  Ga  Ga1       1.0  0.2499998241758474  0.25000013562601753  0.2499998086857347  1.0000
  Ga  Ga2       1.0  0.749999973704892  0.7499999413709872  0.7499997441477207  1.0000
  Os  Os1       1.0  0.9999998212201092  0.9999999845474874  0.9999990372943977  1.0000
  S   S1        1.0  0.2559985230749714  0.25599857824312183  0.7440017080806802  1.0000
  S   S2        1.0  0.7440015666609713  0.7440014099019086  0.25599874945102746  1.0000
  S   S3        1.0  0.7440015459275919  0.25599856965806633  0.2559988331645318  1.0000
  S   S4        1.0  0.255998625666177  0.7440013914450598  0.7440016884319295  1.0000
  S   S5        1.0  0.2559985923164249  0.7440013530874623  0.25599883902386567  1.0000
  S   S6        1.0  0.7440015059916125  0.25599863119443855  0.7440016729295272  1.0000
