data_image0
_chemical_formula_structural       Ga2PtS6
_chemical_formula_sum              "Ga2 Pt1 S6"
_cell_length_a       6.340268153635628
_cell_length_b       6.340268117988191
_cell_length_c       6.34026814705305
_cell_angle_alpha    59.9999989284825
_cell_angle_beta     59.99999819126729
_cell_angle_gamma    59.99999853655452

_space_group_name_H-M_alt    "P 1"
_space_group_IT_number       1

loop_
  _space_group_symop_operation_xyz
  'x, y, z'

loop_
  _atom_site_type_symbol
  _atom_site_label
  _atom_site_symmetry_multiplicity
  _atom_site_fract_x
  _atom_site_fract_y
  _atom_site_fract_z
  _atom_site_occupancy
  Ga  Ga1       1.0  0.24999997171859592  0.2500000752154482  0.25000002911367025  1.0000
  Ga  Ga2       1.0  0.7499999337752077  0.7500000769060166  0.7500000183377352  1.0000
  Pt  Pt1       1.0  3.1247076218292843e-10  1.545354049902245e-08  2.8393062503543794e-08  1.0000
  S   S1        1.0  0.25497067271305324  0.2549706371869931  0.7450293654262592  1.0000
  S   S2        1.0  0.7450292872374802  0.7450292696095141  0.25497071752488737  1.0000
  S   S3        1.0  0.7450293632907785  0.2549706988191186  0.2549706834234297  1.0000
  S   S4        1.0  0.25497073150239663  0.7450292678598578  0.7450292658890909  1.0000
  S   S5        1.0  0.25497073393049  0.7450292714888167  0.25497066629408044  1.0000
  S   S6        1.0  0.7450293385851326  0.25497068553169727  0.7450292280115317  1.0000
