data_image0
_chemical_formula_structural       Ga2PdSe6
_chemical_formula_sum              "Ga2 Pd1 Se6"
_cell_length_a       6.746883343172954
_cell_length_b       6.746883477500579
_cell_length_c       6.746883359305564
_cell_angle_alpha    60.00000041103572
_cell_angle_beta     60.00000084626592
_cell_angle_gamma    60.000000448205796

_space_group_name_H-M_alt    "P 1"
_space_group_IT_number       1

loop_
  _space_group_symop_operation_xyz
  'x, y, z'

loop_
  _atom_site_type_symbol
  _atom_site_label
  _atom_site_symmetry_multiplicity
  _atom_site_fract_x
  _atom_site_fract_y
  _atom_site_fract_z
  _atom_site_occupancy
  Ga  Ga1       1.0  0.24999999489281205  0.24999999483333282  0.2500000095827778  1.0000
  Ga  Ga2       1.0  0.7500000101070431  0.7500000571109965  0.750000041979496  1.0000
  Pd  Pd1       1.0  0.9999999664619436  2.3598574459641772e-08  3.0166559901982565e-08  1.0000
  Se  Se1       1.0  0.26275347555789336  0.2627533878719696  0.7372465446941843  1.0000
  Se  Se2       1.0  0.7372465856442357  0.7372466186904865  0.26275332656232137  1.0000
  Se  Se3       1.0  0.7372465620961914  0.2627533715926106  0.2627534480980993  1.0000
  Se  Se4       1.0  0.2627533341149051  0.7372466113712709  0.7372466375086411  1.0000
  Se  Se5       1.0  0.26275344611318985  0.73724662664356  0.2627533405518433  1.0000
  Se  Se6       1.0  0.7372466289200431  0.2627533127537222  0.7372466329621552  1.0000
