data_image0
_chemical_formula_structural       Ga2PI6
_chemical_formula_sum              "Ga2 P1 I6"
_cell_length_a       7.698984609744019
_cell_length_b       7.698984597505875
_cell_length_c       7.6989845961306935
_cell_angle_alpha    60.000000236037536
_cell_angle_beta     59.99999982681187
_cell_angle_gamma    60.000000658687746

_space_group_name_H-M_alt    "P 1"
_space_group_IT_number       1

loop_
  _space_group_symop_operation_xyz
  'x, y, z'

loop_
  _atom_site_type_symbol
  _atom_site_label
  _atom_site_symmetry_multiplicity
  _atom_site_fract_x
  _atom_site_fract_y
  _atom_site_fract_z
  _atom_site_occupancy
  Ga  Ga1       1.0  0.2500000010424423  0.24999999581186952  0.24999999662570924  1.0000
  Ga  Ga2       1.0  0.7499999998547733  0.7500000017526962  0.7500000064356946  1.0000
  P   P1        1.0  0.9999999870319826  0.9999999984092125  4.624557993080625e-08  1.0000
  I   I1        1.0  0.254785999237392  0.2547860186631916  0.7452139902504218  1.0000
  I   I2        1.0  0.7452140009476038  0.7452139900368868  0.2547859985072275  1.0000
  I   I3        1.0  0.7452139893973335  0.2547860020319107  0.2547860219488466  1.0000
  I   I4        1.0  0.2547860227107639  0.7452139843971424  0.745213961591784  1.0000
  I   I5        1.0  0.25478601577473853  0.7452139906423024  0.2547860174654722  1.0000
  I   I6        1.0  0.7452139835316897  0.25478601169462595  0.7452139619243103  1.0000
