data_image0
_chemical_formula_structural       Ga2PtSe6
_chemical_formula_sum              "Ga2 Pt1 Se6"
_cell_length_a       6.658879793641752
_cell_length_b       6.658879857919616
_cell_length_c       6.658879755307558
_cell_angle_alpha    60.00000043854654
_cell_angle_beta     60.000001529810575
_cell_angle_gamma    60.0000001933809

_space_group_name_H-M_alt    "P 1"
_space_group_IT_number       1

loop_
  _space_group_symop_operation_xyz
  'x, y, z'

loop_
  _atom_site_type_symbol
  _atom_site_label
  _atom_site_symmetry_multiplicity
  _atom_site_fract_x
  _atom_site_fract_y
  _atom_site_fract_z
  _atom_site_occupancy
  Ga  Ga1       1.0  0.24999999018889932  0.25000003578170843  0.2499999867595799  1.0000
  Ga  Ga2       1.0  0.7500000056359821  0.7499999657216734  0.750000013555824  1.0000
  Pt  Pt1       1.0  0.9999999736913354  0.9999999852858755  0.9999999814657875  1.0000
  Se  Se1       1.0  0.2595426294301978  0.2595426485502139  0.7404573506862026  1.0000
  Se  Se2       1.0  0.7404573782176491  0.7404573695065584  0.2595426399462859  1.0000
  Se  Se3       1.0  0.74045739272998  0.25954262732777544  0.25954261948743934  1.0000
  Se  Se4       1.0  0.25954260990797  0.7404574109609181  0.7404574010778895  1.0000
  Se  Se5       1.0  0.25954260279217456  0.7404573972297135  0.25954257932597485  1.0000
  Se  Se6       1.0  0.7404574180460998  0.2595425656490907  0.740457417282743  1.0000
