data_image0
_chemical_formula_structural       Ga2PS6
_chemical_formula_sum              "Ga2 P1 S6"
_cell_length_a       6.511078026239426
_cell_length_b       6.5110786245956485
_cell_length_c       6.5110786228577915
_cell_angle_alpha    59.999996689750894
_cell_angle_beta     59.9999981484165
_cell_angle_gamma    59.99999496315674

_space_group_name_H-M_alt    "P 1"
_space_group_IT_number       1

loop_
  _space_group_symop_operation_xyz
  'x, y, z'

loop_
  _atom_site_type_symbol
  _atom_site_label
  _atom_site_symmetry_multiplicity
  _atom_site_fract_x
  _atom_site_fract_y
  _atom_site_fract_z
  _atom_site_occupancy
  Ga  Ga1       1.0  0.2500001181625928  0.2499999369343822  0.24999998047644925  1.0000
  Ga  Ga2       1.0  0.749999987093554  0.7500001362190967  0.7499999716335366  1.0000
  P   P1        1.0  2.597459484967934e-08  1.8810130708862518e-09  4.597010601599879e-08  1.0000
  S   S1        1.0  0.23459480685665926  0.23459465502768884  0.7654051957126781  1.0000
  S   S2        1.0  0.7654051574555698  0.7654054312929203  0.23459471738416268  1.0000
  S   S3        1.0  0.7654052571870772  0.23459452005416867  0.2345947328174213  1.0000
  S   S4        1.0  0.2345946672335669  0.765405457167461  0.7654052271295149  1.0000
  S   S5        1.0  0.2345947846791196  0.7654053572395214  0.23459471980495233  1.0000
  S   S6        1.0  0.7654052228443071  0.23459450900209552  0.7654054568119892  1.0000
