data_image0
_chemical_formula_structural       Ga2PdO6
_chemical_formula_sum              "Ga2 Pd1 O6"
_cell_length_a       5.049427048692623
_cell_length_b       5.049427077822703
_cell_length_c       5.049426971813512
_cell_angle_alpha    59.999999106504106
_cell_angle_beta     60.0000000843501
_cell_angle_gamma    59.99999965171599

_space_group_name_H-M_alt    "P 1"
_space_group_IT_number       1

loop_
  _space_group_symop_operation_xyz
  'x, y, z'

loop_
  _atom_site_type_symbol
  _atom_site_label
  _atom_site_symmetry_multiplicity
  _atom_site_fract_x
  _atom_site_fract_y
  _atom_site_fract_z
  _atom_site_occupancy
  Ga  Ga1       1.0  0.24999946584787555  0.2499997889090548  0.25000100139452336  1.0000
  Ga  Ga2       1.0  0.7500000604714115  0.7500000240411075  0.7499995467723142  1.0000
  Pd  Pd1       1.0  3.5665301263684356e-08  0.9999999684683372  0.9999999662464172  1.0000
  O   O1        1.0  0.2657083848858144  0.2657087438131411  0.7342912609442085  1.0000
  O   O2        1.0  0.7342916085815895  0.7342913553475079  0.2657086788338619  1.0000
  O   O3        1.0  0.7342914850944974  0.26570835466804105  0.2657087285914493  1.0000
  O   O4        1.0  0.26570868616425963  0.7342918148324727  0.734291055434247  1.0000
  O   O5        1.0  0.265708530569359  0.7342914368688506  0.26570858535887587  1.0000
  O   O6        1.0  0.7342917388869566  0.26570849978245764  0.7342912244037688  1.0000
