data_image0
_chemical_formula_structural       Ga2PBr6
_chemical_formula_sum              "Ga2 P1 Br6"
_cell_length_a       7.211030380449962
_cell_length_b       7.211030552490983
_cell_length_c       7.211030592112052
_cell_angle_alpha    60.0000000545562
_cell_angle_beta     60.000000154336895
_cell_angle_gamma    59.99999989501075

_space_group_name_H-M_alt    "P 1"
_space_group_IT_number       1

loop_
  _space_group_symop_operation_xyz
  'x, y, z'

loop_
  _atom_site_type_symbol
  _atom_site_label
  _atom_site_symmetry_multiplicity
  _atom_site_fract_x
  _atom_site_fract_y
  _atom_site_fract_z
  _atom_site_occupancy
  Ga  Ga1       1.0  0.24999996273327266  0.25000001468099103  0.2500000157991863  1.0000
  Ga  Ga2       1.0  0.749999941270239  0.7499999761056725  0.750000063151585  1.0000
  P   P1        1.0  0.9999999473514505  0.9999999898094053  4.667397927952547e-08  1.0000
  Br  Br1       1.0  0.24446506406856672  0.2444649939310508  0.7555349635156099  1.0000
  Br  Br2       1.0  0.7555350293570662  0.7555350002524767  0.24446496771539036  1.0000
  Br  Br3       1.0  0.7555350158462225  0.24446501490961184  0.24446493604732278  1.0000
  Br  Br4       1.0  0.24446504480971065  0.7555349622895908  0.7555350117401033  1.0000
  Br  Br5       1.0  0.244465004147859  0.7555350140466671  0.24446498327076116  1.0000
  Br  Br6       1.0  0.7555349864866594  0.2444650242961063  0.7555350050114592  1.0000
