data_image0
_chemical_formula_structural       Ga2PO6
_chemical_formula_sum              "Ga2 P1 O6"
_cell_length_a       4.881688660028339
_cell_length_b       4.881688847706912
_cell_length_c       4.881688865780402
_cell_angle_alpha    59.99999854614572
_cell_angle_beta     59.999999339885896
_cell_angle_gamma    59.99999887451362

_space_group_name_H-M_alt    "P 1"
_space_group_IT_number       1

loop_
  _space_group_symop_operation_xyz
  'x, y, z'

loop_
  _atom_site_type_symbol
  _atom_site_label
  _atom_site_symmetry_multiplicity
  _atom_site_fract_x
  _atom_site_fract_y
  _atom_site_fract_z
  _atom_site_occupancy
  Ga  Ga1       1.0  0.24999932402896094  0.2500003349095468  0.2500000827744403  1.0000
  Ga  Ga2       1.0  0.749999314203972  0.7499998381111087  0.7500000581499915  1.0000
  P   P1        1.0  7.108000003251414e-08  3.512396794484531e-08  0.9999999264133022  1.0000
  O   O1        1.0  0.24345486947774894  0.24345447277654986  0.7565453798501048  1.0000
  O   O2        1.0  0.7565455650108729  0.756545278756455  0.24345474354046803  1.0000
  O   O3        1.0  0.7565455803497492  0.24345458739063308  0.24345461353440168  1.0000
  O   O4        1.0  0.24345483528553355  0.7565452845674063  0.7565454508764365  1.0000
  O   O5        1.0  0.2434548812347532  0.7565454191775186  0.24345446134717477  1.0000
  O   O6        1.0  0.756545600003525  0.24345481656448054  0.756545234734828  1.0000
