data_image0
_chemical_formula_structural       Ga2PCl6
_chemical_formula_sum              "Ga2 P1 Cl6"
_cell_length_a       6.879135779878104
_cell_length_b       6.879135492845664
_cell_length_c       6.8791356134834905
_cell_angle_alpha    59.99999950494451
_cell_angle_beta     60.000000003146724
_cell_angle_gamma    59.999998648045626

_space_group_name_H-M_alt    "P 1"
_space_group_IT_number       1

loop_
  _space_group_symop_operation_xyz
  'x, y, z'

loop_
  _atom_site_type_symbol
  _atom_site_label
  _atom_site_symmetry_multiplicity
  _atom_site_fract_x
  _atom_site_fract_y
  _atom_site_fract_z
  _atom_site_occupancy
  Ga  Ga1       1.0  0.2500000341414836  0.24999999458082856  0.24999999785040553  1.0000
  Ga  Ga2       1.0  0.7500000156981268  0.7500000424948995  0.7499999697427261  1.0000
  P   P1        1.0  0.9999999966428907  0.0  0.9999999958638707  1.0000
  Cl  Cl1       1.0  0.22923928013376818  0.22923931684942092  0.770760727388352  1.0000
  Cl  Cl2       1.0  0.7707607002247617  0.7707606668150224  0.22923931473400158  1.0000
  Cl  Cl3       1.0  0.7707606817718068  0.2292392758384834  0.229239364760709  1.0000
  Cl  Cl4       1.0  0.22923936852750135  0.7707606490735461  0.7707606456013837  1.0000
  Cl  Cl5       1.0  0.2292392984315508  0.7707606860888043  0.22923931421272575  1.0000
  Cl  Cl6       1.0  0.7707606147323821  0.22923938837482355  0.770760640516442  1.0000
