data_image0
_chemical_formula_structural       Ga2PF6
_chemical_formula_sum              "Ga2 P1 F6"
_cell_length_a       6.026987418815099
_cell_length_b       6.026986176890677
_cell_length_c       6.0269868250122585
_cell_angle_alpha    60.00000206157198
_cell_angle_beta     60.00000596873093
_cell_angle_gamma    59.99999904908164

_space_group_name_H-M_alt    "P 1"
_space_group_IT_number       1

loop_
  _space_group_symop_operation_xyz
  'x, y, z'

loop_
  _atom_site_type_symbol
  _atom_site_label
  _atom_site_symmetry_multiplicity
  _atom_site_fract_x
  _atom_site_fract_y
  _atom_site_fract_z
  _atom_site_occupancy
  Ga  Ga1       1.0  0.2500000222301996  0.2499999321381483  0.2500000514091724  1.0000
  Ga  Ga2       1.0  0.749999947301359  0.7500000626197625  0.7500000127921275  1.0000
  P   P1        1.0  0.9999999504125938  3.901635294734364e-07  0.9999999159905563  1.0000
  F   F1        1.0  0.19271835729633052  0.1927183668539423  0.8072816359497039  1.0000
  F   F2        1.0  0.8072816396586292  0.8072815628767136  0.19271843543909326  1.0000
  F   F3        1.0  0.8072816044740317  0.19271832904983083  0.1927182422160779  1.0000
  F   F4        1.0  0.19271847484740506  0.8072814340484785  0.8072817203180944  1.0000
  F   F5        1.0  0.19271842777565104  0.8072815881485774  0.19271822946101105  1.0000
  F   F6        1.0  0.8072816436463793  0.19271838832042237  0.807281865944481  1.0000
