data_image0
_chemical_formula_structural       Ga2PSe6
_chemical_formula_sum              "Ga2 P1 Se6"
_cell_length_a       6.507847483076867
_cell_length_b       6.507847523258227
_cell_length_c       6.50784747448302
_cell_angle_alpha    59.999999534417135
_cell_angle_beta     59.99999974023636
_cell_angle_gamma    60.00000053582593

_space_group_name_H-M_alt    "P 1"
_space_group_IT_number       1

loop_
  _space_group_symop_operation_xyz
  'x, y, z'

loop_
  _atom_site_type_symbol
  _atom_site_label
  _atom_site_symmetry_multiplicity
  _atom_site_fract_x
  _atom_site_fract_y
  _atom_site_fract_z
  _atom_site_occupancy
  Ga  Ga1       1.0  0.24999999965314942  0.24999993624875944  0.25000000596580335  1.0000
  Ga  Ga2       1.0  0.75000003963955  0.7500000326984215  0.749999904020563  1.0000
  P   P1        1.0  0.9999999833853349  3.3875114039899024e-08  0.9999999760037115  1.0000
  Se  Se1       1.0  0.24775083245137428  0.2477508152627105  0.752249175086575  1.0000
  Se  Se2       1.0  0.752249124576812  0.7522491875595831  0.24775084821766208  1.0000
  Se  Se3       1.0  0.7522491748774653  0.24775077590633984  0.2477508821933801  1.0000
  Se  Se4       1.0  0.24775079448179796  0.7522492005686428  0.75224918807074  1.0000
  Se  Se5       1.0  0.24775084371388353  0.7522491852512987  0.2477508799543843  1.0000
  Se  Se6       1.0  0.7522491826019556  0.24775084391830612  0.7522491477769876  1.0000
