data_image0
_chemical_formula_structural       Ga2ReSe6
_chemical_formula_sum              "Ga2 Re1 Se6"
_cell_length_a       6.717987252558308
_cell_length_b       6.717987151476977
_cell_length_c       6.717987386597234
_cell_angle_alpha    59.999998744008224
_cell_angle_beta     59.99999822050013
_cell_angle_gamma    59.99999914291492

_space_group_name_H-M_alt    "P 1"
_space_group_IT_number       1

loop_
  _space_group_symop_operation_xyz
  'x, y, z'

loop_
  _atom_site_type_symbol
  _atom_site_label
  _atom_site_symmetry_multiplicity
  _atom_site_fract_x
  _atom_site_fract_y
  _atom_site_fract_z
  _atom_site_occupancy
  Ga  Ga1       1.0  0.2500000123572445  0.2500000156570089  0.24999996533861601  1.0000
  Ga  Ga2       1.0  0.7499999853344065  0.7499999959247001  0.7499999771784963  1.0000
  Re  Re1       1.0  1.7813775147423352e-08  0.9999999671845042  2.536335277980291e-08  1.0000
  Se  Se1       1.0  0.2567784810804789  0.2567784845136507  0.7432215213004808  1.0000
  Se  Se2       1.0  0.7432214856903145  0.7432214960756454  0.2567785042722038  1.0000
  Se  Se3       1.0  0.7432214814310354  0.25677852013877384  0.25677851395586104  1.0000
  Se  Se4       1.0  0.25677851112204597  0.7432214604505225  0.7432215299850415  1.0000
  Se  Se5       1.0  0.25677849879757625  0.7432214881038517  0.2567785280215034  1.0000
  Se  Se6       1.0  0.7432215128352664  0.2567785435317718  0.743221489787601  1.0000
