data_image0
_chemical_formula_structural       Ga2RhI6
_chemical_formula_sum              "Ga2 Rh1 I6"
_cell_length_a       7.609140638567411
_cell_length_b       7.60914065404215
_cell_length_c       7.609140692520538
_cell_angle_alpha    59.99999969061027
_cell_angle_beta     59.99999944238633
_cell_angle_gamma    59.99999953453639

_space_group_name_H-M_alt    "P 1"
_space_group_IT_number       1

loop_
  _space_group_symop_operation_xyz
  'x, y, z'

loop_
  _atom_site_type_symbol
  _atom_site_label
  _atom_site_symmetry_multiplicity
  _atom_site_fract_x
  _atom_site_fract_y
  _atom_site_fract_z
  _atom_site_occupancy
  Ga  Ga1       1.0  0.24999999851518143  0.24999999965263436  0.2499999965860646  1.0000
  Ga  Ga2       1.0  0.7500000035776033  0.750000002177044  0.7500000091025618  1.0000
  Rh  Rh1       1.0  0.9999999862502881  4.82871171732859e-09  0.9999999821189498  1.0000
  I   I1        1.0  0.24885285191328446  0.24885286174433274  0.7511471380224666  1.0000
  I   I2        1.0  0.7511471608783831  0.7511471626193335  0.24885283002238287  1.0000
  I   I3        1.0  0.7511471461736524  0.2488528459242992  0.2488528658270858  1.0000
  I   I4        1.0  0.248852822886161  0.7511471639532321  0.7511471510398909  1.0000
  I   I5        1.0  0.2488528615207686  0.7511471303482615  0.24885287319949068  1.0000
  I   I6        1.0  0.7511471707698515  0.24885282641344125  0.7511471530662945  1.0000
