data_image0
_chemical_formula_structural       Ga2RuS6
_chemical_formula_sum              "Ga2 Ru1 S6"
_cell_length_a       6.27298072048022
_cell_length_b       6.2729805879578215
_cell_length_c       6.272980325639428
_cell_angle_alpha    60.000000664116044
_cell_angle_beta     59.9999995618785
_cell_angle_gamma    59.99999924254619

_space_group_name_H-M_alt    "P 1"
_space_group_IT_number       1

loop_
  _space_group_symop_operation_xyz
  'x, y, z'

loop_
  _atom_site_type_symbol
  _atom_site_label
  _atom_site_symmetry_multiplicity
  _atom_site_fract_x
  _atom_site_fract_y
  _atom_site_fract_z
  _atom_site_occupancy
  Ga  Ga1       1.0  0.2500000099092454  0.2500000233344364  0.24999999115537647  1.0000
  Ga  Ga2       1.0  0.7499999197642545  0.7500001734811974  0.7499998172950687  1.0000
  Ru  Ru1       1.0  4.631548012664253e-08  4.881032392870037e-08  0.9999999221484637  1.0000
  S   S1        1.0  0.2584748972467887  0.25847497228187594  0.7415250867031475  1.0000
  S   S2        1.0  0.741525047490996  0.741525013673157  0.2584750651427994  1.0000
  S   S3        1.0  0.7415250834425507  0.25847483748630884  0.2584750028863232  1.0000
  S   S4        1.0  0.2584749557319189  0.7415251191825287  0.7415250781250512  1.0000
  S   S5        1.0  0.25847497255566704  0.7415249232791734  0.2584749949080765  1.0000
  S   S6        1.0  0.7415250848988011  0.258474879149039  0.7415250648118508  1.0000
