data_image0
_chemical_formula_structural       Ga2ReO6
_chemical_formula_sum              "Ga2 Re1 O6"
_cell_length_a       5.592649881831759
_cell_length_b       5.592650625764391
_cell_length_c       5.592650115190464
_cell_angle_alpha    60.00000029806
_cell_angle_beta     60.00000201307535
_cell_angle_gamma    60.00000195442551

_space_group_name_H-M_alt    "P 1"
_space_group_IT_number       1

loop_
  _space_group_symop_operation_xyz
  'x, y, z'

loop_
  _atom_site_type_symbol
  _atom_site_label
  _atom_site_symmetry_multiplicity
  _atom_site_fract_x
  _atom_site_fract_y
  _atom_site_fract_z
  _atom_site_occupancy
  Ga  Ga1       1.0  0.2500010872289534  0.24999898288424136  0.2500009733204416  1.0000
  Ga  Ga2       1.0  0.749999121166498  0.7500013613384989  0.7499992113323852  1.0000
  Re  Re1       1.0  6.11672875225695e-08  7.664716129211196e-08  0.9999995269909717  1.0000
  O   O1        1.0  0.24120805172818036  0.24120669932496852  0.7587923815930617  1.0000
  O   O2        1.0  0.7587919493303961  0.7587932572822305  0.24120777153273762  1.0000
  O   O3        1.0  0.7587924399553994  0.24120720783536834  0.24120757790879155  1.0000
  O   O4        1.0  0.2412073889585058  0.7587930422209058  0.7587923411228706  1.0000
  O   O5        1.0  0.24120727694056007  0.7587921297333197  0.24120746534330595  1.0000
  O   O6        1.0  0.7587926525094343  0.24120732319265964  0.7587926839734467  1.0000
