data_image0
_chemical_formula_structural       Ga2RuSe6
_chemical_formula_sum              "Ga2 Ru1 Se6"
_cell_length_a       6.625047730943427
_cell_length_b       6.625047737973697
_cell_length_c       6.625047771760036
_cell_angle_alpha    59.99999930286084
_cell_angle_beta     59.999999160485906
_cell_angle_gamma    59.99999931308634

_space_group_name_H-M_alt    "P 1"
_space_group_IT_number       1

loop_
  _space_group_symop_operation_xyz
  'x, y, z'

loop_
  _atom_site_type_symbol
  _atom_site_label
  _atom_site_symmetry_multiplicity
  _atom_site_fract_x
  _atom_site_fract_y
  _atom_site_fract_z
  _atom_site_occupancy
  Ga  Ga1       1.0  0.2500000158588366  0.24999995203301828  0.2500000220235521  1.0000
  Ga  Ga2       1.0  0.7499999644050305  0.7500000742407223  0.7499999759442156  1.0000
  Ru  Ru1       1.0  9.755286639696714e-08  0.9999999112644063  0.9999999986102097  1.0000
  Se  Se1       1.0  0.2605477726817133  0.26054769324348515  0.7394522735359602  1.0000
  Se  Se2       1.0  0.7394522296421858  0.7394523034517243  0.26054772970048024  1.0000
  Se  Se3       1.0  0.7394522229668433  0.26054771881140243  0.2605477614680619  1.0000
  Se  Se4       1.0  0.2605477435650236  0.7394522963703891  0.7394522292891805  1.0000
  Se  Se5       1.0  0.2605476791942291  0.7394523313647052  0.2605477576544313  1.0000
  Se  Se6       1.0  0.7394522732703177  0.2605477207902501  0.7394522608948891  1.0000
