data_image0
_chemical_formula_structural       Ga2RhS6
_chemical_formula_sum              "Ga2 Rh1 S6"
_cell_length_a       6.299257661297035
_cell_length_b       6.299257751024648
_cell_length_c       6.299257810887219
_cell_angle_alpha    59.99999990516786
_cell_angle_beta     59.99999921414726
_cell_angle_gamma    60.00000026297165

_space_group_name_H-M_alt    "P 1"
_space_group_IT_number       1

loop_
  _space_group_symop_operation_xyz
  'x, y, z'

loop_
  _atom_site_type_symbol
  _atom_site_label
  _atom_site_symmetry_multiplicity
  _atom_site_fract_x
  _atom_site_fract_y
  _atom_site_fract_z
  _atom_site_occupancy
  Ga  Ga1       1.0  0.25000004106715923  0.24999992848960212  0.25000001953412315  1.0000
  Ga  Ga2       1.0  0.7500000501897522  0.7499999935055399  0.7499999244153444  1.0000
  Rh  Rh1       1.0  0.9999999928710154  2.1386953902526995e-08  0.9999999754086407  1.0000
  S   S1        1.0  0.25665142064282703  0.2566514493608136  0.743348528770322  1.0000
  S   S2        1.0  0.7433485499075508  0.743348554293607  0.25665143946523883  1.0000
  S   S3        1.0  0.743348541563234  0.2566514635000952  0.25665146431794306  1.0000
  S   S4        1.0  0.2566514032859525  0.743348606259456  0.7433485599151015  1.0000
  S   S5        1.0  0.2566514549634493  0.7433485117228071  0.2566515351146877  1.0000
  S   S6        1.0  0.7433485326214895  0.25665149582015084  0.7433485385459921  1.0000
