data_image0
_chemical_formula_structural       Ga2RhO6
_chemical_formula_sum              "Ga2 Rh1 O6"
_cell_length_a       5.383053114866409
_cell_length_b       5.38305281712211
_cell_length_c       5.383052714629389
_cell_angle_alpha    60.00000017769966
_cell_angle_beta     59.99999941107152
_cell_angle_gamma    59.9999966271051

_space_group_name_H-M_alt    "P 1"
_space_group_IT_number       1

loop_
  _space_group_symop_operation_xyz
  'x, y, z'

loop_
  _atom_site_type_symbol
  _atom_site_label
  _atom_site_symmetry_multiplicity
  _atom_site_fract_x
  _atom_site_fract_y
  _atom_site_fract_z
  _atom_site_occupancy
  Ga  Ga1       1.0  0.25000319778779334  0.2499991111417308  0.24999873724758573  1.0000
  Ga  Ga2       1.0  0.7500002036746602  0.7499996973441996  0.750002184198757  1.0000
  Rh  Rh1       1.0  1.1598602425676839e-07  0.9999999544962677  0.9999999796203073  1.0000
  O   O1        1.0  0.24857947473381178  0.24858009650992235  0.7514199561547347  1.0000
  O   O2        1.0  0.7514190816101202  0.751421194204548  0.24857882334364814  1.0000
  O   O3        1.0  0.7514197597692712  0.2485803107375768  0.24857938721564357  1.0000
  O   O4        1.0  0.24857923862610137  0.7514200334993177  0.7514201516429793  1.0000
  O   O5        1.0  0.24858043302342694  0.7514200553112649  0.24857908785342994  1.0000
  O   O6        1.0  0.7514185126453012  0.248579604094512  0.7514216148719628  1.0000
