data_image0
_chemical_formula_structural       Ga2RuO6
_chemical_formula_sum              "Ga2 Ru1 O6"
_cell_length_a       5.541295460332052
_cell_length_b       5.541295746259735
_cell_length_c       5.54129567895045
_cell_angle_alpha    59.99999641998602
_cell_angle_beta     59.99999438125853
_cell_angle_gamma    59.999995033195056

_space_group_name_H-M_alt    "P 1"
_space_group_IT_number       1

loop_
  _space_group_symop_operation_xyz
  'x, y, z'

loop_
  _atom_site_type_symbol
  _atom_site_label
  _atom_site_symmetry_multiplicity
  _atom_site_fract_x
  _atom_site_fract_y
  _atom_site_fract_z
  _atom_site_occupancy
  Ga  Ga1       1.0  0.24999790020330448  0.2500023209976764  0.25000018602227936  1.0000
  Ga  Ga2       1.0  0.749997332686272  0.7500010241479677  0.7500029692798165  1.0000
  Ru  Ru1       1.0  0.9999999791618985  0.9999999999999983  9.343212838582091e-08  1.0000
  O   O1        1.0  0.23654653643081272  0.23654518068052935  0.7634536539903247  1.0000
  O   O2        1.0  0.7634552796791078  0.7634531119158918  0.2365449372255993  1.0000
  O   O3        1.0  0.7634548067682876  0.23654611798029307  0.23654527874941433  1.0000
  O   O4        1.0  0.23654634022480772  0.7634536068347498  0.7634544847038194  1.0000
  O   O5        1.0  0.23654728794783061  0.7634535955075612  0.23654447058663627  1.0000
  O   O6        1.0  0.7634545188515436  0.23654511260908193  0.7634539842958251  1.0000
