data_image0
_chemical_formula_structural       Ga2RuCl6
_chemical_formula_sum              "Ga2 Ru1 Cl6"
_cell_length_a       6.857013304329405
_cell_length_b       6.857013054408164
_cell_length_c       6.85701298674701
_cell_angle_alpha    60.00000064844248
_cell_angle_beta     59.99999975510965
_cell_angle_gamma    59.99999942266197

_space_group_name_H-M_alt    "P 1"
_space_group_IT_number       1

loop_
  _space_group_symop_operation_xyz
  'x, y, z'

loop_
  _atom_site_type_symbol
  _atom_site_label
  _atom_site_symmetry_multiplicity
  _atom_site_fract_x
  _atom_site_fract_y
  _atom_site_fract_z
  _atom_site_occupancy
  Ga  Ga1       1.0  0.24999996925286494  0.2500000363241822  0.25000001730433297  1.0000
  Ga  Ga2       1.0  0.749999986073474  0.7500000053775815  0.7500000076769632  1.0000
  Ru  Ru1       1.0  0.9999999973295833  0.9999999928555195  0.9999999946989219  1.0000
  Cl  Cl1       1.0  0.24038280701722534  0.24038282086753726  0.759617186805552  1.0000
  Cl  Cl2       1.0  0.7596171842853864  0.7596171886840645  0.2403828012620253  1.0000
  Cl  Cl3       1.0  0.7596171774750146  0.24038280951394783  0.24038284286203734  1.0000
  Cl  Cl4       1.0  0.24038283505673794  0.7596171464540517  0.7596171817998237  1.0000
  Cl  Cl5       1.0  0.2403828409765794  0.7596171767943993  0.2403827963320257  1.0000
  Cl  Cl6       1.0  0.7596171998586897  0.24038282561272162  0.7596171355407999  1.0000
