data_image0
_chemical_formula_structural       Ga2RuI6
_chemical_formula_sum              "Ga2 Ru1 I6"
_cell_length_a       7.617006367149148
_cell_length_b       7.61700659557182
_cell_length_c       7.617006398247873
_cell_angle_alpha    60.00000072264693
_cell_angle_beta     60.000000400079415
_cell_angle_gamma    60.00000033647272

_space_group_name_H-M_alt    "P 1"
_space_group_IT_number       1

loop_
  _space_group_symop_operation_xyz
  'x, y, z'

loop_
  _atom_site_type_symbol
  _atom_site_label
  _atom_site_symmetry_multiplicity
  _atom_site_fract_x
  _atom_site_fract_y
  _atom_site_fract_z
  _atom_site_occupancy
  Ga  Ga1       1.0  0.25000000609319634  0.24999999577833923  0.24999999862371314  1.0000
  Ga  Ga2       1.0  0.7499999914207126  0.7500000178852766  0.7499999966511516  1.0000
  Ru  Ru1       1.0  0.9999999968603638  3.215816722587434e-08  0.9999999973064  1.0000
  I   I1        1.0  0.24969596935668908  0.24969593210506885  0.7503040528812505  1.0000
  I   I2        1.0  0.7503040512643102  0.7503040622636464  0.24969595099033337  1.0000
  I   I3        1.0  0.7503040541440896  0.24969591679477102  0.24969597152707498  1.0000
  I   I4        1.0  0.24969595954086102  0.7503040438078687  0.7503040356284983  1.0000
  I   I5        1.0  0.2496959377826021  0.7503040600535428  0.2496959529199906  1.0000
  I   I6        1.0  0.7503040327200694  0.2496959391388982  0.7503040434033041  1.0000
