data_image0
_chemical_formula_structural       Ga2RhCl6
_chemical_formula_sum              "Ga2 Rh1 Cl6"
_cell_length_a       6.8332421196984034
_cell_length_b       6.833242177234147
_cell_length_c       6.8332420840979
_cell_angle_alpha    60.00000027620775
_cell_angle_beta     60.00000081439445
_cell_angle_gamma    60.00000016725411

_space_group_name_H-M_alt    "P 1"
_space_group_IT_number       1

loop_
  _space_group_symop_operation_xyz
  'x, y, z'

loop_
  _atom_site_type_symbol
  _atom_site_label
  _atom_site_symmetry_multiplicity
  _atom_site_fract_x
  _atom_site_fract_y
  _atom_site_fract_z
  _atom_site_occupancy
  Ga  Ga1       1.0  0.2500000049354519  0.2500000362268675  0.25000001073417727  1.0000
  Ga  Ga2       1.0  0.7500000716485008  0.7499999635015911  0.7500000763709652  1.0000
  Rh  Rh1       1.0  0.9999999990101217  0.9999999928306661  1.5787079556729686e-08  1.0000
  Cl  Cl1       1.0  0.241993710385777  0.24199371268207118  0.7580062535987443  1.0000
  Cl  Cl2       1.0  0.7580062630161479  0.758006292423389  0.24199370240650725  1.0000
  Cl  Cl3       1.0  0.7580063069699288  0.24199373209644698  0.24199364036504206  1.0000
  Cl  Cl4       1.0  0.24199365897273348  0.758006280178347  0.7580062996873979  1.0000
  Cl  Cl5       1.0  0.24199373091864765  0.7580062824520013  0.24199368076001918  1.0000
  Cl  Cl6       1.0  0.7580062623687823  0.24199371369179126  0.7580063063691682  1.0000
