data_image0
_chemical_formula_structural       Ga2ReTe6
_chemical_formula_sum              "Ga2 Re1 Te6"
_cell_length_a       7.197708990134573
_cell_length_b       7.197709008036687
_cell_length_c       7.197709057134151
_cell_angle_alpha    59.99999963775033
_cell_angle_beta     60.00000008551793
_cell_angle_gamma    60.0000007061586

_space_group_name_H-M_alt    "P 1"
_space_group_IT_number       1

loop_
  _space_group_symop_operation_xyz
  'x, y, z'

loop_
  _atom_site_type_symbol
  _atom_site_label
  _atom_site_symmetry_multiplicity
  _atom_site_fract_x
  _atom_site_fract_y
  _atom_site_fract_z
  _atom_site_occupancy
  Ga  Ga1       1.0  0.2500000337387502  0.249999967186687  0.24999999605362755  1.0000
  Ga  Ga2       1.0  0.7499999781885438  0.7500000155656503  0.7500000023972576  1.0000
  Re  Re1       1.0  0.9999999589203227  5.1047278829301586e-08  6.130846738225979e-09  1.0000
  Te  Te1       1.0  0.260133305984607  0.2601333050166021  0.7398666995704769  1.0000
  Te  Te2       1.0  0.7398666393088413  0.7398666947514942  0.2601333306361063  1.0000
  Te  Te3       1.0  0.7398666837040779  0.260133335792452  0.2601333174634765  1.0000
  Te  Te4       1.0  0.2601333834326037  0.739866640153582  0.7398666109379451  1.0000
  Te  Te5       1.0  0.26013334942995103  0.7398666450128633  0.26013336141256227  1.0000
  Te  Te6       1.0  0.7398666628699057  0.26013334624735374  0.7398666714993686  1.0000
