data_image0
_chemical_formula_structural       Ga2SbS6
_chemical_formula_sum              "Ga2 Sb1 S6"
_cell_length_a       6.752862510569498
_cell_length_b       6.7528618755506225
_cell_length_c       6.752862419637651
_cell_angle_alpha    60.000000271380316
_cell_angle_beta     60.00000106452787
_cell_angle_gamma    59.99999946092007

_space_group_name_H-M_alt    "P 1"
_space_group_IT_number       1

loop_
  _space_group_symop_operation_xyz
  'x, y, z'

loop_
  _atom_site_type_symbol
  _atom_site_label
  _atom_site_symmetry_multiplicity
  _atom_site_fract_x
  _atom_site_fract_y
  _atom_site_fract_z
  _atom_site_occupancy
  Ga  Ga1       1.0  0.2499999789994669  0.25000015203026615  0.24999990568961553  1.0000
  Ga  Ga2       1.0  0.7499998353267713  0.749999899294759  0.7500002388136241  1.0000
  Sb  Sb1       1.0  0.9999999918651907  0.9999999782359855  2.5315385938209925e-08  1.0000
  S   S1        1.0  0.25494927198060785  0.25494964910264384  0.7450504589928174  1.0000
  S   S2        1.0  0.745050579496068  0.7450505164834478  0.2549492499572704  1.0000
  S   S3        1.0  0.7450507440371791  0.25494935161055454  0.2549495224389691  1.0000
  S   S4        1.0  0.254949520110667  0.7450505147203532  0.7450506436592881  1.0000
  S   S5        1.0  0.25494959719308025  0.745050417936023  0.2549493861757343  1.0000
  S   S6        1.0  0.7450505240960262  0.2549494973639083  0.7450505499477752  1.0000
