data_image0
_chemical_formula_structural       Ga2SnSe6
_chemical_formula_sum              "Ga2 Sn1 Se6"
_cell_length_a       6.794264226120632
_cell_length_b       6.794264168985998
_cell_length_c       6.7942641441173075
_cell_angle_alpha    60.00000034887715
_cell_angle_beta     60.00000078288653
_cell_angle_gamma    59.99999992154635

_space_group_name_H-M_alt    "P 1"
_space_group_IT_number       1

loop_
  _space_group_symop_operation_xyz
  'x, y, z'

loop_
  _atom_site_type_symbol
  _atom_site_label
  _atom_site_symmetry_multiplicity
  _atom_site_fract_x
  _atom_site_fract_y
  _atom_site_fract_z
  _atom_site_occupancy
  Ga  Ga1       1.0  0.24999997524871287  0.2500000652452618  0.24999995264046498  1.0000
  Ga  Ga2       1.0  0.7500000086487832  0.7499999776192598  0.75000001089446  1.0000
  Sn  Sn1       1.0  1.0111730348917857e-08  0.9999999747633772  4.5830019318206624e-08  1.0000
  Se  Se1       1.0  0.2965434278061615  0.2965434931646328  0.7034565608845085  1.0000
  Se  Se2       1.0  0.7034565690866434  0.7034565515025049  0.2965434717866003  1.0000
  Se  Se3       1.0  0.7034565348803897  0.2965434773863876  0.29654341086218294  1.0000
  Se  Se4       1.0  0.2965434140487863  0.7034565276232  0.7034565169647119  1.0000
  Se  Se5       1.0  0.2965434829460896  0.7034564640707219  0.2965435048247851  1.0000
  Se  Se6       1.0  0.7034565674920379  0.2965434760446927  0.7034565268565885  1.0000
