data_image0
_chemical_formula_structural       Ga2SeS6
_chemical_formula_sum              "Ga2 Se1 S6"
_cell_length_a       6.673955298123618
_cell_length_b       6.673955313152752
_cell_length_c       6.673955412017593
_cell_angle_alpha    60.000001615775076
_cell_angle_beta     60.0000007836896
_cell_angle_gamma    59.99999884899746

_space_group_name_H-M_alt    "P 1"
_space_group_IT_number       1

loop_
  _space_group_symop_operation_xyz
  'x, y, z'

loop_
  _atom_site_type_symbol
  _atom_site_label
  _atom_site_symmetry_multiplicity
  _atom_site_fract_x
  _atom_site_fract_y
  _atom_site_fract_z
  _atom_site_occupancy
  Ga  Ga1       1.0  0.24999986472084143  0.250000125092103  0.25000006915522616  1.0000
  Ga  Ga2       1.0  0.749999974977631  0.7500000633074357  0.7500001940196265  1.0000
  Se  Se1       1.0  0.9999999630189365  6.422888233190435e-08  0.9999998560186126  1.0000
  S   S1        1.0  0.23905183667502813  0.239051583771397  0.7609481908292818  1.0000
  S   S2        1.0  0.7609482079740084  0.7609482908241505  0.23905155439806483  1.0000
  S   S3        1.0  0.7609484892380133  0.23905165253909458  0.23905170015782137  1.0000
  S   S4        1.0  0.23905178428078974  0.7609482569235638  0.7609483417325708  1.0000
  S   S5        1.0  0.23905159651755584  0.7609483058472785  0.23905178089794382  1.0000
  S   S6        1.0  0.7609482319125082  0.23905165683360705  0.7609483640292675  1.0000
