data_image0
_chemical_formula_structural       Ga2SI6
_chemical_formula_sum              "Ga2 S1 I6"
_cell_length_a       7.6551521946664485
_cell_length_b       7.655152197415177
_cell_length_c       7.655152364409064
_cell_angle_alpha    59.999998142409986
_cell_angle_beta     59.999999436246185
_cell_angle_gamma    60.000001826823

_space_group_name_H-M_alt    "P 1"
_space_group_IT_number       1

loop_
  _space_group_symop_operation_xyz
  'x, y, z'

loop_
  _atom_site_type_symbol
  _atom_site_label
  _atom_site_symmetry_multiplicity
  _atom_site_fract_x
  _atom_site_fract_y
  _atom_site_fract_z
  _atom_site_occupancy
  Ga  Ga1       1.0  0.2500000160702405  0.24999998146355806  0.2500000069574175  1.0000
  Ga  Ga2       1.0  0.7499999916523546  0.7500000099864164  0.7499999980652281  1.0000
  S   S1        1.0  0.9999999024247298  1.0719304017606862e-07  9.708327274310459e-08  1.0000
  I   I1        1.0  0.26543864864305594  0.2654385830560807  0.7345613515910498  1.0000
  I   I2        1.0  0.7345614404728502  0.7345613587971157  0.26543855784843634  1.0000
  I   I3        1.0  0.7345613624970425  0.2654386173488138  0.26543863374335697  1.0000
  I   I4        1.0  0.26543863032458564  0.7345613645017833  0.7345613665474343  1.0000
  I   I5        1.0  0.2654386471087942  0.7345613660441904  0.2654386137668318  1.0000
  I   I6        1.0  0.734561361863397  0.2654386126066148  0.7345613813548836  1.0000
