data_image0
_chemical_formula_structural       Ga2SCl6
_chemical_formula_sum              "Ga2 S1 Cl6"
_cell_length_a       6.71047503853837
_cell_length_b       6.710474894521769
_cell_length_c       6.710474943540751
_cell_angle_alpha    60.00000133362916
_cell_angle_beta     60.00000050736914
_cell_angle_gamma    59.999999920355776

_space_group_name_H-M_alt    "P 1"
_space_group_IT_number       1

loop_
  _space_group_symop_operation_xyz
  'x, y, z'

loop_
  _atom_site_type_symbol
  _atom_site_label
  _atom_site_symmetry_multiplicity
  _atom_site_fract_x
  _atom_site_fract_y
  _atom_site_fract_z
  _atom_site_occupancy
  Ga  Ga1       1.0  0.2500000583507084  0.25000001560225815  0.2499999807118679  1.0000
  Ga  Ga2       1.0  0.7500000151452829  0.7500000103042954  0.7500000105361141  1.0000
  S   S1        1.0  4.363003124883864e-09  0.9999999817487608  4.121888998181541e-08  1.0000
  Cl  Cl1       1.0  0.24558256204424253  0.24558249624513545  0.7544174748140767  1.0000
  Cl  Cl2       1.0  0.7544174632888442  0.7544174986343093  0.24558247257729243  1.0000
  Cl  Cl3       1.0  0.7544174406217566  0.24558252914613152  0.24558252055855323  1.0000
  Cl  Cl4       1.0  0.24558251447399415  0.7544174493071987  0.7544175074197279  1.0000
  Cl  Cl5       1.0  0.24558249923500555  0.7544174840986942  0.2455825077614709  1.0000
  Cl  Cl6       1.0  0.7544174298229248  0.2455825363324868  0.7544174809524385  1.0000
