data_image0
_chemical_formula_structural       Ga2SF6
_chemical_formula_sum              "Ga2 S1 F6"
_cell_length_a       5.661740891734432
_cell_length_b       5.661745088254564
_cell_length_c       5.661744758291642
_cell_angle_alpha    60.000003540692916
_cell_angle_beta     60.00000363720771
_cell_angle_gamma    60.00000148746931

_space_group_name_H-M_alt    "P 1"
_space_group_IT_number       1

loop_
  _space_group_symop_operation_xyz
  'x, y, z'

loop_
  _atom_site_type_symbol
  _atom_site_label
  _atom_site_symmetry_multiplicity
  _atom_site_fract_x
  _atom_site_fract_y
  _atom_site_fract_z
  _atom_site_occupancy
  Ga  Ga1       1.0  0.24999996126685642  0.24999929123099923  0.2500005695695982  1.0000
  Ga  Ga2       1.0  0.749999895272778  0.7500004457296237  0.7499996168476958  1.0000
  S   S1        1.0  0.9999999881943324  8.436452672678134e-08  2.3772728723402718e-08  1.0000
  F   F1        1.0  0.23831214529828237  0.23831246786864235  0.7616876325881797  1.0000
  F   F2        1.0  0.7616876821653398  0.7616877601368093  0.23831235993574584  1.0000
  F   F3        1.0  0.7616879083489647  0.23831198269599632  0.23831253406155217  1.0000
  F   F4        1.0  0.2383121600843651  0.761688122007411  0.7616874402521079  1.0000
  F   F5        1.0  0.23831221029205985  0.7616879479906907  0.23831240552048186  1.0000
  F   F6        1.0  0.7616878518178427  0.23831209614331214  0.7616875934083921  1.0000
