data_image0
_chemical_formula_structural       Ga2SiTe6
_chemical_formula_sum              "Ga2 Si1 Te6"
_cell_length_a       7.218341285332877
_cell_length_b       7.218341436369073
_cell_length_c       7.218341427771202
_cell_angle_alpha    60.00000000972281
_cell_angle_beta     59.999999592754754
_cell_angle_gamma    60.00000014873381

_space_group_name_H-M_alt    "P 1"
_space_group_IT_number       1

loop_
  _space_group_symop_operation_xyz
  'x, y, z'

loop_
  _atom_site_type_symbol
  _atom_site_label
  _atom_site_symmetry_multiplicity
  _atom_site_fract_x
  _atom_site_fract_y
  _atom_site_fract_z
  _atom_site_occupancy
  Ga  Ga1       1.0  0.2500000107197572  0.2500000024289677  0.24999999883656987  1.0000
  Ga  Ga2       1.0  0.7499999962234098  0.7499999903197802  0.7500000035661646  1.0000
  Si  Si1       1.0  1.8741369337158526e-09  1.357369832219675e-08  3.38368762199117e-08  1.0000
  Te  Te1       1.0  0.2602966082522617  0.26029660724962783  0.7397033915970481  1.0000
  Te  Te2       1.0  0.739703389286924  0.7397033753188463  0.260296619212454  1.0000
  Te  Te3       1.0  0.7397034035408003  0.2602966000357511  0.2602965904969386  1.0000
  Te  Te4       1.0  0.2602966251352196  0.7397033994998459  0.7397033740948284  1.0000
  Te  Te5       1.0  0.26029657895625946  0.7397034001058984  0.26029659898636726  1.0000
  Te  Te6       1.0  0.739703386007192  0.260296613003397  0.7397033823626759  1.0000
