data_image0
_chemical_formula_structural       Ga2SbTe6
_chemical_formula_sum              "Ga2 Sb1 Te6"
_cell_length_a       7.4858483463520225
_cell_length_b       7.485848314581529
_cell_length_c       7.485848308089655
_cell_angle_alpha    59.999999841349236
_cell_angle_beta     60.00000000768981
_cell_angle_gamma    59.99999995091522

_space_group_name_H-M_alt    "P 1"
_space_group_IT_number       1

loop_
  _space_group_symop_operation_xyz
  'x, y, z'

loop_
  _atom_site_type_symbol
  _atom_site_label
  _atom_site_symmetry_multiplicity
  _atom_site_fract_x
  _atom_site_fract_y
  _atom_site_fract_z
  _atom_site_occupancy
  Ga  Ga1       1.0  0.25000000212351886  0.24999999698018302  0.25000000993577115  1.0000
  Ga  Ga2       1.0  0.7499999959311997  0.7499999991209506  0.7500000095631283  1.0000
  Sb  Sb1       1.0  1.0984716812801639e-08  0.9999999901835184  2.3461253442986696e-08  1.0000
  Te  Te1       1.0  0.27768595831600534  0.2776859740126469  0.7223140387024376  1.0000
  Te  Te2       1.0  0.7223140653999907  0.7223140515379315  0.2776859332032915  1.0000
  Te  Te3       1.0  0.722314020155503  0.27768596503250065  0.27768596641355564  1.0000
  Te  Te4       1.0  0.27768595267367546  0.7223140327047132  0.7223140221327475  1.0000
  Te  Te5       1.0  0.2776859646864176  0.7223140497386193  0.27768594235687033  1.0000
  Te  Te6       1.0  0.7223140380894039  0.2776859414542733  0.7223140531902272  1.0000
