data_image0
_chemical_formula_structural       Ga2SO6
_chemical_formula_sum              "Ga2 S1 O6"
_cell_length_a       5.007090011841118
_cell_length_b       5.0070900348331095
_cell_length_c       5.007090039268486
_cell_angle_alpha    59.99999935419338
_cell_angle_beta     59.9999995659896
_cell_angle_gamma    59.99999982262947

_space_group_name_H-M_alt    "P 1"
_space_group_IT_number       1

loop_
  _space_group_symop_operation_xyz
  'x, y, z'

loop_
  _atom_site_type_symbol
  _atom_site_label
  _atom_site_symmetry_multiplicity
  _atom_site_fract_x
  _atom_site_fract_y
  _atom_site_fract_z
  _atom_site_occupancy
  Ga  Ga1       1.0  0.24999994493012903  0.24999992946663005  0.25000019703963466  1.0000
  Ga  Ga2       1.0  0.7499998604094902  0.7500000574622333  0.7500000663134276  1.0000
  S   S1        1.0  2.8069241433097742e-08  1.9568170549725966e-08  0.9999999342407658  1.0000
  O   O1        1.0  0.22928021942309032  0.22928009596507  0.7707198169796675  1.0000
  O   O2        1.0  0.7707198219572299  0.7707198885177736  0.22928013185642165  1.0000
  O   O3        1.0  0.770719926167414  0.22928013026782598  0.22928010028820095  1.0000
  O   O4        1.0  0.22928012550855006  0.7707198786752304  0.7707198491444717  1.0000
  O   O5        1.0  0.22928018198540762  0.7707198379136444  0.229280081119058  1.0000
  O   O6        1.0  0.7707198889549446  0.22928016858339087  0.7707198539129272  1.0000
