data_image0
_chemical_formula_structural       Ga2SeO6
_chemical_formula_sum              "Ga2 Se1 O6"
_cell_length_a       5.073950286970503
_cell_length_b       5.0739503664049135
_cell_length_c       5.073950214583563
_cell_angle_alpha    59.99999985255477
_cell_angle_beta     59.999999689068765
_cell_angle_gamma    60.00000130353547

_space_group_name_H-M_alt    "P 1"
_space_group_IT_number       1

loop_
  _space_group_symop_operation_xyz
  'x, y, z'

loop_
  _atom_site_type_symbol
  _atom_site_label
  _atom_site_symmetry_multiplicity
  _atom_site_fract_x
  _atom_site_fract_y
  _atom_site_fract_z
  _atom_site_occupancy
  Ga  Ga1       1.0  0.24999995935348335  0.24999993636982723  0.2500000431317397  1.0000
  Ga  Ga2       1.0  0.7500000884147321  0.74999995635065  0.7499999978979162  1.0000
  Se  Se1       1.0  0.9999999918159882  3.137926477795138e-08  0.9999999864315223  1.0000
  O   O1        1.0  0.24751986947615426  0.24751996530901826  0.7524801234418221  1.0000
  O   O2        1.0  0.7524800966610425  0.7524801108594676  0.24751988244614587  1.0000
  O   O3        1.0  0.7524801535052547  0.24751991899827977  0.24751990505845634  1.0000
  O   O4        1.0  0.24751988467479658  0.7524801185495733  0.7524801038269111  1.0000
  O   O5        1.0  0.24751989921683598  0.7524800390831582  0.24751991168226747  1.0000
  O   O6        1.0  0.7524800918865369  0.247519921223428  0.7524800529361181  1.0000
