data_image0
_chemical_formula_structural       Ga2SbO6
_chemical_formula_sum              "Ga2 Sb1 O6"
_cell_length_a       5.229219315102599
_cell_length_b       5.229219352868787
_cell_length_c       5.229219456613523
_cell_angle_alpha    60.00000169219274
_cell_angle_beta     60.00000137392335
_cell_angle_gamma    60.000001887887585

_space_group_name_H-M_alt    "P 1"
_space_group_IT_number       1

loop_
  _space_group_symop_operation_xyz
  'x, y, z'

loop_
  _atom_site_type_symbol
  _atom_site_label
  _atom_site_symmetry_multiplicity
  _atom_site_fract_x
  _atom_site_fract_y
  _atom_site_fract_z
  _atom_site_occupancy
  Ga  Ga1       1.0  0.2499996865266744  0.2500003569144689  0.24999992804531715  1.0000
  Ga  Ga2       1.0  0.7500002055828239  0.7499993352340165  0.749999744231259  1.0000
  Sb  Sb1       1.0  1.7910275018981818e-08  2.5763298167855688e-08  1.6409840012447574e-08  1.0000
  O   O1        1.0  0.2618231382905677  0.2618234663917741  0.7381766844954178  1.0000
  O   O2        1.0  0.7381769169516872  0.73817647167911  0.26182354818610465  1.0000
  O   O3        1.0  0.7381767911087738  0.2618233791788171  0.26182323735183843  1.0000
  O   O4        1.0  0.26182335669670764  0.7381766455504287  0.7381767431707335  1.0000
  O   O5        1.0  0.2618232581356947  0.7381766369529676  0.26182335993835665  1.0000
  O   O6        1.0  0.7381766407664156  0.26182366414619535  0.7381767349771391  1.0000
