data_image0
_chemical_formula_structural       Ga2SnS6
_chemical_formula_sum              "Ga2 Sn1 S6"
_cell_length_a       6.729630929186947
_cell_length_b       6.729630768371761
_cell_length_c       6.72963067691058
_cell_angle_alpha    60.00000002085268
_cell_angle_beta     59.999997372767176
_cell_angle_gamma    60.00000002436924

_space_group_name_H-M_alt    "P 1"
_space_group_IT_number       1

loop_
  _space_group_symop_operation_xyz
  'x, y, z'

loop_
  _atom_site_type_symbol
  _atom_site_label
  _atom_site_symmetry_multiplicity
  _atom_site_fract_x
  _atom_site_fract_y
  _atom_site_fract_z
  _atom_site_occupancy
  Ga  Ga1       1.0  0.2499999680250524  0.2500000321221658  0.2499999415162823  1.0000
  Ga  Ga2       1.0  0.7499999617924634  0.7499999489522664  0.7499997683516441  1.0000
  Sn  Sn1       1.0  0.9999999956672727  0.9999999872604988  3.379753039159582e-08  1.0000
  S   S1        1.0  0.2636992848006044  0.2636990468498557  0.7363009048284332  1.0000
  S   S2        1.0  0.7363007739134527  0.7363009233050106  0.26369930774601624  1.0000
  S   S3        1.0  0.7363008102464906  0.2636991928576428  0.26369924528208377  1.0000
  S   S4        1.0  0.2636990818193489  0.7363009683897417  0.7363008079596205  1.0000
  S   S5        1.0  0.2636991859059683  0.7363006907909477  0.263699185544339  1.0000
  S   S6        1.0  0.7363009188593863  0.26369923386569755  0.7363008023727583  1.0000
