data_image0
_chemical_formula_structural       Ga2TaTe6
_chemical_formula_sum              "Ga2 Ta1 Te6"
_cell_length_a       7.308308731480646
_cell_length_b       7.308308684305239
_cell_length_c       7.308308722249876
_cell_angle_alpha    59.99999992141303
_cell_angle_beta     60.00000024834596
_cell_angle_gamma    59.99999916573928

_space_group_name_H-M_alt    "P 1"
_space_group_IT_number       1

loop_
  _space_group_symop_operation_xyz
  'x, y, z'

loop_
  _atom_site_type_symbol
  _atom_site_label
  _atom_site_symmetry_multiplicity
  _atom_site_fract_x
  _atom_site_fract_y
  _atom_site_fract_z
  _atom_site_occupancy
  Ga  Ga1       1.0  0.2499999905860968  0.24999998698235043  0.2500000171013705  1.0000
  Ga  Ga2       1.0  0.7499999984098773  0.7499999994910334  0.7499999790254638  1.0000
  Ta  Ta1       1.0  1.8513476897113245e-08  0.9999999681593187  2.558685315515068e-09  1.0000
  Te  Te1       1.0  0.2647617084563512  0.26476171725352105  0.7352382847003365  1.0000
  Te  Te2       1.0  0.7352383043023253  0.7352383211704475  0.26476168998952215  1.0000
  Te  Te3       1.0  0.7352383029092383  0.26476167810513  0.2647617310023225  1.0000
  Te  Te4       1.0  0.264761684123384  0.7352383284781578  0.7352382943637935  1.0000
  Te  Te5       1.0  0.2647616884064696  0.7352383032111369  0.2647617102461281  1.0000
  Te  Te6       1.0  0.7352383050419279  0.2647616983446747  0.7352382897963369  1.0000
