data_image0
_chemical_formula_structural       Ga2TaS6
_chemical_formula_sum              "Ga2 Ta1 S6"
_cell_length_a       6.441287305175993
_cell_length_b       6.441287203517605
_cell_length_c       6.441287295997378
_cell_angle_alpha    59.9999983907128
_cell_angle_beta     59.99999964060919
_cell_angle_gamma    59.99999975361118

_space_group_name_H-M_alt    "P 1"
_space_group_IT_number       1

loop_
  _space_group_symop_operation_xyz
  'x, y, z'

loop_
  _atom_site_type_symbol
  _atom_site_label
  _atom_site_symmetry_multiplicity
  _atom_site_fract_x
  _atom_site_fract_y
  _atom_site_fract_z
  _atom_site_occupancy
  Ga  Ga1       1.0  0.24999992913788852  0.250000216822944  0.2499998623195983  1.0000
  Ga  Ga2       1.0  0.750000106863932  0.7499998480789876  0.7500000286991165  1.0000
  Ta  Ta1       1.0  0.9999999678937249  8.556289849980187e-08  0.9999999173822383  1.0000
  S   S1        1.0  0.26191282547628636  0.2619129681730905  0.7380870883268106  1.0000
  S   S2        1.0  0.7380871280634077  0.7380870967288394  0.26191291378478015  1.0000
  S   S3        1.0  0.7380871903498532  0.2619128311086444  0.2619129137230072  1.0000
  S   S4        1.0  0.26191284395259895  0.7380870721744781  0.7380871738386658  1.0000
  S   S5        1.0  0.2619129093840846  0.7380870699606578  0.2619129399231068  1.0000
  S   S6        1.0  0.7380870810620221  0.26191281430848684  0.7380871899411212  1.0000
