data_image0
_chemical_formula_structural       Ga2TiO6
_chemical_formula_sum              "Ga2 Ti1 O6"
_cell_length_a       5.1125504084089215
_cell_length_b       5.1125502419823565
_cell_length_c       5.11255036467305
_cell_angle_alpha    59.999999279427726
_cell_angle_beta     60.00000086862162
_cell_angle_gamma    59.99999904465451

_space_group_name_H-M_alt    "P 1"
_space_group_IT_number       1

loop_
  _space_group_symop_operation_xyz
  'x, y, z'

loop_
  _atom_site_type_symbol
  _atom_site_label
  _atom_site_symmetry_multiplicity
  _atom_site_fract_x
  _atom_site_fract_y
  _atom_site_fract_z
  _atom_site_occupancy
  Ga  Ga1       1.0  0.2500003243794554  0.2499999284538622  0.24999962009503104  1.0000
  Ga  Ga2       1.0  0.7499997289057874  0.7500007603567405  0.7499991787650699  1.0000
  Ti  Ti1       1.0  0.9999999993149759  3.593348223424023e-08  0.9999999843317419  1.0000
  O   O1        1.0  0.2609322228204575  0.26093176981070315  0.7390681116481558  1.0000
  O   O2        1.0  0.7390679356507557  0.7390680613874548  0.260932287862998  1.0000
  O   O3        1.0  0.7390679104759498  0.2609317810272812  0.26093228400180707  1.0000
  O   O4        1.0  0.26093220506314063  0.7390678537345076  0.7390681217472771  1.0000
  O   O5        1.0  0.260931807090085  0.7390679957338154  0.26093229299305093  1.0000
  O   O6        1.0  0.7390678755098488  0.2609317995308617  0.7390681394397923  1.0000
