data_image0
_chemical_formula_structural       Ga2TaCl6
_chemical_formula_sum              "Ga2 Ta1 Cl6"
_cell_length_a       6.956912732789443
_cell_length_b       6.956912856504415
_cell_length_c       6.956912346114169
_cell_angle_alpha    60.000000413164685
_cell_angle_beta     60.00000062560062
_cell_angle_gamma    59.99999848533598

_space_group_name_H-M_alt    "P 1"
_space_group_IT_number       1

loop_
  _space_group_symop_operation_xyz
  'x, y, z'

loop_
  _atom_site_type_symbol
  _atom_site_label
  _atom_site_symmetry_multiplicity
  _atom_site_fract_x
  _atom_site_fract_y
  _atom_site_fract_z
  _atom_site_occupancy
  Ga  Ga1       1.0  0.24999999394643482  0.2500000275442218  0.24999997840647867  1.0000
  Ga  Ga2       1.0  0.7500000414594326  0.7499999734834132  0.7499999973569006  1.0000
  Ta  Ta1       1.0  3.141802778893647e-08  3.520943467484897e-08  0.9999999724359451  1.0000
  Cl  Cl1       1.0  0.24056807041779876  0.24056806400402353  0.7594319131069566  1.0000
  Cl  Cl2       1.0  0.7594319216494703  0.7594319176584229  0.24056808682122044  1.0000
  Cl  Cl3       1.0  0.7594319385038236  0.24056807211374084  0.24056807141473618  1.0000
  Cl  Cl4       1.0  0.2405680324723326  0.7594319130696499  0.759431935861106  1.0000
  Cl  Cl5       1.0  0.24056805207286874  0.7594319031707395  0.24056810027420247  1.0000
  Cl  Cl6       1.0  0.7594319439008014  0.24056807673123448  0.7594319388287502  1.0000
