data_image0
_chemical_formula_structural       Ga2TiTe6
_chemical_formula_sum              "Ga2 Ti1 Te6"
_cell_length_a       7.220373580543406
_cell_length_b       7.220373553607911
_cell_length_c       7.220373520767765
_cell_angle_alpha    59.999999928474985
_cell_angle_beta     60.00000023032378
_cell_angle_gamma    59.99999951028408

_space_group_name_H-M_alt    "P 1"
_space_group_IT_number       1

loop_
  _space_group_symop_operation_xyz
  'x, y, z'

loop_
  _atom_site_type_symbol
  _atom_site_label
  _atom_site_symmetry_multiplicity
  _atom_site_fract_x
  _atom_site_fract_y
  _atom_site_fract_z
  _atom_site_occupancy
  Ga  Ga1       1.0  0.2500000182144957  0.25000000859905597  0.24999997911354868  1.0000
  Ga  Ga2       1.0  0.7500000003834747  0.7499999918724723  0.7500000160572475  1.0000
  Ti  Ti1       1.0  0.9999999892101034  0.9999999508091914  4.107011191977066e-08  1.0000
  Te  Te1       1.0  0.2639737270691266  0.26397373535649443  0.7360262695361266  1.0000
  Te  Te2       1.0  0.7360263063736312  0.7360262973434948  0.2639736813234969  1.0000
  Te  Te3       1.0  0.7360263059115218  0.2639736962899616  0.26397369072945553  1.0000
  Te  Te4       1.0  0.26397368362600654  0.7360262906116887  0.7360263299114105  1.0000
  Te  Te5       1.0  0.26397366856829285  0.7360263460014272  0.26397367282896683  1.0000
  Te  Te6       1.0  0.7360263047663177  0.26397367991362314  0.7360263197870192  1.0000
