data_image0
_chemical_formula_structural       Ga2TaSe6
_chemical_formula_sum              "Ga2 Ta1 Se6"
_cell_length_a       6.777621545055804
_cell_length_b       6.777621483281295
_cell_length_c       6.777621356476073
_cell_angle_alpha    59.99999939301143
_cell_angle_beta     60.00000082663468
_cell_angle_gamma    59.99999943309995

_space_group_name_H-M_alt    "P 1"
_space_group_IT_number       1

loop_
  _space_group_symop_operation_xyz
  'x, y, z'

loop_
  _atom_site_type_symbol
  _atom_site_label
  _atom_site_symmetry_multiplicity
  _atom_site_fract_x
  _atom_site_fract_y
  _atom_site_fract_z
  _atom_site_occupancy
  Ga  Ga1       1.0  0.25000000341744455  0.24999998743486584  0.25000002004580346  1.0000
  Ga  Ga2       1.0  0.7499999236384238  0.7500000074806581  0.7499999082294  1.0000
  Ta  Ta1       1.0  7.250307302207947e-08  0.9999999204901412  0.9999997541533766  1.0000
  Se  Se1       1.0  0.26302346003316834  0.26302321896254494  0.7369766465953068  1.0000
  Se  Se2       1.0  0.7369767500606265  0.7369767343910032  0.2630232745511007  1.0000
  Se  Se3       1.0  0.7369765495741988  0.26302326961648004  0.26302338691899396  1.0000
  Se  Se4       1.0  0.2630231761679472  0.7369768590201711  0.7369769410625899  1.0000
  Se  Se5       1.0  0.2630233505623171  0.7369766847345309  0.2630232630072207  1.0000
  Se  Se6       1.0  0.736976694650909  0.26302330837394694  0.7369768549673997  1.0000
