data_image0
_chemical_formula_structural       Ga2TiS6
_chemical_formula_sum              "Ga2 Ti1 S6"
_cell_length_a       6.449188659654341
_cell_length_b       6.449188765435973
_cell_length_c       6.4491888988025625
_cell_angle_alpha    59.999999903586186
_cell_angle_beta     60.00000076346488
_cell_angle_gamma    59.999998733047946

_space_group_name_H-M_alt    "P 1"
_space_group_IT_number       1

loop_
  _space_group_symop_operation_xyz
  'x, y, z'

loop_
  _atom_site_type_symbol
  _atom_site_label
  _atom_site_symmetry_multiplicity
  _atom_site_fract_x
  _atom_site_fract_y
  _atom_site_fract_z
  _atom_site_occupancy
  Ga  Ga1       1.0  0.25000000236860187  0.25000014574809104  0.2499998952414933  1.0000
  Ga  Ga2       1.0  0.7499998634442743  0.7499998960098618  0.7499998234955451  1.0000
  Ti  Ti1       1.0  4.242795570471117e-08  2.8486021153741236e-08  0.999999823439997  1.0000
  S   S1        1.0  0.2546919340575682  0.2546918708868991  0.7453081460915598  1.0000
  S   S2        1.0  0.7453081250380748  0.745307956276352  0.2546921430617616  1.0000
  S   S3        1.0  0.7453079330864893  0.25469207669724075  0.2546919084574502  1.0000
  S   S4        1.0  0.2546920227891739  0.7453081245824322  0.7453081025940522  1.0000
  S   S5        1.0  0.25469196826903323  0.7453079256013796  0.25469202788906853  1.0000
  S   S6        1.0  0.745308121118525  0.25469197182739167  0.745308139658737  1.0000
