data_image0
_chemical_formula_structural       Ga2TaBr6
_chemical_formula_sum              "Ga2 Ta1 Br6"
_cell_length_a       7.3532861819100654
_cell_length_b       7.353286352781097
_cell_length_c       7.353286499571514
_cell_angle_alpha    59.99999955367115
_cell_angle_beta     59.99999849434934
_cell_angle_gamma    60.000001037206815

_space_group_name_H-M_alt    "P 1"
_space_group_IT_number       1

loop_
  _space_group_symop_operation_xyz
  'x, y, z'

loop_
  _atom_site_type_symbol
  _atom_site_label
  _atom_site_symmetry_multiplicity
  _atom_site_fract_x
  _atom_site_fract_y
  _atom_site_fract_z
  _atom_site_occupancy
  Ga  Ga1       1.0  0.24999999041672472  0.2500000049829938  0.24999999306935866  1.0000
  Ga  Ga2       1.0  0.7499999950907271  0.7499999999588085  0.7500000577389899  1.0000
  Ta  Ta1       1.0  2.585446574064895e-09  1.6655748221263085e-09  0.9999999829151919  1.0000
  Br  Br1       1.0  0.24339877142950983  0.24339877357320644  0.7566011978910978  1.0000
  Br  Br2       1.0  0.7566012386641982  0.7566012047193986  0.24339876691280865  1.0000
  Br  Br3       1.0  0.7566011957496228  0.24339879442298848  0.24339879809174153  1.0000
  Br  Br4       1.0  0.2433987751650216  0.756601207187664  0.75660122496031  1.0000
  Br  Br5       1.0  0.2433987934734471  0.7566012241152569  0.24339878143112492  1.0000
  Br  Br6       1.0  0.7566012435851097  0.2433987675019474  0.7566012040261416  1.0000
