data_image0
_chemical_formula_structural       Ga2TaF6
_chemical_formula_sum              "Ga2 Ta1 F6"
_cell_length_a       6.018521041361813
_cell_length_b       6.018519102021812
_cell_length_c       6.018521507050679
_cell_angle_alpha    59.99999391540808
_cell_angle_beta     59.99999024830058
_cell_angle_gamma    59.999992983723885

_space_group_name_H-M_alt    "P 1"
_space_group_IT_number       1

loop_
  _space_group_symop_operation_xyz
  'x, y, z'

loop_
  _atom_site_type_symbol
  _atom_site_label
  _atom_site_symmetry_multiplicity
  _atom_site_fract_x
  _atom_site_fract_y
  _atom_site_fract_z
  _atom_site_occupancy
  Ga  Ga1       1.0  0.24999995167933803  0.24999999492023728  0.25000008582043753  1.0000
  Ga  Ga2       1.0  0.7500000684458283  0.7499999949355027  0.7499999629008588  1.0000
  Ta  Ta1       1.0  0.9999999761623911  4.27341655321491e-08  0.9999999157825317  1.0000
  F   F1        1.0  0.22765165035803023  0.22765156252768265  0.7723485085936743  1.0000
  F   F2        1.0  0.7723484291666262  0.7723483642442873  0.22765162670817482  1.0000
  F   F3        1.0  0.772348376582027  0.2276515799958203  0.2276515863157024  1.0000
  F   F4        1.0  0.22765167732280273  0.7723483488110927  0.7723484062555898  1.0000
  F   F5        1.0  0.22765155457421898  0.7723485361854024  0.22765145856916943  1.0000
  F   F6        1.0  0.7723482982255511  0.22765157576796433  0.772348531350683  1.0000
