data_image0
_chemical_formula_structural       Ga2TaI6
_chemical_formula_sum              "Ga2 Ta1 I6"
_cell_length_a       7.900621770642196
_cell_length_b       7.90062200621762
_cell_length_c       7.900621907504376
_cell_angle_alpha    60.000000411108736
_cell_angle_beta     59.99999966548572
_cell_angle_gamma    59.99999980298349

_space_group_name_H-M_alt    "P 1"
_space_group_IT_number       1

loop_
  _space_group_symop_operation_xyz
  'x, y, z'

loop_
  _atom_site_type_symbol
  _atom_site_label
  _atom_site_symmetry_multiplicity
  _atom_site_fract_x
  _atom_site_fract_y
  _atom_site_fract_z
  _atom_site_occupancy
  Ga  Ga1       1.0  0.24999999527024458  0.25000000910711834  0.2500000015800682  1.0000
  Ga  Ga2       1.0  0.7499999995851115  0.7499999947674091  0.7500000090670962  1.0000
  Ta  Ta1       1.0  1.4364553132058506e-08  0.9999999875984966  0.999999997752752  1.0000
  I   I1        1.0  0.24710756462644365  0.24710752391824392  0.7528924362333003  1.0000
  I   I2        1.0  0.7528924406217335  0.7528924970083504  0.24710753411123418  1.0000
  I   I3        1.0  0.7528924457039798  0.24710752243659914  0.24710753478005373  1.0000
  I   I4        1.0  0.24710755697576153  0.7528924798877404  0.7528924499469954  1.0000
  I   I5        1.0  0.2471075129535491  0.7528924943079311  0.2471075307538354  1.0000
  I   I6        1.0  0.7528924627397986  0.2471074925145296  0.752892501797536  1.0000
