data_image0
_chemical_formula_structural       Ga2VS6
_chemical_formula_sum              "Ga2 V1 S6"
_cell_length_a       6.362544045715937
_cell_length_b       6.362543941336016
_cell_length_c       6.362544016963616
_cell_angle_alpha    59.99999885570271
_cell_angle_beta     59.999999373229194
_cell_angle_gamma    60.00000095362061

_space_group_name_H-M_alt    "P 1"
_space_group_IT_number       1

loop_
  _space_group_symop_operation_xyz
  'x, y, z'

loop_
  _atom_site_type_symbol
  _atom_site_label
  _atom_site_symmetry_multiplicity
  _atom_site_fract_x
  _atom_site_fract_y
  _atom_site_fract_z
  _atom_site_occupancy
  Ga  Ga1       1.0  0.25000004335847925  0.2499998958856635  0.2500000638798558  1.0000
  Ga  Ga2       1.0  0.7499999910968297  0.7500000283695171  0.7499999948990069  1.0000
  V   V1        1.0  5.252029847598045e-08  5.774789664160172e-09  0.9999999881411376  1.0000
  S   S1        1.0  0.24721435741898948  0.24721427937026558  0.7527856713705143  1.0000
  S   S2        1.0  0.752785650857927  0.7527856853084349  0.2472143629971026  1.0000
  S   S3        1.0  0.7527856018862077  0.24721437637650232  0.24721436731118046  1.0000
  S   S4        1.0  0.24721428330855288  0.7527857615458545  0.7527856136851157  1.0000
  S   S5        1.0  0.24721429723051902  0.7527857316438281  0.2472143106675232  1.0000
  S   S6        1.0  0.752785713502882  0.24721423110994326  0.7527856558512865  1.0000
