data_image0
_chemical_formula_structural       Ga2VO6
_chemical_formula_sum              "Ga2 V1 O6"
_cell_length_a       5.129620295972028
_cell_length_b       5.129620459057074
_cell_length_c       5.129620471814736
_cell_angle_alpha    59.9999996076395
_cell_angle_beta     59.99999957585555
_cell_angle_gamma    60.000000151016984

_space_group_name_H-M_alt    "P 1"
_space_group_IT_number       1

loop_
  _space_group_symop_operation_xyz
  'x, y, z'

loop_
  _atom_site_type_symbol
  _atom_site_label
  _atom_site_symmetry_multiplicity
  _atom_site_fract_x
  _atom_site_fract_y
  _atom_site_fract_z
  _atom_site_occupancy
  Ga  Ga1       1.0  0.2499992014741882  0.2500003639968926  0.2500005716701622  1.0000
  Ga  Ga2       1.0  0.7500002156901535  0.7499991604275077  0.74999908648995  1.0000
  V   V1        1.0  0.9999999970896393  0.9999999952248129  1.8933119297551157e-09  1.0000
  O   O1        1.0  0.25381907114095537  0.2538193478142225  0.7461807441483338  1.0000
  O   O2        1.0  0.7461810935222367  0.7461806016018203  0.25381967874367584  1.0000
  O   O3        1.0  0.7461809204063231  0.2538192174196934  0.25381919680628773  1.0000
  O   O4        1.0  0.253819423017807  0.7461809588177382  0.7461807367236503  1.0000
  O   O5        1.0  0.25381898325889507  0.7461806872958894  0.25381942469731866  1.0000
  O   O6        1.0  0.746181086762683  0.25381966084827756  0.7461806161149228  1.0000
