data_image0
_chemical_formula_structural       Ga2VSe6
_chemical_formula_sum              "Ga2 V1 Se6"
_cell_length_a       6.693099837207402
_cell_length_b       6.693099794725918
_cell_length_c       6.693099663389882
_cell_angle_alpha    60.00000101662674
_cell_angle_beta     60.0000016521454
_cell_angle_gamma    60.00000089543165

_space_group_name_H-M_alt    "P 1"
_space_group_IT_number       1

loop_
  _space_group_symop_operation_xyz
  'x, y, z'

loop_
  _atom_site_type_symbol
  _atom_site_label
  _atom_site_symmetry_multiplicity
  _atom_site_fract_x
  _atom_site_fract_y
  _atom_site_fract_z
  _atom_site_occupancy
  Ga  Ga1       1.0  0.2500000095229997  0.2499999961690994  0.24999997668236598  1.0000
  Ga  Ga2       1.0  0.7500000746443771  0.7499999848475746  0.7499999910134546  1.0000
  V   V1        1.0  1.7078711675484808e-08  0.9999999487638657  6.040691713550744e-08  1.0000
  Se  Se1       1.0  0.2512035762065066  0.2512036232174347  0.7487964243960467  1.0000
  Se  Se2       1.0  0.7487963502341666  0.7487963962263399  0.2512036163962593  1.0000
  Se  Se3       1.0  0.7487963495401054  0.2512036497671484  0.25120357530738063  1.0000
  Se  Se4       1.0  0.25120354795468625  0.7487964099335886  0.7487963761611252  1.0000
  Se  Se5       1.0  0.2512036406971946  0.7487963837336259  0.25120360596753727  1.0000
  Se  Se6       1.0  0.7487964251028223  0.251203595453186  0.7487963748150462  1.0000
