data_image0
_chemical_formula_structural       Ga2VTe6
_chemical_formula_sum              "Ga2 V1 Te6"
_cell_length_a       7.089733973711097
_cell_length_b       7.0897339588662245
_cell_length_c       7.089734021973162
_cell_angle_alpha    59.99999988415535
_cell_angle_beta     59.99999999319914
_cell_angle_gamma    59.9999994862761

_space_group_name_H-M_alt    "P 1"
_space_group_IT_number       1

loop_
  _space_group_symop_operation_xyz
  'x, y, z'

loop_
  _atom_site_type_symbol
  _atom_site_label
  _atom_site_symmetry_multiplicity
  _atom_site_fract_x
  _atom_site_fract_y
  _atom_site_fract_z
  _atom_site_occupancy
  Ga  Ga1       1.0  0.2500000145557072  0.25000002537153376  0.2499999806472786  1.0000
  Ga  Ga2       1.0  0.7499999801001214  0.7499999931950531  0.7500000137746196  1.0000
  V   V1        1.0  0.9999999197508751  0.9999999378103389  7.121939282381101e-08  1.0000
  Te  Te1       1.0  0.2640444542776474  0.26404446745468274  0.7359555410582043  1.0000
  Te  Te2       1.0  0.7359556113321771  0.7359556167565464  0.26404439070633556  1.0000
  Te  Te3       1.0  0.7359555666705843  0.26404441655485533  0.2640444188475084  1.0000
  Te  Te4       1.0  0.26404443366170066  0.7359555605519571  0.7359555821821275  1.0000
  Te  Te5       1.0  0.2640444307880246  0.7359555807157939  0.26404440315595556  1.0000
  Te  Te6       1.0  0.7359555877393311  0.2640444102109431  0.7359555959710844  1.0000
