data_image0
_chemical_formula_structural       Ga2WS6
_chemical_formula_sum              "Ga2 W1 S6"
_cell_length_a       6.4895620263021305
_cell_length_b       6.489562072931768
_cell_length_c       6.489562118851887
_cell_angle_alpha    59.99999931657487
_cell_angle_beta     59.999998358708034
_cell_angle_gamma    59.99999940208611

_space_group_name_H-M_alt    "P 1"
_space_group_IT_number       1

loop_
  _space_group_symop_operation_xyz
  'x, y, z'

loop_
  _atom_site_type_symbol
  _atom_site_label
  _atom_site_symmetry_multiplicity
  _atom_site_fract_x
  _atom_site_fract_y
  _atom_site_fract_z
  _atom_site_occupancy
  Ga  Ga1       1.0  0.24999996447133013  0.24999991176417838  0.25000009743542706  1.0000
  Ga  Ga2       1.0  0.7499999789414372  0.7500000712236593  0.7499999521383685  1.0000
  W   W1        1.0  3.2348378530507787e-09  1.6985281546655493e-08  6.764923291004583e-10  1.0000
  S   S1        1.0  0.24781108613109537  0.2478110804744203  0.7521889246288138  1.0000
  S   S2        1.0  0.7521889147410533  0.7521889062879243  0.24781108045961311  1.0000
  S   S3        1.0  0.7521889500603189  0.2478110385446378  0.2478110925651257  1.0000
  S   S4        1.0  0.24781104315488167  0.7521889765265095  0.7521889145248619  1.0000
  S   S5        1.0  0.24781106135136155  0.7521889504452212  0.2478110806326414  1.0000
  S   S6        1.0  0.752189000430874  0.24781104575339094  0.7521888677095036  1.0000
