data_image0
_chemical_formula_structural       Ga2WSe6
_chemical_formula_sum              "Ga2 W1 Se6"
_cell_length_a       6.800375862058223
_cell_length_b       6.800375835953932
_cell_length_c       6.800375929071344
_cell_angle_alpha    59.999999157364904
_cell_angle_beta     59.99999954309979
_cell_angle_gamma    60.00000061383332

_space_group_name_H-M_alt    "P 1"
_space_group_IT_number       1

loop_
  _space_group_symop_operation_xyz
  'x, y, z'

loop_
  _atom_site_type_symbol
  _atom_site_label
  _atom_site_symmetry_multiplicity
  _atom_site_fract_x
  _atom_site_fract_y
  _atom_site_fract_z
  _atom_site_occupancy
  Ga  Ga1       1.0  0.24999999911281506  0.25000000536533745  0.24999998434629353  1.0000
  Ga  Ga2       1.0  0.7499999930507929  0.7500000034890411  0.7500000158949495  1.0000
  W   W1        1.0  3.037558366588649e-08  0.999999980189046  0.9999999550139977  1.0000
  Se  Se1       1.0  0.24916385813178213  0.2491638478376277  0.7508361388190087  1.0000
  Se  Se2       1.0  0.7508361385254793  0.7508361628177471  0.24916380386615256  1.0000
  Se  Se3       1.0  0.7508360809683684  0.24916393474654283  0.24916396529567297  1.0000
  Se  Se4       1.0  0.2491638930999528  0.7508361029237691  0.7508361060516073  1.0000
  Se  Se5       1.0  0.24916390639844352  0.7508360904837282  0.24916393255681474  1.0000
  Se  Se6       1.0  0.7508360933811501  0.24916387514674965  0.7508361060754829  1.0000
