data_image0
_chemical_formula_structural       Ga2ZnI6
_chemical_formula_sum              "Ga2 Zn1 I6"
_cell_length_a       7.681725640932801
_cell_length_b       7.68172553892676
_cell_length_c       7.681725530317329
_cell_angle_alpha    59.99999968650529
_cell_angle_beta     59.99999991352093
_cell_angle_gamma    59.999999312929496

_space_group_name_H-M_alt    "P 1"
_space_group_IT_number       1

loop_
  _space_group_symop_operation_xyz
  'x, y, z'

loop_
  _atom_site_type_symbol
  _atom_site_label
  _atom_site_symmetry_multiplicity
  _atom_site_fract_x
  _atom_site_fract_y
  _atom_site_fract_z
  _atom_site_occupancy
  Ga  Ga1       1.0  0.2499999897103242  0.25000000146047985  0.2500000046208928  1.0000
  Ga  Ga2       1.0  0.7500000139684254  0.7499999916265462  0.7499999952178169  1.0000
  Zn  Zn1       1.0  1.342177899159957e-08  3.1887233333323497e-08  3.3322500203543625e-08  1.0000
  I   I1        1.0  0.25458840885879425  0.25458843311558327  0.7454115694033462  1.0000
  I   I2        1.0  0.7454115976439464  0.7454115695376128  0.25458840731700166  1.0000
  I   I3        1.0  0.7454115842048133  0.25458841119374187  0.2545884118430329  1.0000
  I   I4        1.0  0.25458840869378174  0.7454115691383907  0.7454115776327562  1.0000
  I   I5        1.0  0.2545884101122629  0.7454115732338522  0.25458842776911567  1.0000
  I   I6        1.0  0.7454115819813288  0.25458842304189705  0.7454115697588571  1.0000
