data_image0
_chemical_formula_structural       Ga2ZnCl6
_chemical_formula_sum              "Ga2 Zn1 Cl6"
_cell_length_a       6.899292269957191
_cell_length_b       6.899292088709541
_cell_length_c       6.899292293774457
_cell_angle_alpha    59.999998765632476
_cell_angle_beta     59.999998209678395
_cell_angle_gamma    59.999996751534226

_space_group_name_H-M_alt    "P 1"
_space_group_IT_number       1

loop_
  _space_group_symop_operation_xyz
  'x, y, z'

loop_
  _atom_site_type_symbol
  _atom_site_label
  _atom_site_symmetry_multiplicity
  _atom_site_fract_x
  _atom_site_fract_y
  _atom_site_fract_z
  _atom_site_occupancy
  Ga  Ga1       1.0  0.25000029475138413  0.24999959889169404  0.2500003340753876  1.0000
  Ga  Ga2       1.0  0.7499999271314347  0.749999634557574  0.7500004269985637  1.0000
  Zn  Zn1       1.0  0.9999998826876717  2.7160173637009614e-07  0.999999872125456  1.0000
  Cl  Cl1       1.0  0.24867534074209074  0.24867533273950396  0.7513246576406424  1.0000
  Cl  Cl2       1.0  0.7513244683227669  0.7513249533883869  0.2486751645989231  1.0000
  Cl  Cl3       1.0  0.7513245073485955  0.24867559974838474  0.24867502805980313  1.0000
  Cl  Cl4       1.0  0.24867546242157687  0.7513246260235609  0.7513245439845602  1.0000
  Cl  Cl5       1.0  0.24867539312093512  0.7513246384724495  0.2486753756037936  1.0000
  Cl  Cl6       1.0  0.75132470456035  0.2486753742785271  0.751324611497471  1.0000
