data_image0
_chemical_formula_structural       Ga2ZrO6
_chemical_formula_sum              "Ga2 Zr1 O6"
_cell_length_a       5.436312932178018
_cell_length_b       5.436314004937965
_cell_length_c       5.436312725208664
_cell_angle_alpha    59.9999969863967
_cell_angle_beta     59.9999959378474
_cell_angle_gamma    59.9999968748553

_space_group_name_H-M_alt    "P 1"
_space_group_IT_number       1

loop_
  _space_group_symop_operation_xyz
  'x, y, z'

loop_
  _atom_site_type_symbol
  _atom_site_label
  _atom_site_symmetry_multiplicity
  _atom_site_fract_x
  _atom_site_fract_y
  _atom_site_fract_z
  _atom_site_occupancy
  Ga  Ga1       1.0  0.2499974456721628  0.2500006923183372  0.2500002654434371  1.0000
  Ga  Ga2       1.0  0.7499990991567048  0.7499996325623617  0.7500024507028686  1.0000
  Zr  Zr1       1.0  0.9999998684376802  0.999999993241311  1.4641875884465205e-07  1.0000
  O   O1        1.0  0.269056844758081  0.2690564033690775  0.7309436052413473  1.0000
  O   O2        1.0  0.7309438439181388  0.7309429279845785  0.26905557853575396  1.0000
  O   O3        1.0  0.7309446458506783  0.2690573151529897  0.2690558659539562  1.0000
  O   O4        1.0  0.26905664919189076  0.7309430773144396  0.7309436300803269  1.0000
  O   O5        1.0  0.26905738891501985  0.7309434940544994  0.2690558873453367  1.0000
  O   O6        1.0  0.7309442727161597  0.26905646135124356  0.7309425163229721  1.0000
