data_image0
_chemical_formula_structural       Ga2ZnBr6
_chemical_formula_sum              "Ga2 Zn1 Br6"
_cell_length_a       7.19892510048161
_cell_length_b       7.198925030148456
_cell_length_c       7.198925081414973
_cell_angle_alpha    60.00000013965515
_cell_angle_beta     59.99999988455197
_cell_angle_gamma    59.99999998754101

_space_group_name_H-M_alt    "P 1"
_space_group_IT_number       1

loop_
  _space_group_symop_operation_xyz
  'x, y, z'

loop_
  _atom_site_type_symbol
  _atom_site_label
  _atom_site_symmetry_multiplicity
  _atom_site_fract_x
  _atom_site_fract_y
  _atom_site_fract_z
  _atom_site_occupancy
  Ga  Ga1       1.0  0.250000009244449  0.24999998923724043  0.24999999265159198  1.0000
  Ga  Ga2       1.0  0.7499999943080597  0.750000010243935  0.749999994237757  1.0000
  Zn  Zn1       1.0  0.9999999842352991  1.3610308370824213e-08  3.855388889454708e-09  1.0000
  Br  Br1       1.0  0.2508816863018202  0.25088166752522967  0.7491183176599747  1.0000
  Br  Br2       1.0  0.7491183416830414  0.7491183404623886  0.2508816624836502  1.0000
  Br  Br3       1.0  0.7491183402089248  0.25088163620782594  0.25088167061049255  1.0000
  Br  Br4       1.0  0.250881644015097  0.7491183394553098  0.7491183531321783  1.0000
  Br  Br5       1.0  0.25088166398215134  0.7491183403562355  0.25088167271814626  1.0000
  Br  Br6       1.0  0.7491183300437144  0.25088165402107426  0.7491183437119973  1.0000
