data_image0
_chemical_formula_structural       Ga2ZrTe6
_chemical_formula_sum              "Ga2 Zr1 Te6"
_cell_length_a       7.43187065650149
_cell_length_b       7.431870624219795
_cell_length_c       7.431870617821914
_cell_angle_alpha    60.00000011183096
_cell_angle_beta     59.99999961657951
_cell_angle_gamma    59.99999988539805

_space_group_name_H-M_alt    "P 1"
_space_group_IT_number       1

loop_
  _space_group_symop_operation_xyz
  'x, y, z'

loop_
  _atom_site_type_symbol
  _atom_site_label
  _atom_site_symmetry_multiplicity
  _atom_site_fract_x
  _atom_site_fract_y
  _atom_site_fract_z
  _atom_site_occupancy
  Ga  Ga1       1.0  0.2499999766859929  0.25000001291388185  0.25000000983660203  1.0000
  Ga  Ga2       1.0  0.7500000116993716  0.7499999942466412  0.7499999947899364  1.0000
  Zr  Zr1       1.0  0.9999999377248293  6.097463538376821e-08  0.9999999750846991  1.0000
  Te  Te1       1.0  0.27001567339866855  0.27001567185395886  0.7299842957553099  1.0000
  Te  Te2       1.0  0.7299843343690889  0.7299843237708221  0.27001566727232795  1.0000
  Te  Te3       1.0  0.7299843363384438  0.27001568086028643  0.27001566750264555  1.0000
  Te  Te4       1.0  0.2700156792921346  0.7299843098206055  0.7299843290499889  1.0000
  Te  Te5       1.0  0.27001571471161273  0.7299842672212302  0.2700157169589162  1.0000
  Te  Te6       1.0  0.7299843422580291  0.2700156740207682  0.7299843428481082  1.0000
