data_image0
_chemical_formula_structural       Ge2AsF6
_chemical_formula_sum              "Ge2 As1 F6"
_cell_length_a       5.55532301339913
_cell_length_b       5.555322976427229
_cell_length_c       5.555322910077296
_cell_angle_alpha    59.99999460323681
_cell_angle_beta     60.00000213450935
_cell_angle_gamma    59.99999392667324

_space_group_name_H-M_alt    "P 1"
_space_group_IT_number       1

loop_
  _space_group_symop_operation_xyz
  'x, y, z'

loop_
  _atom_site_type_symbol
  _atom_site_label
  _atom_site_symmetry_multiplicity
  _atom_site_fract_x
  _atom_site_fract_y
  _atom_site_fract_z
  _atom_site_occupancy
  Ge  Ge1       1.0  0.25000177428491666  0.2499988175139349  0.24999925770283  1.0000
  Ge  Ge2       1.0  0.7500029353067282  0.7500007405535901  0.7499962306515929  1.0000
  As  As1       1.0  0.9999998193968659  2.425096851701412e-08  1.4117871794911868e-07  1.0000
  F   F1        1.0  0.24766018609528567  0.24766151573385678  0.7523393192819685  1.0000
  F   F2        1.0  0.752338686348964  0.7523403263336655  0.24766180140745095  1.0000
  F   F3        1.0  0.7523390084217318  0.24765915187422263  0.24766175703421475  1.0000
  F   F4        1.0  0.24766023616379837  0.7523391605756109  0.7523390073125338  1.0000
  F   F5        1.0  0.24765867308079748  0.7523399792537785  0.24766269638019903  1.0000
  F   F6        1.0  0.7523385703518307  0.24766045184854127  0.7523399154964694  1.0000
