data_image0
_chemical_formula_structural       Ge2AsS6
_chemical_formula_sum              "Ge2 As1 S6"
_cell_length_a       6.424731015908682
_cell_length_b       6.424731106704858
_cell_length_c       6.424731162181899
_cell_angle_alpha    59.999999060430746
_cell_angle_beta     60.000000918138205
_cell_angle_gamma    60.00000226523291

_space_group_name_H-M_alt    "P 1"
_space_group_IT_number       1

loop_
  _space_group_symop_operation_xyz
  'x, y, z'

loop_
  _atom_site_type_symbol
  _atom_site_label
  _atom_site_symmetry_multiplicity
  _atom_site_fract_x
  _atom_site_fract_y
  _atom_site_fract_z
  _atom_site_occupancy
  Ge  Ge1       1.0  0.24999996327362475  0.25000010578677706  0.24999990496272173  1.0000
  Ge  Ge2       1.0  0.7499998504304781  0.7500000581038686  0.7500001521613868  1.0000
  As  As1       1.0  0.9999999751465218  1.5250378656428325e-08  4.371368336167327e-08  1.0000
  S   S1        1.0  0.255811490181451  0.25581129253962415  0.7441885557896911  1.0000
  S   S2        1.0  0.7441886329125199  0.7441886063756824  0.25581128767945893  1.0000
  S   S3        1.0  0.7441887295508233  0.2558114633028007  0.255811314150289  1.0000
  S   S4        1.0  0.2558113718107227  0.7441885385525657  0.7441887502045835  1.0000
  S   S5        1.0  0.2558113137498373  0.7441885910083484  0.2558113702351504  1.0000
  S   S6        1.0  0.7441886530715736  0.2558113345951172  0.744188650093144  1.0000
