data_image0
_chemical_formula_structural       Ge2AsCl6
_chemical_formula_sum              "Ge2 As1 Cl6"
_cell_length_a       6.482020784664344
_cell_length_b       6.482020605978262
_cell_length_c       6.482020979654958
_cell_angle_alpha    59.999999640184036
_cell_angle_beta     59.9999996296794
_cell_angle_gamma    59.99999860482537

_space_group_name_H-M_alt    "P 1"
_space_group_IT_number       1

loop_
  _space_group_symop_operation_xyz
  'x, y, z'

loop_
  _atom_site_type_symbol
  _atom_site_label
  _atom_site_symmetry_multiplicity
  _atom_site_fract_x
  _atom_site_fract_y
  _atom_site_fract_z
  _atom_site_occupancy
  Ge  Ge1       1.0  0.24999994874534445  0.2500001656967732  0.2499999330246197  1.0000
  Ge  Ge2       1.0  0.7500001283164445  0.7499999661550836  0.7499998803048622  1.0000
  As  As1       1.0  9.644824742251729e-09  0.9999999924422031  0.9999999989564861  1.0000
  Cl  Cl1       1.0  0.2524695361759263  0.25246950579969396  0.7475304878377628  1.0000
  Cl  Cl2       1.0  0.7475304787565245  0.7475304276599968  0.25246961002534196  1.0000
  Cl  Cl3       1.0  0.7475304404454342  0.2524695642583088  0.2524695464699523  1.0000
  Cl  Cl4       1.0  0.25246953160706215  0.7475304069903659  0.7475304891440311  1.0000
  Cl  Cl5       1.0  0.25246945910963753  0.7475304013656654  0.25246962049250854  1.0000
  Cl  Cl6       1.0  0.747530463693762  0.2524695679935605  0.7475304468616624  1.0000
