data_image0
_chemical_formula_structural       Ge2AsBr6
_chemical_formula_sum              "Ge2 As1 Br6"
_cell_length_a       7.022093158409306
_cell_length_b       7.022093580182503
_cell_length_c       7.022093272320075
_cell_angle_alpha    60.00000200997466
_cell_angle_beta     60.00000232595017
_cell_angle_gamma    60.00000015811355

_space_group_name_H-M_alt    "P 1"
_space_group_IT_number       1

loop_
  _space_group_symop_operation_xyz
  'x, y, z'

loop_
  _atom_site_type_symbol
  _atom_site_label
  _atom_site_symmetry_multiplicity
  _atom_site_fract_x
  _atom_site_fract_y
  _atom_site_fract_z
  _atom_site_occupancy
  Ge  Ge1       1.0  0.24999948998771754  0.2499995855995288  0.25000111290183225  1.0000
  Ge  Ge2       1.0  0.7500003594320687  0.7499992992231771  0.7499991606790768  1.0000
  As  As1       1.0  0.999999969486267  7.674174864517107e-08  0.9999999170747669  1.0000
  Br  Br1       1.0  0.2534297881056069  0.2534302027586146  0.746569955253129  1.0000
  Br  Br2       1.0  0.7465701059026977  0.7465701959694718  0.25343018703577447  1.0000
  Br  Br3       1.0  0.7465700677496507  0.2534300588521668  0.2534299447847582  1.0000
  Br  Br4       1.0  0.253430045494454  0.7465702544135147  0.7465698871003219  1.0000
  Br  Br5       1.0  0.2534298145079323  0.7465701449945186  0.2534299969666397  1.0000
  Br  Br6       1.0  0.7465703445793788  0.25343017873594514  0.7465698352459829  1.0000
