data_image0
_chemical_formula_structural       Ge2BBr6
_chemical_formula_sum              "Ge2 B1 Br6"
_cell_length_a       6.72216497620791
_cell_length_b       6.722165361648863
_cell_length_c       6.722164962268672
_cell_angle_alpha    59.99999943478757
_cell_angle_beta     59.99999921105016
_cell_angle_gamma    59.999999729461024

_space_group_name_H-M_alt    "P 1"
_space_group_IT_number       1

loop_
  _space_group_symop_operation_xyz
  'x, y, z'

loop_
  _atom_site_type_symbol
  _atom_site_label
  _atom_site_symmetry_multiplicity
  _atom_site_fract_x
  _atom_site_fract_y
  _atom_site_fract_z
  _atom_site_occupancy
  Ge  Ge1       1.0  0.24999999210202337  0.2500002242565158  0.24999989863912597  1.0000
  Ge  Ge2       1.0  0.7500000926462864  0.7499995559142383  0.7500001634473933  1.0000
  B   B1        1.0  0.9999998807728612  0.9999994661686725  2.566112931769824e-07  1.0000
  Br  Br1       1.0  0.23887037588833188  0.23887045332592347  0.7611296012532016  1.0000
  Br  Br2       1.0  0.7611298002726266  0.7611299080468573  0.2388701646915996  1.0000
  Br  Br3       1.0  0.7611296516061613  0.23887048617904785  0.23887023911239377  1.0000
  Br  Br4       1.0  0.23887022454087894  0.7611297239718904  0.7611297866654603  1.0000
  Br  Br5       1.0  0.23887027251254128  0.7611297481933189  0.2388702464202438  1.0000
  Br  Br6       1.0  0.7611296920555137  0.23887044920397107  0.7611296492917358  1.0000
