data_image0
_chemical_formula_structural       Ge2BCl6
_chemical_formula_sum              "Ge2 B1 Cl6"
_cell_length_a       6.257142873481631
_cell_length_b       6.257142966708495
_cell_length_c       6.257143034983874
_cell_angle_alpha    59.999999327736
_cell_angle_beta     60.00000013757572
_cell_angle_gamma    60.00000046372165

_space_group_name_H-M_alt    "P 1"
_space_group_IT_number       1

loop_
  _space_group_symop_operation_xyz
  'x, y, z'

loop_
  _atom_site_type_symbol
  _atom_site_label
  _atom_site_symmetry_multiplicity
  _atom_site_fract_x
  _atom_site_fract_y
  _atom_site_fract_z
  _atom_site_occupancy
  Ge  Ge1       1.0  0.2499999953158566  0.2499999147452719  0.25000004825336886  1.0000
  Ge  Ge2       1.0  0.7499999499282908  0.7500000848155486  0.7500000723885519  1.0000
  B   B1        1.0  1.4808071815501555e-07  0.9999999765117424  7.514668935419509e-08  1.0000
  Cl  Cl1       1.0  0.22996645482871955  0.22996635534394202  0.7700335537466105  1.0000
  Cl  Cl2       1.0  0.7700335843075417  0.7700336559610091  0.22996632069819858  1.0000
  Cl  Cl3       1.0  0.7700335585065444  0.22996640949024524  0.22996645710382901  1.0000
  Cl  Cl4       1.0  0.22996636490928235  0.7700336057294144  0.7700335435634751  1.0000
  Cl  Cl5       1.0  0.22996638023733126  0.7700336155306429  0.22996639794684143  1.0000
  Cl  Cl6       1.0  0.7700335468693186  0.22996639968901705  0.770033556126194  1.0000
