data_image0
_chemical_formula_structural       Ge2BF6
_chemical_formula_sum              "Ge2 B1 F6"
_cell_length_a       5.281461878407082
_cell_length_b       5.281462756932471
_cell_length_c       5.281461965918138
_cell_angle_alpha    60.00000441457539
_cell_angle_beta     60.00000313217457
_cell_angle_gamma    60.00000403866767

_space_group_name_H-M_alt    "P 1"
_space_group_IT_number       1

loop_
  _space_group_symop_operation_xyz
  'x, y, z'

loop_
  _atom_site_type_symbol
  _atom_site_label
  _atom_site_symmetry_multiplicity
  _atom_site_fract_x
  _atom_site_fract_y
  _atom_site_fract_z
  _atom_site_occupancy
  Ge  Ge1       1.0  0.2500001289991479  0.24999981729545465  0.2500001041756932  1.0000
  Ge  Ge2       1.0  0.7499998657153475  0.7499999597364275  0.7499998629300326  1.0000
  B   B1        1.0  1.2599238750217164e-07  0.9999998515872031  0.9999998142950351  1.0000
  F   F1        1.0  0.22133898249429168  0.22133886836120253  0.7786609916078588  1.0000
  F   F2        1.0  0.7786610199234024  0.7786611544793729  0.22133907595173574  1.0000
  F   F3        1.0  0.7786609714150478  0.22133900396892192  0.2213390059803264  1.0000
  F   F4        1.0  0.22133888129026105  0.778661264680353  0.7786610684401449  1.0000
  F   F5        1.0  0.22133885948572637  0.7786612549710732  0.22133891866891192  1.0000
  F   F6        1.0  0.7786611325951847  0.22133885135170242  0.7786610763430861  1.0000
