data_image0
_chemical_formula_structural       Ge2BI6
_chemical_formula_sum              "Ge2 B1 I6"
_cell_length_a       7.276945220043391
_cell_length_b       7.2769449807847435
_cell_length_c       7.2769447574571675
_cell_angle_alpha    60.000001164652
_cell_angle_beta     59.99999949717537
_cell_angle_gamma    60.00000118001233

_space_group_name_H-M_alt    "P 1"
_space_group_IT_number       1

loop_
  _space_group_symop_operation_xyz
  'x, y, z'

loop_
  _atom_site_type_symbol
  _atom_site_label
  _atom_site_symmetry_multiplicity
  _atom_site_fract_x
  _atom_site_fract_y
  _atom_site_fract_z
  _atom_site_occupancy
  Ge  Ge1       1.0  0.2499999570550748  0.24999975587204057  0.25000010608957124  1.0000
  Ge  Ge2       1.0  0.7500001366791349  0.7499998230220049  0.7500000081256382  1.0000
  B   B1        1.0  4.5103988605212956e-08  0.9999999646559901  0.9999999855005881  1.0000
  I   I1        1.0  0.2413660343732933  0.24136613030321372  0.7586338860466769  1.0000
  I   I2        1.0  0.7586339176465703  0.7586339737018423  0.2413660790704994  1.0000
  I   I3        1.0  0.7586339521759455  0.24136612777135158  0.24136597462241574  1.0000
  I   I4        1.0  0.24136603967322354  0.758634023359052  0.7586339305269963  1.0000
  I   I5        1.0  0.24136603009513674  0.7586340880776634  0.24136610507457376  1.0000
  I   I6        1.0  0.7586338845291613  0.24136611859332824  0.7586339222274321  1.0000
