data_image0
_chemical_formula_structural       Ge2GaF6
_chemical_formula_sum              "Ge2 Ga1 F6"
_cell_length_a       5.41464811974759
_cell_length_b       5.414648616382779
_cell_length_c       5.414648176218062
_cell_angle_alpha    60.000000197417975
_cell_angle_beta     60.000000638871654
_cell_angle_gamma    60.00000018198061

_space_group_name_H-M_alt    "P 1"
_space_group_IT_number       1

loop_
  _space_group_symop_operation_xyz
  'x, y, z'

loop_
  _atom_site_type_symbol
  _atom_site_label
  _atom_site_symmetry_multiplicity
  _atom_site_fract_x
  _atom_site_fract_y
  _atom_site_fract_z
  _atom_site_occupancy
  Ge  Ge1       1.0  0.2500000548531191  0.2500000275207705  0.24999998586293204  1.0000
  Ge  Ge2       1.0  0.7499999738163372  0.7499999830382713  0.7500000122270655  1.0000
  Ga  Ga1       1.0  0.9999999926118538  0.9999999773808991  3.922571556967172e-09  1.0000
  F   F1        1.0  0.24653930031402374  0.24653925967522977  0.7534606957323412  1.0000
  F   F2        1.0  0.7534607144180823  0.753460773502915  0.24653925738625415  1.0000
  F   F3        1.0  0.7534606852028376  0.24653928833050026  0.24653930140932753  1.0000
  F   F4        1.0  0.2465393074719975  0.7534607086570818  0.7534607011484479  1.0000
  F   F5        1.0  0.2465392993293361  0.7534606796221682  0.24653926691679684  1.0000
  F   F6        1.0  0.7534606592247064  0.2465393173654144  0.7534607582419006  1.0000
