data_image0
_chemical_formula_structural       Ge2GaS6
_chemical_formula_sum              "Ge2 Ga1 S6"
_cell_length_a       6.310266801287728
_cell_length_b       6.310266752144505
_cell_length_c       6.310266643858461
_cell_angle_alpha    60.00000187574414
_cell_angle_beta     60.00000086983838
_cell_angle_gamma    60.00000124359623

_space_group_name_H-M_alt    "P 1"
_space_group_IT_number       1

loop_
  _space_group_symop_operation_xyz
  'x, y, z'

loop_
  _atom_site_type_symbol
  _atom_site_label
  _atom_site_symmetry_multiplicity
  _atom_site_fract_x
  _atom_site_fract_y
  _atom_site_fract_z
  _atom_site_occupancy
  Ge  Ge1       1.0  0.24999987167223653  0.25000012206073474  0.2500002113969259  1.0000
  Ge  Ge2       1.0  0.7499998762705437  0.7499999721842691  0.7500002869511422  1.0000
  Ga  Ga1       1.0  5.8778030405636596e-08  0.9999999883547417  1.4466871943498575e-08  1.0000
  S   S1        1.0  0.26243962748461713  0.2624396319899515  0.7375602994370036  1.0000
  S   S2        1.0  0.7375603866243114  0.7375603225119374  0.26243961432696683  1.0000
  S   S3        1.0  0.7375602994427071  0.26243965335733677  0.26243953518885516  1.0000
  S   S4        1.0  0.2624396179967553  0.7375603166715629  0.7375603525881415  1.0000
  S   S5        1.0  0.26243975854788854  0.7375602786520787  0.2624395529910281  1.0000
  S   S6        1.0  0.737560491484989  0.2624397146673395  0.73756012514962  1.0000
