data_image0
_chemical_formula_structural       Ge2GaTe6
_chemical_formula_sum              "Ge2 Ga1 Te6"
_cell_length_a       7.149852017370983
_cell_length_b       7.149851910430221
_cell_length_c       7.14985195212115
_cell_angle_alpha    59.999999957385285
_cell_angle_beta     59.999999561255926
_cell_angle_gamma    59.99999959419576

_space_group_name_H-M_alt    "P 1"
_space_group_IT_number       1

loop_
  _space_group_symop_operation_xyz
  'x, y, z'

loop_
  _atom_site_type_symbol
  _atom_site_label
  _atom_site_symmetry_multiplicity
  _atom_site_fract_x
  _atom_site_fract_y
  _atom_site_fract_z
  _atom_site_occupancy
  Ge  Ge1       1.0  0.2500000503265802  0.24999995637273656  0.2499999793023519  1.0000
  Ge  Ge2       1.0  0.7499999387261941  0.7500000746740549  0.7500000097887952  1.0000
  Ga  Ga1       1.0  2.781323438232365e-08  3.768523819340898e-08  0.9999999728452851  1.0000
  Te  Te1       1.0  0.2720969903303531  0.27209696010327483  0.7279030526437597  1.0000
  Te  Te2       1.0  0.7279030144330079  0.7279030092767633  0.2720969915939691  1.0000
  Te  Te3       1.0  0.7279030160026531  0.2720969484687978  0.2720970010369201  1.0000
  Te  Te4       1.0  0.2720970136714597  0.7279029849389672  0.7279029913877244  1.0000
  Te  Te5       1.0  0.2720969756356611  0.7279030462665576  0.2720969572082898  1.0000
  Te  Te6       1.0  0.7279029775120744  0.27209697621540685  0.7279030499218996  1.0000
