data_image0
_chemical_formula_structural       Ge2GaI6
_chemical_formula_sum              "Ge2 Ga1 I6"
_cell_length_a       7.526483361958539
_cell_length_b       7.5264833708104035
_cell_length_c       7.5264832798226315
_cell_angle_alpha    60.00000053264225
_cell_angle_beta     60.000000799092604
_cell_angle_gamma    59.99999953177582

_space_group_name_H-M_alt    "P 1"
_space_group_IT_number       1

loop_
  _space_group_symop_operation_xyz
  'x, y, z'

loop_
  _atom_site_type_symbol
  _atom_site_label
  _atom_site_symmetry_multiplicity
  _atom_site_fract_x
  _atom_site_fract_y
  _atom_site_fract_z
  _atom_site_occupancy
  Ge  Ge1       1.0  0.24999996961483725  0.24999997829430243  0.2500000776241245  1.0000
  Ge  Ge2       1.0  0.7499999946497465  0.7499999674278497  0.7500000780350785  1.0000
  Ga  Ga1       1.0  0.999999966588287  3.579943786394289e-08  0.9999999775478693  1.0000
  I   I1        1.0  0.2571928486685722  0.2571928678512228  0.7428071256008808  1.0000
  I   I2        1.0  0.7428071501057815  0.7428071722512644  0.2571928168053928  1.0000
  I   I3        1.0  0.7428072039968517  0.2571928093046879  0.25719277496750276  1.0000
  I   I4        1.0  0.2571928163650996  0.7428071982528558  0.7428071383727579  1.0000
  I   I5        1.0  0.2571928637720955  0.7428071462541153  0.2571928087005492  1.0000
  I   I6        1.0  0.7428071788129342  0.2571928222494962  0.7428071967595695  1.0000
