data_image0
_chemical_formula_structural       Ge2IrCl6
_chemical_formula_sum              "Ge2 Ir1 Cl6"
_cell_length_a       6.542281063898429
_cell_length_b       6.542280985213819
_cell_length_c       6.542280952532768
_cell_angle_alpha    59.99999845269727
_cell_angle_beta     59.99999923000176
_cell_angle_gamma    59.99999903116269

_space_group_name_H-M_alt    "P 1"
_space_group_IT_number       1

loop_
  _space_group_symop_operation_xyz
  'x, y, z'

loop_
  _atom_site_type_symbol
  _atom_site_label
  _atom_site_symmetry_multiplicity
  _atom_site_fract_x
  _atom_site_fract_y
  _atom_site_fract_z
  _atom_site_occupancy
  Ge  Ge1       1.0  0.24999996375515746  0.2500000567413849  0.24999989744247914  1.0000
  Ge  Ge2       1.0  0.7499999064407465  0.7499999605550326  0.7500001044492546  1.0000
  Ir  Ir1       1.0  2.522669289356495e-08  3.744091222451956e-09  0.9999999992712776  1.0000
  Cl  Cl1       1.0  0.24810276457000785  0.248102749962728  0.7518972549780271  1.0000
  Cl  Cl2       1.0  0.751897274048593  0.7518972280207294  0.24810274349959255  1.0000
  Cl  Cl3       1.0  0.7518972730935203  0.24810275246635569  0.24810271544940143  1.0000
  Cl  Cl4       1.0  0.24810275637898027  0.7518972423655129  0.7518972944622515  1.0000
  Cl  Cl5       1.0  0.24810274878729444  0.7518972589685061  0.24810276723375355  1.0000
  Cl  Cl6       1.0  0.7518972867999248  0.2481027545838193  0.7518972226177167  1.0000
