data_image0
_chemical_formula_structural       Ge2IrI6
_chemical_formula_sum              "Ge2 Ir1 I6"
_cell_length_a       7.4218630308164855
_cell_length_b       7.421863052959273
_cell_length_c       7.42186308208256
_cell_angle_alpha    59.99999996383111
_cell_angle_beta     59.99999998776396
_cell_angle_gamma    60.000000113432456

_space_group_name_H-M_alt    "P 1"
_space_group_IT_number       1

loop_
  _space_group_symop_operation_xyz
  'x, y, z'

loop_
  _atom_site_type_symbol
  _atom_site_label
  _atom_site_symmetry_multiplicity
  _atom_site_fract_x
  _atom_site_fract_y
  _atom_site_fract_z
  _atom_site_occupancy
  Ge  Ge1       1.0  0.24999999147720126  0.24999997855145312  0.2500000329467006  1.0000
  Ge  Ge2       1.0  0.7499999989308618  0.7499999835097307  0.7500000545785634  1.0000
  Ir  Ir1       1.0  6.4119895178497335e-09  0.9999999900988887  0.9999999963550785  1.0000
  I   I1        1.0  0.25080743483792  0.2508074423553574  0.7491925482364578  1.0000
  I   I2        1.0  0.7491925645274974  0.7491925395080491  0.2508074238562242  1.0000
  I   I3        1.0  0.7491925395926275  0.25080746917322094  0.2508074221051304  1.0000
  I   I4        1.0  0.2508074426265004  0.749192568796483  0.7491925493707355  1.0000
  I   I5        1.0  0.2508074659239015  0.7491925703249225  0.250807421375478  1.0000
  I   I6        1.0  0.7491925565737158  0.2508074494927441  0.7491925579003506  1.0000
