data_image0
_chemical_formula_structural       Ge2IrBr6
_chemical_formula_sum              "Ge2 Ir1 Br6"
_cell_length_a       6.9910638929282305
_cell_length_b       6.991063961463545
_cell_length_c       6.991064204907012
_cell_angle_alpha    60.00000044682377
_cell_angle_beta     59.99999802886093
_cell_angle_gamma    60.00000033722559

_space_group_name_H-M_alt    "P 1"
_space_group_IT_number       1

loop_
  _space_group_symop_operation_xyz
  'x, y, z'

loop_
  _atom_site_type_symbol
  _atom_site_label
  _atom_site_symmetry_multiplicity
  _atom_site_fract_x
  _atom_site_fract_y
  _atom_site_fract_z
  _atom_site_occupancy
  Ge  Ge1       1.0  0.2500000722347286  0.24999992154598738  0.2500000248697194  1.0000
  Ge  Ge2       1.0  0.7499999687143659  0.7500000081481578  0.7500001054569219  1.0000
  Ir  Ir1       1.0  0.9999999896061492  0.9999999964962565  2.2683168462405142e-08  1.0000
  Br  Br1       1.0  0.24670787669874453  0.24670789617222147  0.7532920963254551  1.0000
  Br  Br2       1.0  0.7532920843999624  0.7532921789272885  0.24670781670243622  1.0000
  Br  Br3       1.0  0.7532921308910989  0.24670788045390793  0.2467078571270072  1.0000
  Br  Br4       1.0  0.2467078398686872  0.7532921210669824  0.7532921264803829  1.0000
  Br  Br5       1.0  0.2467078842438305  0.7532921144421543  0.2467079015105098  1.0000
  Br  Br6       1.0  0.7532921399536969  0.24670788532686452  0.753292066266727  1.0000
