data_image0
_chemical_formula_structural       Ge2MoBr6
_chemical_formula_sum              "Ge2 Mo1 Br6"
_cell_length_a       7.073898619156534
_cell_length_b       7.073898886648497
_cell_length_c       7.0738992433723045
_cell_angle_alpha    59.999997261805674
_cell_angle_beta     59.999997453126966
_cell_angle_gamma    59.99999819894255

_space_group_name_H-M_alt    "P 1"
_space_group_IT_number       1

loop_
  _space_group_symop_operation_xyz
  'x, y, z'

loop_
  _atom_site_type_symbol
  _atom_site_label
  _atom_site_symmetry_multiplicity
  _atom_site_fract_x
  _atom_site_fract_y
  _atom_site_fract_z
  _atom_site_occupancy
  Ge  Ge1       1.0  0.25000009789044225  0.24999969072251707  0.2500003699023132  1.0000
  Ge  Ge2       1.0  0.7500000754154085  0.750000074623643  0.7500003613676737  1.0000
  Mo  Mo1       1.0  0.999999957064077  2.597036574966455e-08  0.9999999689006482  1.0000
  Br  Br1       1.0  0.2525917565960078  0.2525917929823294  0.747408185233376  1.0000
  Br  Br2       1.0  0.747408262638903  0.7474082337988502  0.2525916243750018  1.0000
  Br  Br3       1.0  0.7474081867897523  0.25259184125912987  0.2525916369534048  1.0000
  Br  Br4       1.0  0.2525916831892148  0.7474084227180516  0.7474080240750264  1.0000
  Br  Br5       1.0  0.2525917710269387  0.7474082026083043  0.252591702590098  1.0000
  Br  Br6       1.0  0.7474082231146933  0.25259171336598585  0.7474081254907025  1.0000
