data_image0
_chemical_formula_structural       Ge2MoCl6
_chemical_formula_sum              "Ge2 Mo1 Cl6"
_cell_length_a       6.557560117979624
_cell_length_b       6.5575601837035915
_cell_length_c       6.55756029183162
_cell_angle_alpha    59.99999901790239
_cell_angle_beta     59.999999811749184
_cell_angle_gamma    60.000001823883814

_space_group_name_H-M_alt    "P 1"
_space_group_IT_number       1

loop_
  _space_group_symop_operation_xyz
  'x, y, z'

loop_
  _atom_site_type_symbol
  _atom_site_label
  _atom_site_symmetry_multiplicity
  _atom_site_fract_x
  _atom_site_fract_y
  _atom_site_fract_z
  _atom_site_occupancy
  Ge  Ge1       1.0  0.2499999517773053  0.24999987251982408  0.2500002688955496  1.0000
  Ge  Ge2       1.0  0.7500001298107293  0.7499998136662794  0.750000008684564  1.0000
  Mo  Mo1       1.0  0.9999999743163389  0.9999999925292639  6.842574959643729e-08  1.0000
  Cl  Cl1       1.0  0.2539892021011371  0.25398954767673776  0.7460105566925863  1.0000
  Cl  Cl2       1.0  0.7460106189939822  0.7460106558577655  0.2539893423667705  1.0000
  Cl  Cl3       1.0  0.7460105040687883  0.2539894346945512  0.2539894535027286  1.0000
  Cl  Cl4       1.0  0.25398957879473827  0.746010554056325  0.7460104174893681  1.0000
  Cl  Cl5       1.0  0.25398942786402806  0.7460105951259883  0.2539894453286088  1.0000
  Cl  Cl6       1.0  0.7460106097661596  0.25398951875969905  0.7460104345113875  1.0000
