data_image0
_chemical_formula_structural       Ge2MoI6
_chemical_formula_sum              "Ge2 Mo1 I6"
_cell_length_a       7.591593398857256
_cell_length_b       7.591593306656611
_cell_length_c       7.591593147015571
_cell_angle_alpha    60.00000121353525
_cell_angle_beta     60.00000103161026
_cell_angle_gamma    59.99999953353001

_space_group_name_H-M_alt    "P 1"
_space_group_IT_number       1

loop_
  _space_group_symop_operation_xyz
  'x, y, z'

loop_
  _atom_site_type_symbol
  _atom_site_label
  _atom_site_symmetry_multiplicity
  _atom_site_fract_x
  _atom_site_fract_y
  _atom_site_fract_z
  _atom_site_occupancy
  Ge  Ge1       1.0  0.2499999506405495  0.2500000347042732  0.2500000248440003  1.0000
  Ge  Ge2       1.0  0.7500000089115397  0.7500000073153615  0.7499999733044695  1.0000
  Mo  Mo1       1.0  0.9999999875708316  0.9999999870936723  0.9999999441709266  1.0000
  I   I1        1.0  0.25416151790144625  0.2541614458449368  0.745838532560885  1.0000
  I   I2        1.0  0.745838508960648  0.7458385493892603  0.25416146059428724  1.0000
  I   I3        1.0  0.7458385262280784  0.2541614836919636  0.2541614383450193  1.0000
  I   I4        1.0  0.25416141845115964  0.7458385938200721  0.7458385797903468  1.0000
  I   I5        1.0  0.25416148415603346  0.745838511759892  0.2541614172192779  1.0000
  I   I6        1.0  0.745838597879525  0.2541613818369759  0.7458386189265249  1.0000
