data_image0
_chemical_formula_structural       Ge2NO6
_chemical_formula_sum              "Ge2 N1 O6"
_cell_length_a       4.919246511274467
_cell_length_b       4.919246578136681
_cell_length_c       4.919246743209377
_cell_angle_alpha    60.000001268787095
_cell_angle_beta     59.999999082140654
_cell_angle_gamma    59.99999891164238

_space_group_name_H-M_alt    "P 1"
_space_group_IT_number       1

loop_
  _space_group_symop_operation_xyz
  'x, y, z'

loop_
  _atom_site_type_symbol
  _atom_site_label
  _atom_site_symmetry_multiplicity
  _atom_site_fract_x
  _atom_site_fract_y
  _atom_site_fract_z
  _atom_site_occupancy
  Ge  Ge1       1.0  0.24999977654310437  0.24999957809816017  0.2500003056991001  1.0000
  Ge  Ge2       1.0  0.7499996790730339  0.7499999816342122  0.7500001227712615  1.0000
  N   N1        1.0  0.9999965194063711  0.9999960762327528  3.8566755487251065e-06  1.0000
  O   O1        1.0  0.2334235806203866  0.2334240514351385  0.7665762049111677  1.0000
  O   O2        1.0  0.7665797247601832  0.7665792752133749  0.23342050872924552  1.0000
  O   O3        1.0  0.7665779427343531  0.23342229623578173  0.2334220561589182  1.0000
  O   O4        1.0  0.23342240792719446  0.7665781697474033  0.7665775773705938  1.0000
  O   O5        1.0  0.23342240559020105  0.7665782861272176  0.23342170668310738  1.0000
  O   O6        1.0  0.7665779043818128  0.23342234417616922  0.7665776902075598  1.0000
