data_image0
_chemical_formula_structural       Ge2NF6
_chemical_formula_sum              "Ge2 N1 F6"
_cell_length_a       5.227119281203131
_cell_length_b       5.22711919313624
_cell_length_c       5.227119553940122
_cell_angle_alpha    60.00000101724534
_cell_angle_beta     59.999999877385974
_cell_angle_gamma    60.00000088690719

_space_group_name_H-M_alt    "P 1"
_space_group_IT_number       1

loop_
  _space_group_symop_operation_xyz
  'x, y, z'

loop_
  _atom_site_type_symbol
  _atom_site_label
  _atom_site_symmetry_multiplicity
  _atom_site_fract_x
  _atom_site_fract_y
  _atom_site_fract_z
  _atom_site_occupancy
  Ge  Ge1       1.0  0.25000006870225466  0.2499998628915887  0.2500000899625831  1.0000
  Ge  Ge2       1.0  0.7499999930493362  0.7499999495058385  0.7499999147753014  1.0000
  N   N1        1.0  3.351487231916602e-08  1.874447347747312e-08  1.787161733302762e-08  1.0000
  F   F1        1.0  0.23499268979968516  0.23499271924224316  0.7650073110869128  1.0000
  F   F2        1.0  0.7650072139448693  0.7650073087166113  0.23499273565846276  1.0000
  F   F3        1.0  0.7650072861308067  0.2349927079731028  0.23499267901947576  1.0000
  F   F4        1.0  0.2349928150238466  0.7650072778106902  0.7650072499332922  1.0000
  F   F5        1.0  0.23499265419635734  0.7650073502270387  0.2349927189199582  1.0000
  F   F6        1.0  0.7650072861411659  0.23499276676805794  0.7650072841418097  1.0000
