data_image0
_chemical_formula_structural       Ge2NCl6
_chemical_formula_sum              "Ge2 N1 Cl6"
_cell_length_a       6.3475826593164335
_cell_length_b       6.347582310732696
_cell_length_c       6.347582549690659
_cell_angle_alpha    59.99999701537185
_cell_angle_beta     60.000000493184324
_cell_angle_gamma    60.00000061202923

_space_group_name_H-M_alt    "P 1"
_space_group_IT_number       1

loop_
  _space_group_symop_operation_xyz
  'x, y, z'

loop_
  _atom_site_type_symbol
  _atom_site_label
  _atom_site_symmetry_multiplicity
  _atom_site_fract_x
  _atom_site_fract_y
  _atom_site_fract_z
  _atom_site_occupancy
  Ge  Ge1       1.0  0.24999995305610026  0.2499999939097775  0.2500000569787603  1.0000
  Ge  Ge2       1.0  0.7500001092703226  0.74999993542214  0.7499999855425127  1.0000
  N   N1        1.0  2.618048524900203e-07  7.139028376790414e-08  0.9999995813379657  1.0000
  Cl  Cl1       1.0  0.2449744705686002  0.24497454314141776  0.7550255292139934  1.0000
  Cl  Cl2       1.0  0.7550253939152958  0.7550253630368918  0.24497463955937657  1.0000
  Cl  Cl3       1.0  0.7550253814280835  0.24497458433328562  0.2449746479668768  1.0000
  Cl  Cl4       1.0  0.24497445563650552  0.7550255514515671  0.7550254464947214  1.0000
  Cl  Cl5       1.0  0.24497454975771824  0.7550254340130851  0.24497462625708244  1.0000
  Cl  Cl6       1.0  0.7550254215938457  0.24497452811976386  0.7550254674067948  1.0000
