data_image0
_chemical_formula_structural       Ge2PCl6
_chemical_formula_sum              "Ge2 P1 Cl6"
_cell_length_a       6.486569366909167
_cell_length_b       6.486569227327535
_cell_length_c       6.486569161330098
_cell_angle_alpha    60.00000132374099
_cell_angle_beta     60.00000089167696
_cell_angle_gamma    60.00000314968943

_space_group_name_H-M_alt    "P 1"
_space_group_IT_number       1

loop_
  _space_group_symop_operation_xyz
  'x, y, z'

loop_
  _atom_site_type_symbol
  _atom_site_label
  _atom_site_symmetry_multiplicity
  _atom_site_fract_x
  _atom_site_fract_y
  _atom_site_fract_z
  _atom_site_occupancy
  Ge  Ge1       1.0  0.2500000144758492  0.24999986676176322  0.2500000330980538  1.0000
  Ge  Ge2       1.0  0.7499999456368034  0.7500001232956969  0.7500000331408005  1.0000
  P   P1        1.0  1.1615642299328324e-08  1.321686962899706e-08  0.9999999660006859  1.0000
  Cl  Cl1       1.0  0.2457629380770537  0.24576282170727376  0.7542371044871062  1.0000
  Cl  Cl2       1.0  0.754237090310315  0.7542371664620628  0.2457628144765726  1.0000
  Cl  Cl3       1.0  0.7542371861839811  0.24576280214866136  0.24576286687541973  1.0000
  Cl  Cl4       1.0  0.24576277727298582  0.7542371992375438  0.7542371611939647  1.0000
  Cl  Cl5       1.0  0.2457628335667736  0.7542372196799157  0.24576285577225507  1.0000
  Cl  Cl6       1.0  0.7542372082163773  0.24576278170629232  0.7542371701335643  1.0000
