data_image0
_chemical_formula_structural       Ge2PF6
_chemical_formula_sum              "Ge2 P1 F6"
_cell_length_a       5.274116848649928
_cell_length_b       7.9473226856829315
_cell_length_c       4.518539331295247
_cell_angle_alpha    70.70754287878917
_cell_angle_beta     69.6344112592531
_cell_angle_gamma    80.50375599709194

_space_group_name_H-M_alt    "P 1"
_space_group_IT_number       1

loop_
  _space_group_symop_operation_xyz
  'x, y, z'

loop_
  _atom_site_type_symbol
  _atom_site_label
  _atom_site_symmetry_multiplicity
  _atom_site_fract_x
  _atom_site_fract_y
  _atom_site_fract_z
  _atom_site_occupancy
  Ge  Ge1       1.0  0.22082606441884262  0.5158937611893761  0.12790027895423295  1.0000
  Ge  Ge2       1.0  0.5074373398049775  0.8169836560624029  0.27587673751394504  1.0000
  P   P1        1.0  0.8199113159581304  0.11664133263140439  0.8668745328198736  1.0000
  F   F1        1.0  0.14076736678940577  0.08055449568794572  0.8123292097190088  1.0000
  F   F2        1.0  0.8948715645889187  0.67793170408858  0.18171878441779682  1.0000
  F   F3        1.0  0.8111381939030077  0.3270685523344982  0.8272564897200412  1.0000
  F   F4        1.0  0.4607802310029761  0.7242348379371765  0.8938828613050329  1.0000
  F   F5        1.0  0.2971360195107468  0.5952740220910723  0.5161016077484823  1.0000
  F   F6        1.0  0.8441222293386924  0.14463882917973156  0.4890989203780678  1.0000
