data_image0
_chemical_formula_structural       Ge2PBr6
_chemical_formula_sum              "Ge2 P1 Br6"
_cell_length_a       6.931727344014991
_cell_length_b       6.931727474586723
_cell_length_c       6.931727367025293
_cell_angle_alpha    59.999998356522774
_cell_angle_beta     59.99999963588724
_cell_angle_gamma    59.999998939580905

_space_group_name_H-M_alt    "P 1"
_space_group_IT_number       1

loop_
  _space_group_symop_operation_xyz
  'x, y, z'

loop_
  _atom_site_type_symbol
  _atom_site_label
  _atom_site_symmetry_multiplicity
  _atom_site_fract_x
  _atom_site_fract_y
  _atom_site_fract_z
  _atom_site_occupancy
  Ge  Ge1       1.0  0.24999986274887223  0.2500001210207215  0.2499999886265878  1.0000
  Ge  Ge2       1.0  0.7500000946096327  0.7500001033325385  0.749999663675482  1.0000
  P   P1        1.0  3.41074414554812e-08  0.9999999876319187  1.4637828186089697e-07  1.0000
  Br  Br1       1.0  0.25215213764688327  0.25215210350758055  0.7478479315202828  1.0000
  Br  Br2       1.0  0.7478478472107738  0.7478478434473627  0.25215215445672984  1.0000
  Br  Br3       1.0  0.7478479088225221  0.25215197759691027  0.2521522095638329  1.0000
  Br  Br4       1.0  0.2521521508295821  0.7478479198857226  0.7478478724079632  1.0000
  Br  Br5       1.0  0.25215207842468346  0.7478478060814229  0.25215217454054417  1.0000
  Br  Br6       1.0  0.7478478785009028  0.2521521497078632  0.747847856066449  1.0000
