data_image0
_chemical_formula_structural       Ge2RhI6
_chemical_formula_sum              "Ge2 Rh1 I6"
_cell_length_a       7.411599370293132
_cell_length_b       7.4115993470647465
_cell_length_c       7.411599426239846
_cell_angle_alpha    59.999999372623336
_cell_angle_beta     59.999999203766066
_cell_angle_gamma    60.00000025139548

_space_group_name_H-M_alt    "P 1"
_space_group_IT_number       1

loop_
  _space_group_symop_operation_xyz
  'x, y, z'

loop_
  _atom_site_type_symbol
  _atom_site_label
  _atom_site_symmetry_multiplicity
  _atom_site_fract_x
  _atom_site_fract_y
  _atom_site_fract_z
  _atom_site_occupancy
  Ge  Ge1       1.0  0.24999998935684087  0.24999996922032616  0.25000002143864947  1.0000
  Ge  Ge2       1.0  0.7499999895336426  0.7500000349012017  0.7499999656780206  1.0000
  Rh  Rh1       1.0  0.9999999860728297  0.9999999950425885  3.777625613456149e-08  1.0000
  I   I1        1.0  0.2502376034796038  0.250237559247817  0.7497624243380435  1.0000
  I   I2        1.0  0.7497624031869282  0.7497624316539476  0.2502375919298677  1.0000
  I   I3        1.0  0.7497623986312397  0.25023760671696765  0.2502376050844783  1.0000
  I   I4        1.0  0.25023763406436417  0.7497623808798564  0.7497623836305298  1.0000
  I   I5        1.0  0.2502376113365755  0.749762401229467  0.2502375998059353  1.0000
  I   I6        1.0  0.749762391552484  0.2502376243741767  0.7497623686180981  1.0000
