data_image0
_chemical_formula_structural       Ge2RuCl6
_chemical_formula_sum              "Ge2 Ru1 Cl6"
_cell_length_a       6.518442840702543
_cell_length_b       6.518443115034966
_cell_length_c       6.51844296346344
_cell_angle_alpha    60.000001515829304
_cell_angle_beta     60.00000174560222
_cell_angle_gamma    60.000002331194054

_space_group_name_H-M_alt    "P 1"
_space_group_IT_number       1

loop_
  _space_group_symop_operation_xyz
  'x, y, z'

loop_
  _atom_site_type_symbol
  _atom_site_label
  _atom_site_symmetry_multiplicity
  _atom_site_fract_x
  _atom_site_fract_y
  _atom_site_fract_z
  _atom_site_occupancy
  Ge  Ge1       1.0  0.24999995593338178  0.25000013125248216  0.25000012310863945  1.0000
  Ge  Ge2       1.0  0.7499999569892685  0.7499998657888898  0.7499996621139844  1.0000
  Ru  Ru1       1.0  1.084352755165234e-08  0.9999999887266501  0.9999999910102592  1.0000
  Cl  Cl1       1.0  0.25064038809898015  0.25064043098862343  0.749359494574596  1.0000
  Cl  Cl2       1.0  0.7493595768216241  0.7493595641738572  0.2506406414451267  1.0000
  Cl  Cl3       1.0  0.7493596033937868  0.2506403329641841  0.25064046452604327  1.0000
  Cl  Cl4       1.0  0.25064051680533483  0.7493596321360309  0.7493595874080343  1.0000
  Cl  Cl5       1.0  0.250640418935917  0.7493594914616597  0.25064044838135935  1.0000
  Cl  Cl6       1.0  0.749359585026865  0.2506405619464629  0.7493595929711941  1.0000
