data_image0
_chemical_formula_structural       Ge2RuF6
_chemical_formula_sum              "Ge2 Ru1 F6"
_cell_length_a       5.592445031590152
_cell_length_b       5.592463098393206
_cell_length_c       5.592442868422641
_cell_angle_alpha    59.99987030044508
_cell_angle_beta     59.999753097007435
_cell_angle_gamma    60.000015082901086

_space_group_name_H-M_alt    "P 1"
_space_group_IT_number       1

loop_
  _space_group_symop_operation_xyz
  'x, y, z'

loop_
  _atom_site_type_symbol
  _atom_site_label
  _atom_site_symmetry_multiplicity
  _atom_site_fract_x
  _atom_site_fract_y
  _atom_site_fract_z
  _atom_site_occupancy
  Ge  Ge1       1.0  0.2503257255559883  0.2500292158425724  0.2495805658221278  1.0000
  Ge  Ge2       1.0  0.750323377299369  0.7500380603182113  0.7495742535486861  1.0000
  Ru  Ru1       1.0  0.9999433201058929  0.9999942336263908  7.385042366850126e-05  1.0000
  F   F1        1.0  0.24866611252149068  0.24872935608499563  0.7513565855694136  1.0000
  F   F2        1.0  0.7510994208617956  0.7511624144600336  0.24891949872201458  1.0000
  F   F3        1.0  0.7510950246246711  0.2488300554580486  0.2489250537975413  1.0000
  F   F4        1.0  0.24866046952825763  0.7512587616961136  0.7513605243758688  1.0000
  F   F5        1.0  0.2487276978609928  0.7511956908834984  0.24888817346510378  1.0000
  F   F6        1.0  0.7511584428694726  0.24876254161083922  0.7513212799801008  1.0000
