data_image0
_chemical_formula_structural       Ge2RhBr6
_chemical_formula_sum              "Ge2 Rh1 Br6"
_cell_length_a       6.935816305144088
_cell_length_b       6.935816453257204
_cell_length_c       6.9358162506788394
_cell_angle_alpha    59.999998886678696
_cell_angle_beta     59.99999863065996
_cell_angle_gamma    59.99999915098353

_space_group_name_H-M_alt    "P 1"
_space_group_IT_number       1

loop_
  _space_group_symop_operation_xyz
  'x, y, z'

loop_
  _atom_site_type_symbol
  _atom_site_label
  _atom_site_symmetry_multiplicity
  _atom_site_fract_x
  _atom_site_fract_y
  _atom_site_fract_z
  _atom_site_occupancy
  Ge  Ge1       1.0  0.24999999820655844  0.24999996871946703  0.24999999722587654  1.0000
  Ge  Ge2       1.0  0.7499998836062618  0.7500003440833863  0.7499997936188453  1.0000
  Rh  Rh1       1.0  3.008538725692477e-08  0.9999999646834689  2.6155721199676513e-09  1.0000
  Br  Br1       1.0  0.24741326914918046  0.24741314597019634  0.7525867695482871  1.0000
  Br  Br2       1.0  0.7525867785820286  0.752586788945772  0.2474132772269891  1.0000
  Br  Br3       1.0  0.7525867953652075  0.2474131568088165  0.24741328882726735  1.0000
  Br  Br4       1.0  0.2474132541318286  0.7525867728096728  0.7525867251108421  1.0000
  Br  Br5       1.0  0.24741319035916573  0.7525867692478652  0.2474133035763101  1.0000
  Br  Br6       1.0  0.7525867977755227  0.24741308973756143  0.7525868282639956  1.0000
