data_image0
_chemical_formula_structural       Ge2RuI6
_chemical_formula_sum              "Ge2 Ru1 I6"
_cell_length_a       7.4285421933492675
_cell_length_b       7.428542316407884
_cell_length_c       7.428542200712894
_cell_angle_alpha    60.000000019390235
_cell_angle_beta     60.00000014638205
_cell_angle_gamma    59.999999571003805

_space_group_name_H-M_alt    "P 1"
_space_group_IT_number       1

loop_
  _space_group_symop_operation_xyz
  'x, y, z'

loop_
  _atom_site_type_symbol
  _atom_site_label
  _atom_site_symmetry_multiplicity
  _atom_site_fract_x
  _atom_site_fract_y
  _atom_site_fract_z
  _atom_site_occupancy
  Ge  Ge1       1.0  0.24999999325583155  0.25000000306738035  0.24999998369210266  1.0000
  Ge  Ge2       1.0  0.7500000390398607  0.749999971282006  0.7500000211697413  1.0000
  Ru  Ru1       1.0  2.075690620114044e-08  0.9999999983512983  3.9074892299891215e-09  1.0000
  I   I1        1.0  0.25092498084320886  0.250924972551687  0.7490750320292469  1.0000
  I   I2        1.0  0.7490750207090769  0.7490750380691324  0.250924955260833  1.0000
  I   I3        1.0  0.7490750430138087  0.25092498314746825  0.2509249409453429  1.0000
  I   I4        1.0  0.2509249284551071  0.7490750291220527  0.7490750807544585  1.0000
  I   I5        1.0  0.2509249369355926  0.7490750289618154  0.2509249456514325  1.0000
  I   I6        1.0  0.7490750393851366  0.2509249734154969  0.749075035491474  1.0000
