data_image0
_chemical_formula_structural       Hf2AsSe6
_chemical_formula_sum              "Hf2 As1 Se6"
_cell_length_a       6.472126376592142
_cell_length_b       6.472126302021482
_cell_length_c       6.472126300081722
_cell_angle_alpha    59.99999982295826
_cell_angle_beta     60.00000081649897
_cell_angle_gamma    59.99999914740981

_space_group_name_H-M_alt    "P 1"
_space_group_IT_number       1

loop_
  _space_group_symop_operation_xyz
  'x, y, z'

loop_
  _atom_site_type_symbol
  _atom_site_label
  _atom_site_symmetry_multiplicity
  _atom_site_fract_x
  _atom_site_fract_y
  _atom_site_fract_z
  _atom_site_occupancy
  Hf  Hf1       1.0  0.24999951300280854  0.2500003443576372  0.25000017528490587  1.0000
  Hf  Hf2       1.0  0.7500002654182365  0.7499999109166258  0.7499995222583383  1.0000
  As  As1       1.0  0.9999999237871231  3.5954417589780924e-08  0.9999999969529202  1.0000
  Se  Se1       1.0  0.2577099121843139  0.2577098133960169  0.7422900897639954  1.0000
  Se  Se2       1.0  0.7422902132454149  0.7422899896095241  0.25771006831231097  1.0000
  Se  Se3       1.0  0.7422902495031283  0.25770989934094396  0.25770989224353863  1.0000
  Se  Se4       1.0  0.25770992987970326  0.7422900682979788  0.7422902121626673  1.0000
  Se  Se5       1.0  0.2577097286782868  0.7422900019798687  0.2577100681920033  1.0000
  Se  Se6       1.0  0.7422902669594655  0.25770993348931487  0.7422899742120109  1.0000
