data_image0
_chemical_formula_structural       Hf2AsO6
_chemical_formula_sum              "Hf2 As1 O6"
_cell_length_a       4.931695168862801
_cell_length_b       4.931695290568246
_cell_length_c       4.931695091501722
_cell_angle_alpha    60.00000015076816
_cell_angle_beta     60.000000203225646
_cell_angle_gamma    59.99999935322162

_space_group_name_H-M_alt    "P 1"
_space_group_IT_number       1

loop_
  _space_group_symop_operation_xyz
  'x, y, z'

loop_
  _atom_site_type_symbol
  _atom_site_label
  _atom_site_symmetry_multiplicity
  _atom_site_fract_x
  _atom_site_fract_y
  _atom_site_fract_z
  _atom_site_occupancy
  Hf  Hf1       1.0  0.25000002687344913  0.2500000114758638  0.24999993221545794  1.0000
  Hf  Hf2       1.0  0.7500000310251403  0.7500000567783297  0.7499999907339416  1.0000
  As  As1       1.0  1.596361990712849e-08  2.235074032401496e-08  0.9999999240672091  1.0000
  O   O1        1.0  0.2576612057149103  0.25766113110112165  0.7423388283662467  1.0000
  O   O2        1.0  0.7423387454740944  0.7423388850013465  0.25766121254011587  1.0000
  O   O3        1.0  0.742338913654195  0.2576611798211527  0.2576610719169582  1.0000
  O   O4        1.0  0.2576610744532493  0.7423388238642374  0.7423389445725214  1.0000
  O   O5        1.0  0.25766106176769127  0.7423388173770726  0.2576611982045608  1.0000
  O   O6        1.0  0.7423389175666907  0.2576611142892669  0.7423388627363767  1.0000
