data_image0
_chemical_formula_structural       Hf2AsS6
_chemical_formula_sum              "Hf2 As1 S6"
_cell_length_a       6.227552629975858
_cell_length_b       6.2275525605735655
_cell_length_c       6.22755261768763
_cell_angle_alpha    59.99999962527783
_cell_angle_beta     59.99999925058583
_cell_angle_gamma    59.99999938470389

_space_group_name_H-M_alt    "P 1"
_space_group_IT_number       1

loop_
  _space_group_symop_operation_xyz
  'x, y, z'

loop_
  _atom_site_type_symbol
  _atom_site_label
  _atom_site_symmetry_multiplicity
  _atom_site_fract_x
  _atom_site_fract_y
  _atom_site_fract_z
  _atom_site_occupancy
  Hf  Hf1       1.0  0.24999998811787058  0.25000001126638194  0.2500000100598608  1.0000
  Hf  Hf2       1.0  0.7499999870536759  0.750000010199283  0.7499999599757229  1.0000
  As  As1       1.0  4.026487346779357e-09  1.573324185340624e-08  1.9023945747738763e-08  1.0000
  S   S1        1.0  0.25821667806664594  0.2582166861167784  0.7417833069159369  1.0000
  S   S2        1.0  0.7417833301620189  0.7417833196156448  0.25821668978458756  1.0000
  S   S3        1.0  0.741783328158717  0.2582166534507814  0.2582166940739501  1.0000
  S   S4        1.0  0.2582166912143276  0.741783318848503  0.7417833185882556  1.0000
  S   S5        1.0  0.2582166897817506  0.7417832961177196  0.25821668661672426  1.0000
  S   S6        1.0  0.7417833076592572  0.25821669191480656  0.7417833179045085  1.0000
