data_image0
_chemical_formula_structural       Hf2GaS6
_chemical_formula_sum              "Hf2 Ga1 S6"
_cell_length_a       6.2436661486357785
_cell_length_b       6.243666200678727
_cell_length_c       6.243666178722305
_cell_angle_alpha    59.999999739747075
_cell_angle_beta     59.99999971646404
_cell_angle_gamma    60.000000788238694

_space_group_name_H-M_alt    "P 1"
_space_group_IT_number       1

loop_
  _space_group_symop_operation_xyz
  'x, y, z'

loop_
  _atom_site_type_symbol
  _atom_site_label
  _atom_site_symmetry_multiplicity
  _atom_site_fract_x
  _atom_site_fract_y
  _atom_site_fract_z
  _atom_site_occupancy
  Hf  Hf1       1.0  0.2500000300529176  0.2499999360401299  0.24999999048378888  1.0000
  Hf  Hf2       1.0  0.749999973698006  0.7500000964725996  0.7500000728955375  1.0000
  Ga  Ga1       1.0  0.999999888251004  4.1193171625929993e-08  1.4739152934720517e-07  1.0000
  S   S1        1.0  0.259357263703565  0.25935720084889785  0.7406427429226144  1.0000
  S   S2        1.0  0.7406427409063402  0.7406428512796289  0.2593571484553891  1.0000
  S   S3        1.0  0.7406427972297094  0.25935721608743845  0.2593571314937585  1.0000
  S   S4        1.0  0.2593572949396762  0.7406426732299767  0.7406426982094286  1.0000
  S   S5        1.0  0.2593572313217933  0.7406428104078303  0.25935727653160134  1.0000
  S   S6        1.0  0.7406427671245617  0.25935717698856664  0.7406427896354523  1.0000
