data_image0
_chemical_formula_structural       Hf2GaSe6
_chemical_formula_sum              "Hf2 Ga1 Se6"
_cell_length_a       6.511593738031615
_cell_length_b       6.511593765788546
_cell_length_c       6.5115938088972545
_cell_angle_alpha    59.99999920701181
_cell_angle_beta     59.99999933895846
_cell_angle_gamma    59.999999821470254

_space_group_name_H-M_alt    "P 1"
_space_group_IT_number       1

loop_
  _space_group_symop_operation_xyz
  'x, y, z'

loop_
  _atom_site_type_symbol
  _atom_site_label
  _atom_site_symmetry_multiplicity
  _atom_site_fract_x
  _atom_site_fract_y
  _atom_site_fract_z
  _atom_site_occupancy
  Hf  Hf1       1.0  0.25000003331208276  0.24999992606474325  0.24999997651064854  1.0000
  Hf  Hf2       1.0  0.7500001482577311  0.750000096060932  0.7500000351536492  1.0000
  Ga  Ga1       1.0  3.7346856629219064e-08  0.999999994357396  0.999999967254928  1.0000
  Se  Se1       1.0  0.26082273927885796  0.2608227260561585  0.7391772657770219  1.0000
  Se  Se2       1.0  0.7391772382539535  0.7391773017121216  0.260822605511792  1.0000
  Se  Se3       1.0  0.739177230464978  0.2608226666688225  0.26082282187571065  1.0000
  Se  Se4       1.0  0.2608226627208968  0.73917728962647  0.7391772747524094  1.0000
  Se  Se5       1.0  0.2608226456719162  0.739177318527082  0.2608227888920563  1.0000
  Se  Se6       1.0  0.7391772566662501  0.26082268478991233  0.7391772642918435  1.0000
