data_image0
_chemical_formula_structural       Hf2GaO6
_chemical_formula_sum              "Hf2 Ga1 O6"
_cell_length_a       4.929820766228267
_cell_length_b       4.929820902969799
_cell_length_c       4.929820642008202
_cell_angle_alpha    59.999999750825886
_cell_angle_beta     60.000000196441384
_cell_angle_gamma    59.99999946292587

_space_group_name_H-M_alt    "P 1"
_space_group_IT_number       1

loop_
  _space_group_symop_operation_xyz
  'x, y, z'

loop_
  _atom_site_type_symbol
  _atom_site_label
  _atom_site_symmetry_multiplicity
  _atom_site_fract_x
  _atom_site_fract_y
  _atom_site_fract_z
  _atom_site_occupancy
  Hf  Hf1       1.0  0.24999991750867867  0.2500000581268018  0.25000003539423504  1.0000
  Hf  Hf2       1.0  0.7500000233330888  0.750000057615494  0.7499999906206788  1.0000
  Ga  Ga1       1.0  1.545011319395452e-08  0.999999967703323  0.9999999982809256  1.0000
  O   O1        1.0  0.2603197286101655  0.2603196336933457  0.7396803436793236  1.0000
  O   O2        1.0  0.7396803419824631  0.7396803106281258  0.26031962608866216  1.0000
  O   O3        1.0  0.7396802838713098  0.26031967338845896  0.26031968312476716  1.0000
  O   O4        1.0  0.26031970786326825  0.7396803529168858  0.7396802871087776  1.0000
  O   O5        1.0  0.2603196734204232  0.7396803179141068  0.2603196712913005  1.0000
  O   O6        1.0  0.7396803075973506  0.26031965621968245  0.7396803425572532  1.0000
