data_image0
_chemical_formula_structural       Hf2GaTe6
_chemical_formula_sum              "Hf2 Ga1 Te6"
_cell_length_a       7.105053622526629
_cell_length_b       7.105053569437875
_cell_length_c       7.1050536022872715
_cell_angle_alpha    60.000000400652596
_cell_angle_beta     60.00000071476979
_cell_angle_gamma    59.99999966620344

_space_group_name_H-M_alt    "P 1"
_space_group_IT_number       1

loop_
  _space_group_symop_operation_xyz
  'x, y, z'

loop_
  _atom_site_type_symbol
  _atom_site_label
  _atom_site_symmetry_multiplicity
  _atom_site_fract_x
  _atom_site_fract_y
  _atom_site_fract_z
  _atom_site_occupancy
  Hf  Hf1       1.0  0.24999999495814929  0.24999984227211886  0.2500000693677902  1.0000
  Hf  Hf2       1.0  0.7499998916896032  0.749999981890542  0.750000110198188  1.0000
  Ga  Ga1       1.0  2.5805744645143982e-08  1.0342595133026664e-08  2.9779093463897192e-08  1.0000
  Te  Te1       1.0  0.26144107541418393  0.26144106419552254  0.7385589406378159  1.0000
  Te  Te2       1.0  0.738558887481806  0.7385589943992933  0.26144105966133574  1.0000
  Te  Te3       1.0  0.7385589905172548  0.26144106556427443  0.26144099622389294  1.0000
  Te  Te4       1.0  0.26144112115755247  0.7385589464888622  0.7385588839916932  1.0000
  Te  Te5       1.0  0.26144103251532824  0.7385590376967622  0.2614410128438479  1.0000
  Te  Te6       1.0  0.7385589724213113  0.26144106054466765  0.73855889735096  1.0000
