data_image0
_chemical_formula_structural       Hf2NO6
_chemical_formula_sum              "Hf2 N1 O6"
_cell_length_a       4.597094142661767
_cell_length_b       4.597093865421247
_cell_length_c       4.597094074922747
_cell_angle_alpha    59.999998695534664
_cell_angle_beta     59.999998674177505
_cell_angle_gamma    59.99999792712704

_space_group_name_H-M_alt    "P 1"
_space_group_IT_number       1

loop_
  _space_group_symop_operation_xyz
  'x, y, z'

loop_
  _atom_site_type_symbol
  _atom_site_label
  _atom_site_symmetry_multiplicity
  _atom_site_fract_x
  _atom_site_fract_y
  _atom_site_fract_z
  _atom_site_occupancy
  Hf  Hf1       1.0  0.24999983492965375  0.2500002156111572  0.24999978516486027  1.0000
  Hf  Hf2       1.0  0.7500000438785686  0.7499997303582939  0.7500003990752354  1.0000
  N   N1        1.0  0.9999995083912224  3.1437229829829853e-07  0.9999996035291964  1.0000
  O   O1        1.0  0.2574064126606345  0.25740631208352965  0.7425937095597429  1.0000
  O   O2        1.0  0.7425938069651361  0.7425937191394257  0.2574062290155136  1.0000
  O   O3        1.0  0.742593795797053  0.25740635937006545  0.25740626178816506  1.0000
  O   O4        1.0  0.25740630580001145  0.7425936265619649  0.742593695363579  1.0000
  O   O5        1.0  0.257406490426652  0.7425934835836937  0.25740647069965233  1.0000
  O   O6        1.0  0.7425938060552896  0.25740624925199435  0.7425937983451601  1.0000
