data_image0
_chemical_formula_structural       Hf2SbS6
_chemical_formula_sum              "Hf2 Sb1 S6"
_cell_length_a       6.443124125045194
_cell_length_b       6.443124118428171
_cell_length_c       6.443123990080112
_cell_angle_alpha    60.000001461503125
_cell_angle_beta     60.00000083659293
_cell_angle_gamma    60.000001585406444

_space_group_name_H-M_alt    "P 1"
_space_group_IT_number       1

loop_
  _space_group_symop_operation_xyz
  'x, y, z'

loop_
  _atom_site_type_symbol
  _atom_site_label
  _atom_site_symmetry_multiplicity
  _atom_site_fract_x
  _atom_site_fract_y
  _atom_site_fract_z
  _atom_site_occupancy
  Hf  Hf1       1.0  0.25000040675889423  0.2500003091262931  0.24999961202208462  1.0000
  Hf  Hf2       1.0  0.7499996709547415  0.7500001290195196  0.7500000502599935  1.0000
  Sb  Sb1       1.0  2.3695413455924008e-08  4.181882327574484e-08  0.9999999812112612  1.0000
  S   S1        1.0  0.2648599233599092  0.26485978258337867  0.7351402839376091  1.0000
  S   S2        1.0  0.735140211295729  0.735140081504048  0.2648597765864511  1.0000
  S   S3        1.0  0.7351399098868773  0.2648597426564849  0.26485995495876974  1.0000
  S   S4        1.0  0.2648600071242686  0.7351400377932936  0.7351402143012219  1.0000
  S   S5        1.0  0.26485987699534197  0.7351399691409428  0.2648598418795637  1.0000
  S   S6        1.0  0.7351399819776273  0.26485991015332555  0.7351402852486816  1.0000
