data_image0
_chemical_formula_structural       Hf2SbO6
_chemical_formula_sum              "Hf2 Sb1 O6"
_cell_length_a       5.02778502661323
_cell_length_b       5.0277851428512825
_cell_length_c       5.027785072071072
_cell_angle_alpha    59.99999955339237
_cell_angle_beta     59.99999907546785
_cell_angle_gamma    59.99999991155429

_space_group_name_H-M_alt    "P 1"
_space_group_IT_number       1

loop_
  _space_group_symop_operation_xyz
  'x, y, z'

loop_
  _atom_site_type_symbol
  _atom_site_label
  _atom_site_symmetry_multiplicity
  _atom_site_fract_x
  _atom_site_fract_y
  _atom_site_fract_z
  _atom_site_occupancy
  Hf  Hf1       1.0  0.25000004346864557  0.2499999657113008  0.24999995749210832  1.0000
  Hf  Hf2       1.0  0.7500000895519918  0.7499999921360722  0.7499999229711604  1.0000
  Sb  Sb1       1.0  0.9999999866620134  0.9999999366652196  7.015954229372001e-08  1.0000
  O   O1        1.0  0.26856674662255253  0.26856670598766336  0.7314332681728697  1.0000
  O   O2        1.0  0.7314332724457432  0.7314333663495041  0.2685666995353577  1.0000
  O   O3        1.0  0.7314332897879577  0.2685667584988982  0.26856670810862354  1.0000
  O   O4        1.0  0.26856666300425014  0.731433216400146  0.7314333275340785  1.0000
  O   O5        1.0  0.2685666520449057  0.7314333613784632  0.2685667285148269  1.0000
  O   O6        1.0  0.7314332808417342  0.2685666939070327  0.7314332987658543  1.0000
