data_image0
_chemical_formula_structural       Hf2SbSe6
_chemical_formula_sum              "Hf2 Sb1 Se6"
_cell_length_a       6.7647390678463415
_cell_length_b       6.764739066233539
_cell_length_c       6.764738965354977
_cell_angle_alpha    60.00000043172471
_cell_angle_beta     59.999997571901105
_cell_angle_gamma    60.00000092828792

_space_group_name_H-M_alt    "P 1"
_space_group_IT_number       1

loop_
  _space_group_symop_operation_xyz
  'x, y, z'

loop_
  _atom_site_type_symbol
  _atom_site_label
  _atom_site_symmetry_multiplicity
  _atom_site_fract_x
  _atom_site_fract_y
  _atom_site_fract_z
  _atom_site_occupancy
  Hf  Hf1       1.0  0.2500001671838463  0.25000015747377363  0.24999920927975244  1.0000
  Hf  Hf2       1.0  0.75000050228844  0.7499997174497193  0.750000325814823  1.0000
  Sb  Sb1       1.0  1.038304933304355e-07  0.9999999855161329  0.9999999228051045  1.0000
  Se  Se1       1.0  0.2643622264018459  0.2643627303794951  0.7356377927539265  1.0000
  Se  Se2       1.0  0.7356375029188952  0.7356375428503608  0.26436216847989275  1.0000
  Se  Se3       1.0  0.7356375576782795  0.26436255468703707  0.26436239527059313  1.0000
  Se  Se4       1.0  0.26436225740973335  0.7356373383412825  0.7356378018755751  1.0000
  Se  Se5       1.0  0.2643623918112684  0.735637545280256  0.2643625699904894  1.0000
  Se  Se6       1.0  0.7356372900821037  0.26436244008272297  0.7356378042805584  1.0000
