data_image0
_chemical_formula_structural       Hf2SbTe6
_chemical_formula_sum              "Hf2 Sb1 Te6"
_cell_length_a       7.334360951703566
_cell_length_b       7.334361072837905
_cell_length_c       7.334360983712869
_cell_angle_alpha    59.99999894087484
_cell_angle_beta     59.999999584631134
_cell_angle_gamma    59.99999968732145

_space_group_name_H-M_alt    "P 1"
_space_group_IT_number       1

loop_
  _space_group_symop_operation_xyz
  'x, y, z'

loop_
  _atom_site_type_symbol
  _atom_site_label
  _atom_site_symmetry_multiplicity
  _atom_site_fract_x
  _atom_site_fract_y
  _atom_site_fract_z
  _atom_site_occupancy
  Hf  Hf1       1.0  0.25000001205715466  0.25000006560988597  0.249999991726912  1.0000
  Hf  Hf2       1.0  0.7500000054508672  0.7499999914353234  0.7500001327781177  1.0000
  Sb  Sb1       1.0  0.9999999682260745  1.5028853810382117e-08  1.9186394514994266e-10  1.0000
  Te  Te1       1.0  0.2675171323366688  0.26751718873962727  0.7324828599957475  1.0000
  Te  Te2       1.0  0.7324828955889802  0.7324827898215714  0.2675171022063518  1.0000
  Te  Te3       1.0  0.7324827897129706  0.2675171657025041  0.2675171965671755  1.0000
  Te  Te4       1.0  0.2675171702118338  0.7324828562753828  0.7324827847442282  1.0000
  Te  Te5       1.0  0.2675172091336819  0.7324827716576566  0.26751710743465507  1.0000
  Te  Te6       1.0  0.7324828271577152  0.2675171534676188  0.7324828186743844  1.0000
