data_image0
_chemical_formula_structural       Hg2AsI6
_chemical_formula_sum              "Hg2 As1 I6"
_cell_length_a       8.086034805445136
_cell_length_b       8.086034666713852
_cell_length_c       8.086034987920312
_cell_angle_alpha    60.000000512221
_cell_angle_beta     59.999997149263734
_cell_angle_gamma    59.99999790027069

_space_group_name_H-M_alt    "P 1"
_space_group_IT_number       1

loop_
  _space_group_symop_operation_xyz
  'x, y, z'

loop_
  _atom_site_type_symbol
  _atom_site_label
  _atom_site_symmetry_multiplicity
  _atom_site_fract_x
  _atom_site_fract_y
  _atom_site_fract_z
  _atom_site_occupancy
  Hg  Hg1       1.0  0.2500000001213027  0.24999996486652457  0.2500000090709462  1.0000
  Hg  Hg2       1.0  0.7499999955872821  0.750000020314871  0.7500000050812068  1.0000
  As  As1       1.0  1.0034980889552069e-07  5.452711890218151e-08  7.467564332661898e-08  1.0000
  I   I1        1.0  0.24765338654441638  0.247653413871502  0.7523466626006827  1.0000
  I   I2        1.0  0.7523465363500947  0.752346545560981  0.2476534799817686  1.0000
  I   I3        1.0  0.7523466670035054  0.24765334146226387  0.24765338706779222  1.0000
  I   I4        1.0  0.24765341291612794  0.7523465710163046  0.7523464914767409  1.0000
  I   I5        1.0  0.24765333386950164  0.752346673182075  0.24765345470808744  1.0000
  I   I6        1.0  0.7523465804692159  0.24765341045105682  0.7523464470203283  1.0000
