data_image0
_chemical_formula_structural       Hg2AsBr6
_chemical_formula_sum              "Hg2 As1 Br6"
_cell_length_a       7.665246555683781
_cell_length_b       7.665247033209758
_cell_length_c       7.665246719403291
_cell_angle_alpha    59.99999908394146
_cell_angle_beta     59.99999630613596
_cell_angle_gamma    60.000000965251814

_space_group_name_H-M_alt    "P 1"
_space_group_IT_number       1

loop_
  _space_group_symop_operation_xyz
  'x, y, z'

loop_
  _atom_site_type_symbol
  _atom_site_label
  _atom_site_symmetry_multiplicity
  _atom_site_fract_x
  _atom_site_fract_y
  _atom_site_fract_z
  _atom_site_occupancy
  Hg  Hg1       1.0  0.24999998047232647  0.25000004870872494  0.25000001856622045  1.0000
  Hg  Hg2       1.0  0.7499999824582579  0.7499999687715807  0.7499999659999979  1.0000
  As  As1       1.0  0.9999998931178804  1.8055016679942925e-07  4.7586962947808166e-07  1.0000
  Br  Br1       1.0  0.24119803283253335  0.24119785763358334  0.7588019735084847  1.0000
  Br  Br2       1.0  0.7588020322938478  0.7588019617208681  0.24119799118411195  1.0000
  Br  Br3       1.0  0.7588020917294681  0.24119794558227506  0.2411979251208131  1.0000
  Br  Br4       1.0  0.24119816802664046  0.7588019632483722  0.7588018622949011  1.0000
  Br  Br5       1.0  0.24119788115377308  0.7588021384947815  0.24119784021762306  1.0000
  Br  Br6       1.0  0.7588019377383802  0.24119795408161654  0.7588019413844869  1.0000
