data_image0
_chemical_formula_structural       Hg2AsBr6
_chemical_formula_sum              "Hg2 As1 Br6"
_cell_length_a       7.681298884490697
_cell_length_b       7.681298691206157
_cell_length_c       7.681298890226906
_cell_angle_alpha    59.999999849565015
_cell_angle_beta     59.99999938865142
_cell_angle_gamma    60.00000033419043

_space_group_name_H-M_alt    "P 1"
_space_group_IT_number       1

loop_
  _space_group_symop_operation_xyz
  'x, y, z'

loop_
  _atom_site_type_symbol
  _atom_site_label
  _atom_site_symmetry_multiplicity
  _atom_site_fract_x
  _atom_site_fract_y
  _atom_site_fract_z
  _atom_site_occupancy
  Hg  Hg1       1.0  0.24999998067776688  0.24999999040899787  0.2500000088102036  1.0000
  Hg  Hg2       1.0  0.7500000132936447  0.749999991954848  0.7499999973607325  1.0000
  As  As1       1.0  0.9999999978141679  0.9999999569498439  1.2806890930791182e-07  1.0000
  Br  Br1       1.0  0.24056567516580274  0.2405656826433798  0.7594342861337471  1.0000
  Br  Br2       1.0  0.7594343470314431  0.7594344224931363  0.24056561068949514  1.0000
  Br  Br3       1.0  0.7594343431645514  0.24056562166751486  0.24056567650438135  1.0000
  Br  Br4       1.0  0.240565662225931  0.7594343399684774  0.7594342887557355  1.0000
  Br  Br5       1.0  0.24056564733732214  0.7594343442284099  0.24056567862393466  1.0000
  Br  Br6       1.0  0.7594343483952707  0.24056565089103793  0.7594343020625257  1.0000
