data_image0
_chemical_formula_structural       Hg2BiCl6
_chemical_formula_sum              "Hg2 Bi1 Cl6"
_cell_length_a       7.48167179801256
_cell_length_b       7.481671787159441
_cell_length_c       7.481671917079045
_cell_angle_alpha    60.000000037332505
_cell_angle_beta     59.999999095942265
_cell_angle_gamma    59.99999844409575

_space_group_name_H-M_alt    "P 1"
_space_group_IT_number       1

loop_
  _space_group_symop_operation_xyz
  'x, y, z'

loop_
  _atom_site_type_symbol
  _atom_site_label
  _atom_site_symmetry_multiplicity
  _atom_site_fract_x
  _atom_site_fract_y
  _atom_site_fract_z
  _atom_site_occupancy
  Hg  Hg1       1.0  0.2500000073133498  0.2500000341829125  0.24999997320647432  1.0000
  Hg  Hg2       1.0  0.7499999865067373  0.7499999912331743  0.7500000317552499  1.0000
  Bi  Bi1       1.0  0.9999999824772394  1.6369937679885813e-09  0.9999999959134867  1.0000
  Cl  Cl1       1.0  0.24768572106450987  0.247685732164103  0.7523142675314111  1.0000
  Cl  Cl2       1.0  0.7523142544223516  0.7523142834300225  0.24768573279551165  1.0000
  Cl  Cl3       1.0  0.7523143220480651  0.24768567621015242  0.24768564981454314  1.0000
  Cl  Cl4       1.0  0.24768571246143212  0.7523143197400484  0.7523142533002446  1.0000
  Cl  Cl5       1.0  0.24768575368773998  0.7523142434926211  0.24768578912325098  1.0000
  Cl  Cl6       1.0  0.7523142700502761  0.2476856967997992  0.7523143075981242  1.0000
