data_image0
_chemical_formula_structural       Hg2BF6
_chemical_formula_sum              "Hg2 B1 F6"
_cell_length_a       5.2261443019607725
_cell_length_b       5.226144424429821
_cell_length_c       5.226144172237855
_cell_angle_alpha    60.00000180071886
_cell_angle_beta     60.000001520331395
_cell_angle_gamma    60.00000078799271

_space_group_name_H-M_alt    "P 1"
_space_group_IT_number       1

loop_
  _space_group_symop_operation_xyz
  'x, y, z'

loop_
  _atom_site_type_symbol
  _atom_site_label
  _atom_site_symmetry_multiplicity
  _atom_site_fract_x
  _atom_site_fract_y
  _atom_site_fract_z
  _atom_site_occupancy
  Hg  Hg1       1.0  0.24999999629767927  0.24999998755122244  0.25000001243897974  1.0000
  Hg  Hg2       1.0  0.749999996658701  0.7500000188975708  0.7500000435812876  1.0000
  B   B1        1.0  0.9999999841546303  0.9999999812520323  5.173888720497462e-08  1.0000
  F   F1        1.0  0.21407055013074933  0.214070550078092  0.7859294298813244  1.0000
  F   F2        1.0  0.7859294464404082  0.785929498553629  0.2140705056538046  1.0000
  F   F3        1.0  0.7859294333844191  0.21407057575263544  0.21407044784220255  1.0000
  F   F4        1.0  0.2140705954595758  0.7859294025742058  0.7859295086224041  1.0000
  F   F5        1.0  0.21407057054500103  0.7859294519733366  0.21407044858040514  1.0000
  F   F6        1.0  0.785929428258621  0.2140705568189527  0.7859295038447507  1.0000
