data_image0
_chemical_formula_structural       Hg2BiI6
_chemical_formula_sum              "Hg2 Bi1 I6"
_cell_length_a       8.481030051824646
_cell_length_b       8.481029781304247
_cell_length_c       8.481029929074278
_cell_angle_alpha    60.00000099100939
_cell_angle_beta     59.99999799026005
_cell_angle_gamma    60.000001266442126

_space_group_name_H-M_alt    "P 1"
_space_group_IT_number       1

loop_
  _space_group_symop_operation_xyz
  'x, y, z'

loop_
  _atom_site_type_symbol
  _atom_site_label
  _atom_site_symmetry_multiplicity
  _atom_site_fract_x
  _atom_site_fract_y
  _atom_site_fract_z
  _atom_site_occupancy
  Hg  Hg1       1.0  0.24999995810074743  0.25000001786721304  0.25000002271078925  1.0000
  Hg  Hg2       1.0  0.7500000354016872  0.7499999828407783  0.7499999545751517  1.0000
  Bi  Bi1       1.0  0.9999999189110218  2.065061854522443e-07  0.9999998653661737  1.0000
  I   I1        1.0  0.25643148418808215  0.25643149642196944  0.7435684856160351  1.0000
  I   I2        1.0  0.7435685366696464  0.7435684263046647  0.2564315334903652  1.0000
  I   I3        1.0  0.7435685932214624  0.25643141073426823  0.25643155890694597  1.0000
  I   I4        1.0  0.2564314037331248  0.7435685755327323  0.7435684710374969  1.0000
  I   I5        1.0  0.2564315524578877  0.7435683702312231  0.25643160268117204  1.0000
  I   I6        1.0  0.7435685087779349  0.256431529389827  0.7435685068335465  1.0000
