data_image0
_chemical_formula_structural       Hg2BiI6
_chemical_formula_sum              "Hg2 Bi1 I6"
_cell_length_a       8.472675393209133
_cell_length_b       8.47267601678892
_cell_length_c       8.472676270700807
_cell_angle_alpha    59.9999988419014
_cell_angle_beta     60.00000115754277
_cell_angle_gamma    60.00000573823256

_space_group_name_H-M_alt    "P 1"
_space_group_IT_number       1

loop_
  _space_group_symop_operation_xyz
  'x, y, z'

loop_
  _atom_site_type_symbol
  _atom_site_label
  _atom_site_symmetry_multiplicity
  _atom_site_fract_x
  _atom_site_fract_y
  _atom_site_fract_z
  _atom_site_occupancy
  Hg  Hg1       1.0  0.2499999731654753  0.24999985649596346  0.2500000551142481  1.0000
  Hg  Hg2       1.0  0.7499999308855784  0.7500001158956063  0.7499999395562176  1.0000
  Bi  Bi1       1.0  1.3083625085738536e-07  0.9999998568932214  1.654709916686256e-07  1.0000
  I   I1        1.0  0.2567357474698655  0.25673535591739216  0.7432644886605652  1.0000
  I   I2        1.0  0.7432641937773767  0.7432646193652235  0.25673561107433357  1.0000
  I   I3        1.0  0.7432643253839374  0.2567359297260621  0.2567355555458991  1.0000
  I   I4        1.0  0.2567357826957942  0.7432640397744711  0.743264442419039  1.0000
  I   I5        1.0  0.2567356191280435  0.7432642095739064  0.25673559666879153  1.0000
  I   I6        1.0  0.743264282922306  0.2567360345760007  0.7432641462766602  1.0000
