data_image0
_chemical_formula_structural       Hg2BiBr6
_chemical_formula_sum              "Hg2 Bi1 Br6"
_cell_length_a       7.747120866288933
_cell_length_b       7.747121184183011
_cell_length_c       7.747121645716093
_cell_angle_alpha    59.999997322045495
_cell_angle_beta     60.00000030954982
_cell_angle_gamma    60.00000865031336

_space_group_name_H-M_alt    "P 1"
_space_group_IT_number       1

loop_
  _space_group_symop_operation_xyz
  'x, y, z'

loop_
  _atom_site_type_symbol
  _atom_site_label
  _atom_site_symmetry_multiplicity
  _atom_site_fract_x
  _atom_site_fract_y
  _atom_site_fract_z
  _atom_site_occupancy
  Hg  Hg1       1.0  0.24999995736802275  0.24999999092689076  0.25000002714788017  1.0000
  Hg  Hg2       1.0  0.7500000449853806  0.7499999996560444  0.7499999970549267  1.0000
  Bi  Bi1       1.0  0.9999997756903831  0.999999908307578  7.750043627196397e-07  1.0000
  Br  Br1       1.0  0.25842961109120977  0.25842968873281624  0.7415703666907191  1.0000
  Br  Br2       1.0  0.7415704298624749  0.7415704140942513  0.25842950076935645  1.0000
  Br  Br3       1.0  0.7415702590843185  0.25842979845244335  0.2584297901938774  1.0000
  Br  Br4       1.0  0.25843009858179  0.7415699534141561  0.7415697768529426  1.0000
  Br  Br5       1.0  0.2584297980694558  0.741570202645176  0.2584298750252083  1.0000
  Br  Br6       1.0  0.7415700299378667  0.25843002033051454  0.7415699084627297  1.0000
