data_image0
_chemical_formula_structural       Hg2BiCl6
_chemical_formula_sum              "Hg2 Bi1 Cl6"
_cell_length_a       7.469157405038663
_cell_length_b       7.469157493018089
_cell_length_c       7.469156910746434
_cell_angle_alpha    60.00000072548373
_cell_angle_beta     59.99999940258358
_cell_angle_gamma    59.999997628923644

_space_group_name_H-M_alt    "P 1"
_space_group_IT_number       1

loop_
  _space_group_symop_operation_xyz
  'x, y, z'

loop_
  _atom_site_type_symbol
  _atom_site_label
  _atom_site_symmetry_multiplicity
  _atom_site_fract_x
  _atom_site_fract_y
  _atom_site_fract_z
  _atom_site_occupancy
  Hg  Hg1       1.0  0.24999996918342726  0.25000002142319616  0.25000000859924937  1.0000
  Hg  Hg2       1.0  0.7500000417994951  0.750000023276176  0.7500000407564481  1.0000
  Bi  Bi1       1.0  0.9999999668007494  1.147815865863051e-08  0.9999996815061054  1.0000
  Cl  Cl1       1.0  0.24812170091846608  0.2481217425778232  0.7518782426745557  1.0000
  Cl  Cl2       1.0  0.7518783774140851  0.7518783644315281  0.24812159725670274  1.0000
  Cl  Cl3       1.0  0.7518783254167581  0.24812166183226775  0.2481216675679862  1.0000
  Cl  Cl4       1.0  0.24812146188443146  0.7518784927294433  0.751878533754994  1.0000
  Cl  Cl5       1.0  0.24812165346440668  0.7518782618866977  0.2481216682436375  1.0000
  Cl  Cl6       1.0  0.7518784949428614  0.2481214401077816  0.7518785493554558  1.0000
