data_image0
_chemical_formula_structural       Hg2BCl6
_chemical_formula_sum              "Hg2 B1 Cl6"
_cell_length_a       7.432311028354546
_cell_length_b       7.432311426522833
_cell_length_c       7.432311653110694
_cell_angle_alpha    60.00000325626598
_cell_angle_beta     60.000006652168636
_cell_angle_gamma    60.000003489087156

_space_group_name_H-M_alt    "P 1"
_space_group_IT_number       1

loop_
  _space_group_symop_operation_xyz
  'x, y, z'

loop_
  _atom_site_type_symbol
  _atom_site_label
  _atom_site_symmetry_multiplicity
  _atom_site_fract_x
  _atom_site_fract_y
  _atom_site_fract_z
  _atom_site_occupancy
  Hg  Hg1       1.0  0.24999995677131803  0.24999999613082868  0.25000002701917784  1.0000
  Hg  Hg2       1.0  0.7499999790190026  0.7500000724336164  0.7499998931920586  1.0000
  B   B1        1.0  0.9999994514777616  0.9999981033069771  0.9999985504913804  1.0000
  Cl  Cl1       1.0  0.19864352133139265  0.19864362548583844  0.8013565449561159  1.0000
  Cl  Cl2       1.0  0.8013572950472972  0.801357464755111  0.19864273358235368  1.0000
  Cl  Cl3       1.0  0.8013564305350113  0.19864369984114705  0.19864367373558262  1.0000
  Cl  Cl4       1.0  0.19864237788228198  0.801357779296038  0.8013576454462521  1.0000
  Cl  Cl5       1.0  0.19864349262243333  0.8013564072078008  0.19864359728341616  1.0000
  Cl  Cl6       1.0  0.8013574864783094  0.19864285719837804  0.8013573308610222  1.0000
