data_image0
_chemical_formula_structural       Hg2BiBr6
_chemical_formula_sum              "Hg2 Bi1 Br6"
_cell_length_a       7.741238989320887
_cell_length_b       7.741238874779502
_cell_length_c       7.741238750092461
_cell_angle_alpha    59.9999998115877
_cell_angle_beta     60.000000931832915
_cell_angle_gamma    60.000000589040404

_space_group_name_H-M_alt    "P 1"
_space_group_IT_number       1

loop_
  _space_group_symop_operation_xyz
  'x, y, z'

loop_
  _atom_site_type_symbol
  _atom_site_label
  _atom_site_symmetry_multiplicity
  _atom_site_fract_x
  _atom_site_fract_y
  _atom_site_fract_z
  _atom_site_occupancy
  Hg  Hg1       1.0  0.25000001416646755  0.25000001649663434  0.24999999798445763  1.0000
  Hg  Hg2       1.0  0.7499999852464752  0.7499999751309921  0.7500000042126269  1.0000
  Bi  Bi1       1.0  0.9999999951658679  0.9999998623569115  0.9999998529272975  1.0000
  Br  Br1       1.0  0.25856218491711414  0.2585622118260769  0.7414377974468503  1.0000
  Br  Br2       1.0  0.7414378602526631  0.7414378573246697  0.25856214698560515  1.0000
  Br  Br3       1.0  0.7414377620341194  0.2585622559176536  0.25856223987570964  1.0000
  Br  Br4       1.0  0.2585621299948735  0.7414378654425386  0.7414378867842731  1.0000
  Br  Br5       1.0  0.2585622193512067  0.7414377553139796  0.25856226050883097  1.0000
  Br  Br6       1.0  0.7414378573857017  0.25856219676103476  0.7414378158109471  1.0000
