data_image0
_chemical_formula_structural       Hg2BI6
_chemical_formula_sum              "Hg2 B1 I6"
_cell_length_a       8.20925733672604
_cell_length_b       8.20925723025188
_cell_length_c       8.209257441624183
_cell_angle_alpha    59.99999961569908
_cell_angle_beta     59.99999833197701
_cell_angle_gamma    59.99999748227938

_space_group_name_H-M_alt    "P 1"
_space_group_IT_number       1

loop_
  _space_group_symop_operation_xyz
  'x, y, z'

loop_
  _atom_site_type_symbol
  _atom_site_label
  _atom_site_symmetry_multiplicity
  _atom_site_fract_x
  _atom_site_fract_y
  _atom_site_fract_z
  _atom_site_occupancy
  Hg  Hg1       1.0  0.24999998837091023  0.24999991073894862  0.2500001694719887  1.0000
  Hg  Hg2       1.0  0.750000104371597  0.7500001499508158  0.7499997536279921  1.0000
  B   B1        1.0  0.9999998009623781  0.9999999388318137  4.9705865652484655e-08  1.0000
  I   I1        1.0  0.21238268427959012  0.21238227212463567  0.7876175045156867  1.0000
  I   I2        1.0  0.7876175363281895  0.7876173036953303  0.21238257394195167  1.0000
  I   I3        1.0  0.7876178012791251  0.21238231547819617  0.21238268353098888  1.0000
  I   I4        1.0  0.21238221401596552  0.7876177496872925  0.7876174149224537  1.0000
  I   I5        1.0  0.2123821713505691  0.7876177558674688  0.2123827321485842  1.0000
  I   I6        1.0  0.7876177263837496  0.21238257336557026  0.7876170908407336  1.0000
