data_image0
_chemical_formula_structural       Hg2BiF6
_chemical_formula_sum              "Hg2 Bi1 F6"
_cell_length_a       6.616353388307064
_cell_length_b       6.616353558973536
_cell_length_c       6.616353416044266
_cell_angle_alpha    59.99999963703535
_cell_angle_beta     59.99999908930697
_cell_angle_gamma    60.0000001302023

_space_group_name_H-M_alt    "P 1"
_space_group_IT_number       1

loop_
  _space_group_symop_operation_xyz
  'x, y, z'

loop_
  _atom_site_type_symbol
  _atom_site_label
  _atom_site_symmetry_multiplicity
  _atom_site_fract_x
  _atom_site_fract_y
  _atom_site_fract_z
  _atom_site_occupancy
  Hg  Hg1       1.0  0.2499999438556242  0.25000005370662476  0.24999993605558846  1.0000
  Hg  Hg2       1.0  0.7500000087720327  0.7499999593513449  0.7500001151727312  1.0000
  Bi  Bi1       1.0  1.172355354895855e-08  0.9999999648293395  5.67792744958158e-09  1.0000
  F   F1        1.0  0.2245944321653732  0.22459438907978974  0.7754054840602154  1.0000
  F   F2        1.0  0.7754055587876297  0.7754055665944722  0.22459439683990387  1.0000
  F   F3        1.0  0.7754055856043276  0.22459448627599957  0.22459440551451806  1.0000
  F   F4        1.0  0.22459436439485744  0.7754056341450389  0.7754056341544796  1.0000
  F   F5        1.0  0.22459445259434158  0.775405633713394  0.22459439098325423  1.0000
  F   F6        1.0  0.7754056484830505  0.22459437379131308  0.7754056250705859  1.0000
