data_image0
_chemical_formula_structural       Hg2GaCl6
_chemical_formula_sum              "Hg2 Ga1 Cl6"
_cell_length_a       7.006979545456562
_cell_length_b       7.006979887693026
_cell_length_c       7.006979985068517
_cell_angle_alpha    60.00000567705515
_cell_angle_beta     60.00000106057069
_cell_angle_gamma    60.00000227438578

_space_group_name_H-M_alt    "P 1"
_space_group_IT_number       1

loop_
  _space_group_symop_operation_xyz
  'x, y, z'

loop_
  _atom_site_type_symbol
  _atom_site_label
  _atom_site_symmetry_multiplicity
  _atom_site_fract_x
  _atom_site_fract_y
  _atom_site_fract_z
  _atom_site_occupancy
  Hg  Hg1       1.0  0.24999996244420844  0.25000001735007  0.2500000643666941  1.0000
  Hg  Hg2       1.0  0.7499999743244605  0.7499999838823846  0.7499999367914099  1.0000
  Ga  Ga1       1.0  4.7989868182889864e-08  0.9999999895126338  0.9999998071366496  1.0000
  Cl  Cl1       1.0  0.23910178642798224  0.23910189440585117  0.7608982469730753  1.0000
  Cl  Cl2       1.0  0.7608981061293443  0.7608981208097566  0.23910197480848677  1.0000
  Cl  Cl3       1.0  0.760898129383175  0.23910203623599835  0.23910180774766876  1.0000
  Cl  Cl4       1.0  0.23910173890358147  0.7608980419037399  0.7608983647369999  1.0000
  Cl  Cl5       1.0  0.2391019257098342  0.760898074710919  0.23910186792887136  1.0000
  Cl  Cl6       1.0  0.7608983584234659  0.23910185835371447  0.7608978965847443  1.0000
