data_image0
_chemical_formula_structural       Hg2GaI6
_chemical_formula_sum              "Hg2 Ga1 I6"
_cell_length_a       7.889761940416777
_cell_length_b       7.889761913007564
_cell_length_c       7.88976136563247
_cell_angle_alpha    60.00000232050616
_cell_angle_beta     60.00000132790207
_cell_angle_gamma    59.99999738242363

_space_group_name_H-M_alt    "P 1"
_space_group_IT_number       1

loop_
  _space_group_symop_operation_xyz
  'x, y, z'

loop_
  _atom_site_type_symbol
  _atom_site_label
  _atom_site_symmetry_multiplicity
  _atom_site_fract_x
  _atom_site_fract_y
  _atom_site_fract_z
  _atom_site_occupancy
  Hg  Hg1       1.0  0.24999997148399414  0.25000004355459166  0.24999998632520845  1.0000
  Hg  Hg2       1.0  0.7500000169761536  0.7499999987164263  0.7500000003039877  1.0000
  Ga  Ga1       1.0  1.420463344598666e-09  0.9999999254885585  4.1615350875574336e-08  1.0000
  I   I1        1.0  0.24983419452805866  0.2498342019101006  0.7501658155492446  1.0000
  I   I2        1.0  0.750165891147376  0.7501658077621572  0.2498341413066184  1.0000
  I   I3        1.0  0.7501657656351224  0.24983413188849557  0.24983428801892466  1.0000
  I   I4        1.0  0.24983420752506294  0.7501658684698373  0.7501657779152139  1.0000
  I   I5        1.0  0.2498341908694366  0.750165912849139  0.24983414094558976  1.0000
  I   I6        1.0  0.7501657524872177  0.24983411545098524  0.7501658042427349  1.0000
