data_image0
_chemical_formula_structural       Hg2GaCl6
_chemical_formula_sum              "Hg2 Ga1 Cl6"
_cell_length_a       7.007276901618521
_cell_length_b       7.007276707774522
_cell_length_c       7.007278411388316
_cell_angle_alpha    59.999993551194876
_cell_angle_beta     59.99999445021034
_cell_angle_gamma    59.99999358233096

_space_group_name_H-M_alt    "P 1"
_space_group_IT_number       1

loop_
  _space_group_symop_operation_xyz
  'x, y, z'

loop_
  _atom_site_type_symbol
  _atom_site_label
  _atom_site_symmetry_multiplicity
  _atom_site_fract_x
  _atom_site_fract_y
  _atom_site_fract_z
  _atom_site_occupancy
  Hg  Hg1       1.0  0.2500000038922801  0.24999995913386353  0.2500000250927018  1.0000
  Hg  Hg2       1.0  0.7499999853909515  0.75000007490511  0.7499999582733653  1.0000
  Ga  Ga1       1.0  5.6309943461038304e-08  1.3982550160632116e-08  7.045823504926251e-08  1.0000
  Cl  Cl1       1.0  0.23907426465100545  0.2390741301488718  0.7609258224022664  1.0000
  Cl  Cl2       1.0  0.7609258854256646  0.760925767560236  0.23907417013832832  1.0000
  Cl  Cl3       1.0  0.7609257803596763  0.23907426659088743  0.23907453010979363  1.0000
  Cl  Cl4       1.0  0.23907410802145235  0.7609257587089935  0.76092541959744  1.0000
  Cl  Cl5       1.0  0.23907408438784924  0.7609257454011864  0.23907467300406507  1.0000
  Cl  Cl6       1.0  0.7609258237847428  0.23907425018577624  0.760925358726625  1.0000
