data_image0
_chemical_formula_structural       Hg2GaBr6
_chemical_formula_sum              "Hg2 Ga1 Br6"
_cell_length_a       7.329078824905454
_cell_length_b       7.329079366265071
_cell_length_c       7.329079012739745
_cell_angle_alpha    59.99999942433051
_cell_angle_beta     59.99999993756285
_cell_angle_gamma    60.00000004522297

_space_group_name_H-M_alt    "P 1"
_space_group_IT_number       1

loop_
  _space_group_symop_operation_xyz
  'x, y, z'

loop_
  _atom_site_type_symbol
  _atom_site_label
  _atom_site_symmetry_multiplicity
  _atom_site_fract_x
  _atom_site_fract_y
  _atom_site_fract_z
  _atom_site_occupancy
  Hg  Hg1       1.0  0.2500000277008596  0.25000002379593683  0.2499999844081742  1.0000
  Hg  Hg2       1.0  0.7499999697153583  0.7499999861629367  0.7499999938601702  1.0000
  Ga  Ga1       1.0  1.0662655036214148e-08  0.9999999916446202  0.9999999865665113  1.0000
  Br  Br1       1.0  0.24569674553021056  0.245696772076464  0.754303245071474  1.0000
  Br  Br2       1.0  0.7543032150923515  0.7543032395534854  0.2456967684957231  1.0000
  Br  Br3       1.0  0.7543032063274205  0.2456968375278637  0.24569674621512488  1.0000
  Br  Br4       1.0  0.24569683103346604  0.7543031707599323  0.7543032552136897  1.0000
  Br  Br5       1.0  0.2456967735872486  0.7543031797751216  0.24569677873239212  1.0000
  Br  Br6       1.0  0.754303204557017  0.24569682182837133  0.754303243367033  1.0000
