data_image0
_chemical_formula_structural       Hg2GaBr6
_chemical_formula_sum              "Hg2 Ga1 Br6"
_cell_length_a       7.332198720476058
_cell_length_b       7.332198911024323
_cell_length_c       7.332198691707619
_cell_angle_alpha    60.00000016649197
_cell_angle_beta     60.00000030017453
_cell_angle_gamma    60.000000009270295

_space_group_name_H-M_alt    "P 1"
_space_group_IT_number       1

loop_
  _space_group_symop_operation_xyz
  'x, y, z'

loop_
  _atom_site_type_symbol
  _atom_site_label
  _atom_site_symmetry_multiplicity
  _atom_site_fract_x
  _atom_site_fract_y
  _atom_site_fract_z
  _atom_site_occupancy
  Hg  Hg1       1.0  0.25000001503608194  0.2499999868672097  0.25000000247239224  1.0000
  Hg  Hg2       1.0  0.7499999766260897  0.7500000006903904  0.7500000161584842  1.0000
  Ga  Ga1       1.0  2.131623675880847e-08  0.9999999832963491  3.8609128692454966e-08  1.0000
  Br  Br1       1.0  0.24559923261529756  0.2455993050049754  0.7544007256541506  1.0000
  Br  Br2       1.0  0.7544007475453781  0.7544007076081005  0.24559928347204102  1.0000
  Br  Br3       1.0  0.754400724895821  0.24559926425891176  0.24559924731242408  1.0000
  Br  Br4       1.0  0.24559929753159876  0.7544007065950383  0.7544007110976054  1.0000
  Br  Br5       1.0  0.24559928106325304  0.7544007250323571  0.2455992568438322  1.0000
  Br  Br6       1.0  0.7544007044578565  0.24559930929546392  0.7544007537470913  1.0000
