data_image0
_chemical_formula_structural       Hg2GaF6
_chemical_formula_sum              "Hg2 Ga1 F6"
_cell_length_a       5.6482859963769085
_cell_length_b       5.648286182593433
_cell_length_c       5.648285541715059
_cell_angle_alpha    60.00000548159791
_cell_angle_beta     60.000003243054344
_cell_angle_gamma    60.00000554207249

_space_group_name_H-M_alt    "P 1"
_space_group_IT_number       1

loop_
  _space_group_symop_operation_xyz
  'x, y, z'

loop_
  _atom_site_type_symbol
  _atom_site_label
  _atom_site_symmetry_multiplicity
  _atom_site_fract_x
  _atom_site_fract_y
  _atom_site_fract_z
  _atom_site_occupancy
  Hg  Hg1       1.0  0.24999970428478974  0.2500003608853807  0.2500000300495545  1.0000
  Hg  Hg2       1.0  0.749999799855202  0.7499998618764478  0.7500003499562864  1.0000
  Ga  Ga1       1.0  0.9999999702242747  0.9999999176027897  3.484108179199594e-08  1.0000
  F   F1        1.0  0.23803884279448173  0.23803858432665093  0.7619615275288864  1.0000
  F   F2        1.0  0.7619612940665463  0.76196112020011  0.23803879700441485  1.0000
  F   F3        1.0  0.7619614892930441  0.2380387178900141  0.23803867041301352  1.0000
  F   F4        1.0  0.23803866788006925  0.76196142247461  0.7619609728104428  1.0000
  F   F5        1.0  0.23803882781312383  0.7619611726723442  0.23803863135991227  1.0000
  F   F6        1.0  0.7619613958559791  0.23803876820429984  0.7619610323278697  1.0000
