data_image0
_chemical_formula_structural       Hg2IrI6
_chemical_formula_sum              "Hg2 Ir1 I6"
_cell_length_a       7.669747829590794
_cell_length_b       7.669747751609416
_cell_length_c       7.669747931724501
_cell_angle_alpha    59.999999356710575
_cell_angle_beta     59.99999936213151
_cell_angle_gamma    59.999999758498355

_space_group_name_H-M_alt    "P 1"
_space_group_IT_number       1

loop_
  _space_group_symop_operation_xyz
  'x, y, z'

loop_
  _atom_site_type_symbol
  _atom_site_label
  _atom_site_symmetry_multiplicity
  _atom_site_fract_x
  _atom_site_fract_y
  _atom_site_fract_z
  _atom_site_occupancy
  Hg  Hg1       1.0  0.25000000934696004  0.2499999839482055  0.25000001289810325  1.0000
  Hg  Hg2       1.0  0.750000005609302  0.7499999965564604  0.7499999819203433  1.0000
  Ir  Ir1       1.0  0.9999999531460402  9.581109450573277e-09  9.686585412312435e-08  1.0000
  I   I1        1.0  0.24716273876359454  0.24716274709015687  0.7528372684634921  1.0000
  I   I2        1.0  0.7528372449862402  0.7528372909011657  0.24716272364543052  1.0000
  I   I3        1.0  0.7528372709698407  0.2471627230020358  0.24716277867679703  1.0000
  I   I4        1.0  0.2471628102609072  0.7528372032096766  0.7528371540864592  1.0000
  I   I5        1.0  0.24716276006294788  0.7528372755221576  0.2471627604386401  1.0000
  I   I6        1.0  0.7528372109277433  0.24716277364712586  0.7528372181188117  1.0000
