data_image0
_chemical_formula_structural       Hg2IrCl6
_chemical_formula_sum              "Hg2 Ir1 Cl6"
_cell_length_a       7.188536498820613
_cell_length_b       7.188536386214709
_cell_length_c       7.188536792058733
_cell_angle_alpha    59.99999942672126
_cell_angle_beta     59.99999917596884
_cell_angle_gamma    59.999999064303

_space_group_name_H-M_alt    "P 1"
_space_group_IT_number       1

loop_
  _space_group_symop_operation_xyz
  'x, y, z'

loop_
  _atom_site_type_symbol
  _atom_site_label
  _atom_site_symmetry_multiplicity
  _atom_site_fract_x
  _atom_site_fract_y
  _atom_site_fract_z
  _atom_site_occupancy
  Hg  Hg1       1.0  0.25000005629053423  0.2499999267411907  0.24999999160799793  1.0000
  Hg  Hg2       1.0  0.7499999733027308  0.7500000681568518  0.7499999828948356  1.0000
  Ir  Ir1       1.0  2.0606408457395234e-08  0.9999999863700224  9.031717650838893e-09  1.0000
  Cl  Cl1       1.0  0.22968090572728547  0.22968092464686354  0.7703191614136565  1.0000
  Cl  Cl2       1.0  0.7703189686387131  0.7703190395837313  0.22968104097359018  1.0000
  Cl  Cl3       1.0  0.7703190811708198  0.22968088389022837  0.22968091775108432  1.0000
  Cl  Cl4       1.0  0.2296809452905497  0.770319134860274  0.7703189712718684  1.0000
  Cl  Cl5       1.0  0.229680969182495  0.7703191365197536  0.22968091178081448  1.0000
  Cl  Cl6       1.0  0.7703190894050393  0.22968088223074967  0.7703190279520322  1.0000
