data_image0
_chemical_formula_structural       Hg2IrBr6
_chemical_formula_sum              "Hg2 Ir1 Br6"
_cell_length_a       7.339910108092026
_cell_length_b       7.339910326932429
_cell_length_c       7.339910198631627
_cell_angle_alpha    59.99999900604157
_cell_angle_beta     60.0000013263306
_cell_angle_gamma    60.000000650123376

_space_group_name_H-M_alt    "P 1"
_space_group_IT_number       1

loop_
  _space_group_symop_operation_xyz
  'x, y, z'

loop_
  _atom_site_type_symbol
  _atom_site_label
  _atom_site_symmetry_multiplicity
  _atom_site_fract_x
  _atom_site_fract_y
  _atom_site_fract_z
  _atom_site_occupancy
  Hg  Hg1       1.0  0.2500000237250161  0.25000000235183967  0.24999999689812422  1.0000
  Hg  Hg2       1.0  0.7499999807730557  0.7499999903694184  0.7499999938290822  1.0000
  Ir  Ir1       1.0  1.8671779303572243e-07  0.9999998882031245  0.9999998399222411  1.0000
  Br  Br1       1.0  0.23988560942247453  0.23988565634781248  0.7601143757698104  1.0000
  Br  Br2       1.0  0.7601142664401221  0.7601143447164951  0.2398857037143113  1.0000
  Br  Br3       1.0  0.7601142517675445  0.23988573699178517  0.23988568613192118  1.0000
  Br  Br4       1.0  0.23988566234210143  0.7601143758694023  0.7601143128805771  1.0000
  Br  Br5       1.0  0.23988565828768574  0.7601143701960397  0.239885684605076  1.0000
  Br  Br6       1.0  0.7601143615604787  0.23988564254853775  0.76011439334134  1.0000
