data_image0
_chemical_formula_structural       Hg2IrF6
_chemical_formula_sum              "Hg2 Ir1 F6"
_cell_length_a       6.681178506821573
_cell_length_b       6.681178415282907
_cell_length_c       6.681178350794326
_cell_angle_alpha    59.999999925211604
_cell_angle_beta     60.0000029724763
_cell_angle_gamma    59.99999691116909

_space_group_name_H-M_alt    "P 1"
_space_group_IT_number       1

loop_
  _space_group_symop_operation_xyz
  'x, y, z'

loop_
  _atom_site_type_symbol
  _atom_site_label
  _atom_site_symmetry_multiplicity
  _atom_site_fract_x
  _atom_site_fract_y
  _atom_site_fract_z
  _atom_site_occupancy
  Hg  Hg1       1.0  0.2500002553835262  0.25000012215141076  0.24999966116901165  1.0000
  Hg  Hg2       1.0  0.7500000292259118  0.7499999485012798  0.7500003751734615  1.0000
  Ir  Ir1       1.0  0.9999999269205636  1.4665016805572384e-07  0.9999999228025995  1.0000
  F   F1        1.0  0.20369291501594006  0.20369290641127388  0.7963070769800621  1.0000
  F   F2        1.0  0.7963069498649956  0.7963070909163544  0.20369288109618097  1.0000
  F   F3        1.0  0.7963069962870079  0.20369302354422278  0.2036928833961743  1.0000
  F   F4        1.0  0.20369293102199845  0.7963069627846401  0.7963070878807081  1.0000
  F   F5        1.0  0.20369299831802123  0.7963069703585435  0.2036929272904689  1.0000
  F   F6        1.0  0.796307000063596  0.20369282349197462  0.7963071735394123  1.0000
