data_image0
_chemical_formula_structural       Hg2MoI6
_chemical_formula_sum              "Hg2 Mo1 I6"
_cell_length_a       8.007715039114863
_cell_length_b       8.00771513258039
_cell_length_c       8.007714875947235
_cell_angle_alpha    59.99999994983737
_cell_angle_beta     59.99999878298384
_cell_angle_gamma    59.99999876296773

_space_group_name_H-M_alt    "P 1"
_space_group_IT_number       1

loop_
  _space_group_symop_operation_xyz
  'x, y, z'

loop_
  _atom_site_type_symbol
  _atom_site_label
  _atom_site_symmetry_multiplicity
  _atom_site_fract_x
  _atom_site_fract_y
  _atom_site_fract_z
  _atom_site_occupancy
  Hg  Hg1       1.0  0.2500000022525118  0.25000002549641037  0.25000000693259217  1.0000
  Hg  Hg2       1.0  0.7500000147122541  0.7499999617800241  0.7499999930033004  1.0000
  Mo  Mo1       1.0  3.488506891158682e-08  0.9999999602341428  0.9999996515287989  1.0000
  I   I1        1.0  0.24475714620674371  0.2447570871096167  0.7552428845401192  1.0000
  I   I2        1.0  0.755242856847991  0.7552428986373622  0.24475707191489313  1.0000
  I   I3        1.0  0.7552427632406685  0.24475731095985384  0.24475723129780222  1.0000
  I   I4        1.0  0.24475699741049048  0.7552429347946634  0.7552430073246307  1.0000
  I   I5        1.0  0.24475727081286353  0.7552427234483154  0.24475722682536621  1.0000
  I   I6        1.0  0.7552429311509129  0.24475711547087428  0.7552428996499447  1.0000
