data_image0
_chemical_formula_structural       Hg2NCl6
_chemical_formula_sum              "Hg2 N1 Cl6"
_cell_length_a       8.073768937058452
_cell_length_b       8.073767390886909
_cell_length_c       8.073766834394924
_cell_angle_alpha    59.999993181595684
_cell_angle_beta     60.00000894940933
_cell_angle_gamma    59.99998249504077

_space_group_name_H-M_alt    "P 1"
_space_group_IT_number       1

loop_
  _space_group_symop_operation_xyz
  'x, y, z'

loop_
  _atom_site_type_symbol
  _atom_site_label
  _atom_site_symmetry_multiplicity
  _atom_site_fract_x
  _atom_site_fract_y
  _atom_site_fract_z
  _atom_site_occupancy
  Hg  Hg1       1.0  0.249999586361327  0.25000033056113197  0.2500001157435682  1.0000
  Hg  Hg2       1.0  0.7500000649528465  0.7499997857129701  0.7500002192510787  1.0000
  N   N1        1.0  4.9838377913688224e-08  8.646578980442735e-08  0.9999998810661614  1.0000
  Cl  Cl1       1.0  0.187876590532838  0.1878766152297946  0.8121233643131921  1.0000
  Cl  Cl2       1.0  0.8121234102229821  0.8121235511034343  0.18787644890046287  1.0000
  Cl  Cl3       1.0  0.812123538636332  0.1878764082324482  0.18787664923560074  1.0000
  Cl  Cl4       1.0  0.1878767637531522  0.812123265094009  0.8121234826089062  1.0000
  Cl  Cl5       1.0  0.18787653728657755  0.8121232817269725  0.18787648535165605  1.0000
  Cl  Cl6       1.0  0.8121234662603474  0.1878767131916179  0.8121234010265644  1.0000
