data_image0
_chemical_formula_structural       Hg2NF6
_chemical_formula_sum              "Hg2 N1 F6"
_cell_length_a       5.625971607262226
_cell_length_b       5.625971688904996
_cell_length_c       5.625971855800257
_cell_angle_alpha    60.00000234285614
_cell_angle_beta     59.99999895066297
_cell_angle_gamma    59.9999980881228

_space_group_name_H-M_alt    "P 1"
_space_group_IT_number       1

loop_
  _space_group_symop_operation_xyz
  'x, y, z'

loop_
  _atom_site_type_symbol
  _atom_site_label
  _atom_site_symmetry_multiplicity
  _atom_site_fract_x
  _atom_site_fract_y
  _atom_site_fract_z
  _atom_site_occupancy
  Hg  Hg1       1.0  0.2500001991510079  0.2499999737573021  0.2499997894453307  1.0000
  Hg  Hg2       1.0  0.7499999601772349  0.7500000105268114  0.7499999018571527  1.0000
  N   N1        1.0  6.068418783895506e-08  0.9999998672061651  1.0715364747346528e-07  1.0000
  F   F1        1.0  0.2134532440219697  0.2134534882123787  0.7865465251208555  1.0000
  F   F2        1.0  0.7865468959200173  0.7865466158038864  0.2134532333217478  1.0000
  F   F3        1.0  0.7865469130446809  0.21345306555518226  0.21345338850357676  1.0000
  F   F4        1.0  0.21345302373013036  0.7865467859351278  0.7865471434690825  1.0000
  F   F5        1.0  0.21345289395018155  0.7865468479551743  0.21345329550248618  1.0000
  F   F6        1.0  0.7865467802713726  0.21345335402376972  0.7865465579454614  1.0000
