data_image0
_chemical_formula_structural       Hg2NF6
_chemical_formula_sum              "Hg2 N1 F6"
_cell_length_a       5.626083961935485
_cell_length_b       5.626083163170503
_cell_length_c       5.62608375081588
_cell_angle_alpha    59.99999189633266
_cell_angle_beta     60.000001335634344
_cell_angle_gamma    59.999998114356345

_space_group_name_H-M_alt    "P 1"
_space_group_IT_number       1

loop_
  _space_group_symop_operation_xyz
  'x, y, z'

loop_
  _atom_site_type_symbol
  _atom_site_label
  _atom_site_symmetry_multiplicity
  _atom_site_fract_x
  _atom_site_fract_y
  _atom_site_fract_z
  _atom_site_occupancy
  Hg  Hg1       1.0  0.24999984855597468  0.25000029312523514  0.25000021642532333  1.0000
  Hg  Hg2       1.0  0.7500000862652765  0.7500005136557153  0.7499993816202465  1.0000
  N   N1        1.0  0.9999998437468275  5.006881756252894e-08  0.9999999624429741  1.0000
  F   F1        1.0  0.2134775081942385  0.2134778359267254  0.7865223595505687  1.0000
  F   F2        1.0  0.7865220045077439  0.7865222176449986  0.21347774084237936  1.0000
  F   F3        1.0  0.7865221782444204  0.2134776678482584  0.21347759324164226  1.0000
  F   F4        1.0  0.21347778412292115  0.7865222681706249  0.7865219625013268  1.0000
  F   F5        1.0  0.21347813698025286  0.7865216389698997  0.21347821387835197  1.0000
  F   F6        1.0  0.78652268623116  0.21347738927948015  0.7865225579864688  1.0000
