data_image0
_chemical_formula_structural       Hg2PI6
_chemical_formula_sum              "Hg2 P1 I6"
_cell_length_a       7.825099878236871
_cell_length_b       7.825099742110587
_cell_length_c       7.825099921793693
_cell_angle_alpha    59.99999968551575
_cell_angle_beta     59.99999915541081
_cell_angle_gamma    59.99999996385439

_space_group_name_H-M_alt    "P 1"
_space_group_IT_number       1

loop_
  _space_group_symop_operation_xyz
  'x, y, z'

loop_
  _atom_site_type_symbol
  _atom_site_label
  _atom_site_symmetry_multiplicity
  _atom_site_fract_x
  _atom_site_fract_y
  _atom_site_fract_z
  _atom_site_occupancy
  Hg  Hg1       1.0  0.24999999420817295  0.24999997996328052  0.2500000405074347  1.0000
  Hg  Hg2       1.0  0.7499999949052572  0.7500000181473019  0.7499999855195395  1.0000
  P   P1        1.0  8.390901268423204e-09  5.0084774956303766e-08  0.9999999592607114  1.0000
  I   I1        1.0  0.25136235573342824  0.25136239448728076  0.7486376140278098  1.0000
  I   I2        1.0  0.7486376525786383  0.748637577015765  0.2513624029242246  1.0000
  I   I3        1.0  0.7486375537103906  0.25136240823153305  0.25136242796148245  1.0000
  I   I4        1.0  0.25136240875206467  0.7486375945744967  0.7486375924300491  1.0000
  I   I5        1.0  0.2513624234927471  0.7486375470001018  0.2513624022821255  1.0000
  I   I6        1.0  0.7486376174623545  0.2513624151120489  0.7486375889865103  1.0000
