data_image0
_chemical_formula_structural       Hg2PCl6
_chemical_formula_sum              "Hg2 P1 Cl6"
_cell_length_a       7.904730576752577
_cell_length_b       7.904730243091261
_cell_length_c       7.9047305245214154
_cell_angle_alpha    59.99999703232232
_cell_angle_beta     60.00000277207985
_cell_angle_gamma    59.99999821681882

_space_group_name_H-M_alt    "P 1"
_space_group_IT_number       1

loop_
  _space_group_symop_operation_xyz
  'x, y, z'

loop_
  _atom_site_type_symbol
  _atom_site_label
  _atom_site_symmetry_multiplicity
  _atom_site_fract_x
  _atom_site_fract_y
  _atom_site_fract_z
  _atom_site_occupancy
  Hg  Hg1       1.0  0.2500000299172463  0.24999997162772922  0.2499999409260924  1.0000
  Hg  Hg2       1.0  0.749999991082557  0.7499999567165057  0.7500000055341689  1.0000
  P   P1        1.0  0.9999999700756841  3.718517510496299e-08  1.1550352462720256e-08  1.0000
  Cl  Cl1       1.0  0.19575997985969507  0.1957598871632757  0.8042399974675836  1.0000
  Cl  Cl2       1.0  0.8042400626820312  0.8042400861130476  0.19575986515306104  1.0000
  Cl  Cl3       1.0  0.8042401988146268  0.19575989273760588  0.1957598861646283  1.0000
  Cl  Cl4       1.0  0.19575992308222911  0.8042400046189786  0.804240159437852  1.0000
  Cl  Cl5       1.0  0.19575986139296017  0.8042401777753021  0.19575991262390333  1.0000
  Cl  Cl6       1.0  0.8042400392436958  0.19576001086515607  0.8042401485693425  1.0000
