data_image0
_chemical_formula_structural       Hg2PBr6
_chemical_formula_sum              "Hg2 P1 Br6"
_cell_length_a       7.977169357317426
_cell_length_b       7.97716910103991
_cell_length_c       7.977169475800816
_cell_angle_alpha    59.999999254673774
_cell_angle_beta     59.99999781073565
_cell_angle_gamma    59.99999697078015

_space_group_name_H-M_alt    "P 1"
_space_group_IT_number       1

loop_
  _space_group_symop_operation_xyz
  'x, y, z'

loop_
  _atom_site_type_symbol
  _atom_site_label
  _atom_site_symmetry_multiplicity
  _atom_site_fract_x
  _atom_site_fract_y
  _atom_site_fract_z
  _atom_site_occupancy
  Hg  Hg1       1.0  0.24999997079469408  0.24999998476603452  0.2500000408600344  1.0000
  Hg  Hg2       1.0  0.7499999958401757  0.7500000817290539  0.7499999582184395  1.0000
  P   P1        1.0  6.107376534625811e-08  0.9999999600818678  0.9999999117003787  1.0000
  Br  Br1       1.0  0.21439772483505495  0.2143976703959317  0.7856023754311898  1.0000
  Br  Br2       1.0  0.7856021688124263  0.7856022763447699  0.21439779773997564  1.0000
  Br  Br3       1.0  0.7856022682056082  0.21439775587714258  0.21439782886240544  1.0000
  Br  Br4       1.0  0.2143977097609645  0.7856022983354426  0.7856020691516927  1.0000
  Br  Br5       1.0  0.21439778790245553  0.7856022756159349  0.2143979039552577  1.0000
  Br  Br6       1.0  0.7856023071968032  0.21439768340726412  0.785602154827303  1.0000
