data_image0
_chemical_formula_structural       Hg2PF6
_chemical_formula_sum              "Hg2 P1 F6"
_cell_length_a       6.998544250232771
_cell_length_b       6.998545040694971
_cell_length_c       6.998545087053554
_cell_angle_alpha    60.0000064128865
_cell_angle_beta     60.000004637472735
_cell_angle_gamma    60.0000115420432

_space_group_name_H-M_alt    "P 1"
_space_group_IT_number       1

loop_
  _space_group_symop_operation_xyz
  'x, y, z'

loop_
  _atom_site_type_symbol
  _atom_site_label
  _atom_site_symmetry_multiplicity
  _atom_site_fract_x
  _atom_site_fract_y
  _atom_site_fract_z
  _atom_site_occupancy
  Hg  Hg1       1.0  0.24999970459742757  0.2499998623690644  0.2500002090565255  1.0000
  Hg  Hg2       1.0  0.7500002766563291  0.7500001523569881  0.750000080321547  1.0000
  P   P1        1.0  4.296645990412328e-08  0.9999998810000593  0.9999999151340538  1.0000
  F   F1        1.0  0.16616836319619732  0.16616853261389591  0.8338315644912533  1.0000
  F   F2        1.0  0.8338317206696982  0.8338314366121734  0.16616838055082656  1.0000
  F   F3        1.0  0.8338314216465695  0.16616846870634622  0.16616841256963494  1.0000
  F   F4        1.0  0.16616841639620147  0.8338316440196325  0.8338315779185701  1.0000
  F   F5        1.0  0.16616844540238043  0.8338316855024439  0.16616837956266567  1.0000
  F   F6        1.0  0.8338315828324768  0.1661683169736031  0.8338315452348376  1.0000
