data_image0
_chemical_formula_structural       Hg2RhBr6
_chemical_formula_sum              "Hg2 Rh1 Br6"
_cell_length_a       7.277283057988738
_cell_length_b       7.277283032161582
_cell_length_c       7.277282924685715
_cell_angle_alpha    60.000000673622175
_cell_angle_beta     60.0000009474001
_cell_angle_gamma    60.0000000834042

_space_group_name_H-M_alt    "P 1"
_space_group_IT_number       1

loop_
  _space_group_symop_operation_xyz
  'x, y, z'

loop_
  _atom_site_type_symbol
  _atom_site_label
  _atom_site_symmetry_multiplicity
  _atom_site_fract_x
  _atom_site_fract_y
  _atom_site_fract_z
  _atom_site_occupancy
  Hg  Hg1       1.0  0.250000013031548  0.2499999984817455  0.24999998804553542  1.0000
  Hg  Hg2       1.0  0.7499999899063466  0.7499999954452367  0.7500000244583749  1.0000
  Rh  Rh1       1.0  0.9999999753329545  4.544018869151983e-08  0.9999999373961375  1.0000
  Br  Br1       1.0  0.24149400400453988  0.24149397932431094  0.7585060223940562  1.0000
  Br  Br2       1.0  0.7585060730444213  0.7585060112367311  0.24149395748556954  1.0000
  Br  Br3       1.0  0.7585060269562611  0.24149396863401623  0.24149394885329067  1.0000
  Br  Br4       1.0  0.24149393818912285  0.7585060101462368  0.7585060859978217  1.0000
  Br  Br5       1.0  0.24149394082834189  0.7585060349731358  0.2414939581366743  1.0000
  Br  Br6       1.0  0.7585060452166307  0.24149395727087658  0.7585060567844858  1.0000
