data_image0
_chemical_formula_structural       Hg2RuBr6
_chemical_formula_sum              "Hg2 Ru1 Br6"
_cell_length_a       7.3573378755039505
_cell_length_b       7.357337935224548
_cell_length_c       7.357337872478705
_cell_angle_alpha    60.00000067259362
_cell_angle_beta     59.99999976738579
_cell_angle_gamma    59.99999874060848

_space_group_name_H-M_alt    "P 1"
_space_group_IT_number       1

loop_
  _space_group_symop_operation_xyz
  'x, y, z'

loop_
  _atom_site_type_symbol
  _atom_site_label
  _atom_site_symmetry_multiplicity
  _atom_site_fract_x
  _atom_site_fract_y
  _atom_site_fract_z
  _atom_site_occupancy
  Hg  Hg1       1.0  0.24999999665196485  0.24999998106796234  0.2500000024094335  1.0000
  Hg  Hg2       1.0  0.7500000141151287  0.7499999931436153  0.7500000095952501  1.0000
  Ru  Ru1       1.0  7.847271775772124e-09  0.9999999999999994  0.9999999186026898  1.0000
  Br  Br1       1.0  0.2393407463556806  0.23934073006509005  0.7606592494809711  1.0000
  Br  Br2       1.0  0.7606592616995176  0.760659304074162  0.23934071216882688  1.0000
  Br  Br3       1.0  0.7606592999771314  0.2393406870457513  0.23934069724715784  1.0000
  Br  Br4       1.0  0.23934063745262368  0.7606593470935026  0.7606593649563501  1.0000
  Br  Br5       1.0  0.23934070239256502  0.7606592926964366  0.23934071067364887  1.0000
  Br  Br6       1.0  0.7606593311873847  0.2393406648685646  0.7606593471786366  1.0000
