data_image0
_chemical_formula_structural       Hg2RuCl6
_chemical_formula_sum              "Hg2 Ru1 Cl6"
_cell_length_a       7.340526781065717
_cell_length_b       7.340527316406187
_cell_length_c       7.3405272477889465
_cell_angle_alpha    59.99999851082303
_cell_angle_beta     60.00000214109146
_cell_angle_gamma    60.00000282745559

_space_group_name_H-M_alt    "P 1"
_space_group_IT_number       1

loop_
  _space_group_symop_operation_xyz
  'x, y, z'

loop_
  _atom_site_type_symbol
  _atom_site_label
  _atom_site_symmetry_multiplicity
  _atom_site_fract_x
  _atom_site_fract_y
  _atom_site_fract_z
  _atom_site_occupancy
  Hg  Hg1       1.0  0.24999997239629218  0.25000002423532225  0.2500000153110785  1.0000
  Hg  Hg2       1.0  0.7499999649855993  0.7499999859455354  0.7500000190968937  1.0000
  Ru  Ru1       1.0  0.9999999707009745  0.9999999416035541  2.6137836061047977e-08  1.0000
  Cl  Cl1       1.0  0.224933546201243  0.22493342282041534  0.7750664967892552  1.0000
  Cl  Cl2       1.0  0.775066392720953  0.7750666440884202  0.22493346080407647  1.0000
  Cl  Cl3       1.0  0.7750664678501674  0.22493355381908348  0.224933549170736  1.0000
  Cl  Cl4       1.0  0.2249335658202576  0.7750665214321029  0.775066384123308  1.0000
  Cl  Cl5       1.0  0.22493357422399873  0.7750664964222326  0.2249335513261134  1.0000
  Cl  Cl6       1.0  0.7750664918943544  0.22493347204687938  0.7750664858877044  1.0000
