data_image0
_chemical_formula_structural       Hg2RuI6
_chemical_formula_sum              "Hg2 Ru1 I6"
_cell_length_a       7.679151634949081
_cell_length_b       7.679151687296625
_cell_length_c       7.67915150682176
_cell_angle_alpha    60.00000033806639
_cell_angle_beta     60.000000361506494
_cell_angle_gamma    59.999998534110254

_space_group_name_H-M_alt    "P 1"
_space_group_IT_number       1

loop_
  _space_group_symop_operation_xyz
  'x, y, z'

loop_
  _atom_site_type_symbol
  _atom_site_label
  _atom_site_symmetry_multiplicity
  _atom_site_fract_x
  _atom_site_fract_y
  _atom_site_fract_z
  _atom_site_occupancy
  Hg  Hg1       1.0  0.249999989142418  0.25000000706837794  0.2500000002604944  1.0000
  Hg  Hg2       1.0  0.7500000145131281  0.749999970168459  0.750000011872474  1.0000
  Ru  Ru1       1.0  0.9999999755292753  1.0047845182036727e-07  2.3200814744832656e-08  1.0000
  I   I1        1.0  0.24832785332241933  0.248327899997105  0.7516721121543245  1.0000
  I   I2        1.0  0.7516720863888416  0.7516720660754607  0.24832794925296708  1.0000
  I   I3        1.0  0.7516721588866259  0.24832786523512723  0.24832782210878288  1.0000
  I   I4        1.0  0.24832792678869536  0.7516720689395149  0.7516720806917183  1.0000
  I   I5        1.0  0.24832785305423483  0.7516721396649103  0.24832789546334075  1.0000
  I   I6        1.0  0.7516721381001329  0.24832788860860067  0.7516721130286061  1.0000
