data_image0
_chemical_formula_structural       Hg2RhI6
_chemical_formula_sum              "Hg2 Rh1 I6"
_cell_length_a       7.672100341119852
_cell_length_b       7.672100510143634
_cell_length_c       7.672100287182122
_cell_angle_alpha    60.00000062050278
_cell_angle_beta     60.0000004420623
_cell_angle_gamma    59.99999936987148

_space_group_name_H-M_alt    "P 1"
_space_group_IT_number       1

loop_
  _space_group_symop_operation_xyz
  'x, y, z'

loop_
  _atom_site_type_symbol
  _atom_site_label
  _atom_site_symmetry_multiplicity
  _atom_site_fract_x
  _atom_site_fract_y
  _atom_site_fract_z
  _atom_site_occupancy
  Hg  Hg1       1.0  0.25000005140978293  0.2500000153060208  0.24999995810533923  1.0000
  Hg  Hg2       1.0  0.7499999695029416  0.7499999724854195  0.7500000372845677  1.0000
  Rh  Rh1       1.0  3.6335470416419438e-09  0.9999999936145525  6.5896464534392544e-09  1.0000
  I   I1        1.0  0.24695283416288602  0.24695279768342165  0.7530471659510761  1.0000
  I   I2        1.0  0.7530471569980753  0.7530471980898282  0.24695284293065584  1.0000
  I   I3        1.0  0.7530471907797177  0.24695280372393644  0.24695282528118453  1.0000
  I   I4        1.0  0.2469528171951805  0.7530472048202081  0.7530471622910113  1.0000
  I   I5        1.0  0.2469528243561396  0.7530472343144732  0.24695278978934634  1.0000
  I   I6        1.0  0.7530471573179476  0.24695278540420487  0.7530472092562602  1.0000
