data_image0
_chemical_formula_structural       Hg2SbI6
_chemical_formula_sum              "Hg2 Sb1 I6"
_cell_length_a       8.258432001211073
_cell_length_b       8.25843219358865
_cell_length_c       8.258432219665385
_cell_angle_alpha    59.999997086850904
_cell_angle_beta     60.000000980007336
_cell_angle_gamma    60.00000021302453

_space_group_name_H-M_alt    "P 1"
_space_group_IT_number       1

loop_
  _space_group_symop_operation_xyz
  'x, y, z'

loop_
  _atom_site_type_symbol
  _atom_site_label
  _atom_site_symmetry_multiplicity
  _atom_site_fract_x
  _atom_site_fract_y
  _atom_site_fract_z
  _atom_site_occupancy
  Hg  Hg1       1.0  0.25000002218562456  0.24999998126495193  0.2500000715679396  1.0000
  Hg  Hg2       1.0  0.7500000082828173  0.7500000179460407  0.7499999367382133  1.0000
  Sb  Sb1       1.0  0.9999998831683509  2.120723629167965e-07  0.999999865196019  1.0000
  I   I1        1.0  0.2558356867809955  0.2558356905443558  0.7441643603910799  1.0000
  I   I2        1.0  0.744164272294026  0.7441643131157061  0.25583569228519965  1.0000
  I   I3        1.0  0.7441642471337937  0.2558357299639646  0.2558358099755434  1.0000
  I   I4        1.0  0.25583577868933716  0.7441641950958551  0.7441641808173246  1.0000
  I   I5        1.0  0.25583579423784225  0.744164225931508  0.25583572400356624  1.0000
  I   I6        1.0  0.7441643068777293  0.25583563684132216  0.7441643474701966  1.0000
