data_image0
_chemical_formula_structural       Hg2SbF6
_chemical_formula_sum              "Hg2 Sb1 F6"
_cell_length_a       7.354794412539745
_cell_length_b       7.354795744734415
_cell_length_c       7.354794472647445
_cell_angle_alpha    60.00000140591536
_cell_angle_beta     60.000001995891786
_cell_angle_gamma    60.00000341684322

_space_group_name_H-M_alt    "P 1"
_space_group_IT_number       1

loop_
  _space_group_symop_operation_xyz
  'x, y, z'

loop_
  _atom_site_type_symbol
  _atom_site_label
  _atom_site_symmetry_multiplicity
  _atom_site_fract_x
  _atom_site_fract_y
  _atom_site_fract_z
  _atom_site_occupancy
  Hg  Hg1       1.0  0.25000024929463976  0.24999954564556284  0.24999940301328175  1.0000
  Hg  Hg2       1.0  0.7499994957141195  0.750000165620448  0.7499999498291839  1.0000
  Sb  Sb1       1.0  5.942318694528749e-08  0.9999999300602235  0.9999998611346242  1.0000
  F   F1        1.0  0.18549837955146983  0.18549862360739577  0.8145016352323416  1.0000
  F   F2        1.0  0.8145015576389045  0.814501575571805  0.18549853599072902  1.0000
  F   F3        1.0  0.8145018331660794  0.18549818102997404  0.18549859478042857  1.0000
  F   F4        1.0  0.18549853620623102  0.8145017483814735  0.814501676069988  1.0000
  F   F5        1.0  0.18549831350701249  0.8145018411581394  0.18549846198588738  1.0000
  F   F6        1.0  0.8145014503632644  0.18549847292213215  0.8145018186664709  1.0000
