data_image0
_chemical_formula_structural       Hg2SbBr6
_chemical_formula_sum              "Hg2 Sb1 Br6"
_cell_length_a       7.817790156443622
_cell_length_b       7.817790273702193
_cell_length_c       7.817790058468429
_cell_angle_alpha    59.99999996329152
_cell_angle_beta     60.000000907437865
_cell_angle_gamma    59.99999797240067

_space_group_name_H-M_alt    "P 1"
_space_group_IT_number       1

loop_
  _space_group_symop_operation_xyz
  'x, y, z'

loop_
  _atom_site_type_symbol
  _atom_site_label
  _atom_site_symmetry_multiplicity
  _atom_site_fract_x
  _atom_site_fract_y
  _atom_site_fract_z
  _atom_site_occupancy
  Hg  Hg1       1.0  0.2499999942559111  0.2500000568685345  0.24999998007256002  1.0000
  Hg  Hg2       1.0  0.750000015564273  0.7499999481466123  0.7500000094662302  1.0000
  Sb  Sb1       1.0  3.829746188303332e-08  3.1332249887701046e-08  6.495758537076831e-08  1.0000
  Br  Br1       1.0  0.23771499032738594  0.23771496307527795  0.7622849970952627  1.0000
  Br  Br2       1.0  0.7622849802993749  0.7622850576059965  0.2377149722288288  1.0000
  Br  Br3       1.0  0.7622849954157478  0.2377149222922545  0.2377149101509664  1.0000
  Br  Br4       1.0  0.23771493534693913  0.7622850717566066  0.7622850873048331  1.0000
  Br  Br5       1.0  0.23771492497292876  0.7622850862007228  0.2377148423585222  1.0000
  Br  Br6       1.0  0.7622851039896196  0.23771487024943286  0.762285135029771  1.0000
