data_image0
_chemical_formula_structural       Hg2SbCl6
_chemical_formula_sum              "Hg2 Sb1 Cl6"
_cell_length_a       7.770413942872845
_cell_length_b       7.77041394932577
_cell_length_c       7.770414463507105
_cell_angle_alpha    59.999998550836054
_cell_angle_beta     59.99999789057061
_cell_angle_gamma    59.999998115799045

_space_group_name_H-M_alt    "P 1"
_space_group_IT_number       1

loop_
  _space_group_symop_operation_xyz
  'x, y, z'

loop_
  _atom_site_type_symbol
  _atom_site_label
  _atom_site_symmetry_multiplicity
  _atom_site_fract_x
  _atom_site_fract_y
  _atom_site_fract_z
  _atom_site_occupancy
  Hg  Hg1       1.0  0.2500000062916529  0.25000002863006404  0.24999998262638506  1.0000
  Hg  Hg2       1.0  0.75000000767699  0.7500001016518346  0.7499999069893393  1.0000
  Sb  Sb1       1.0  5.597437821988956e-08  0.9999999479865782  5.741117359496682e-09  1.0000
  Cl  Cl1       1.0  0.22050658939056075  0.22050661043591557  0.7794934267851806  1.0000
  Cl  Cl2       1.0  0.7794933948757636  0.7794933370109277  0.2205066694799755  1.0000
  Cl  Cl3       1.0  0.7794934330090874  0.2205065210369628  0.22050659579495152  1.0000
  Cl  Cl4       1.0  0.22050646683722508  0.7794935414698729  0.7794933821956038  1.0000
  Cl  Cl5       1.0  0.22050645523366122  0.7794935165178818  0.22050652912963903  1.0000
  Cl  Cl6       1.0  0.7794935957542988  0.2205063867963605  0.7794935043636942  1.0000
