data_image0
_chemical_formula_structural       Hg2SbI6
_chemical_formula_sum              "Hg2 Sb1 I6"
_cell_length_a       8.2504996873875
_cell_length_b       8.25049950363267
_cell_length_c       8.250499468697988
_cell_angle_alpha    59.99999928205172
_cell_angle_beta     59.999999782060804
_cell_angle_gamma    59.99999800967222

_space_group_name_H-M_alt    "P 1"
_space_group_IT_number       1

loop_
  _space_group_symop_operation_xyz
  'x, y, z'

loop_
  _atom_site_type_symbol
  _atom_site_label
  _atom_site_symmetry_multiplicity
  _atom_site_fract_x
  _atom_site_fract_y
  _atom_site_fract_z
  _atom_site_occupancy
  Hg  Hg1       1.0  0.2500000046433873  0.25000000958611857  0.2500000044252295  1.0000
  Hg  Hg2       1.0  0.7499999918065843  0.749999990162672  0.7500000000015974  1.0000
  Sb  Sb1       1.0  0.9999999535188883  0.9999999421064757  0.9999998752283352  1.0000
  I   I1        1.0  0.25606735345334297  0.2560674798008439  0.7439325894480358  1.0000
  I   I2        1.0  0.7439326493564096  0.7439326268283023  0.25606734502619605  1.0000
  I   I3        1.0  0.7439325654348917  0.2560674179712279  0.25606740751135454  1.0000
  I   I4        1.0  0.2560673148643055  0.7439327035024133  0.7439326826079262  1.0000
  I   I5        1.0  0.25606740469778244  0.7439325845046658  0.25606745154388405  1.0000
  I   I6        1.0  0.7439327604504697  0.25606725343913916  0.7439326464001216  1.0000
