data_image0
_chemical_formula_structural       Hg2SbCl6
_chemical_formula_sum              "Hg2 Sb1 Cl6"
_cell_length_a       7.779192060441804
_cell_length_b       7.779191957511146
_cell_length_c       7.7791918883964515
_cell_angle_alpha    59.999999162073415
_cell_angle_beta     60.000000166580186
_cell_angle_gamma    59.9999989848613

_space_group_name_H-M_alt    "P 1"
_space_group_IT_number       1

loop_
  _space_group_symop_operation_xyz
  'x, y, z'

loop_
  _atom_site_type_symbol
  _atom_site_label
  _atom_site_symmetry_multiplicity
  _atom_site_fract_x
  _atom_site_fract_y
  _atom_site_fract_z
  _atom_site_occupancy
  Hg  Hg1       1.0  0.24999996424644355  0.249999993748441  0.25000001468595545  1.0000
  Hg  Hg2       1.0  0.7500000448474042  0.7499999702246224  0.7499999593738932  1.0000
  Sb  Sb1       1.0  0.9999997327794986  0.9999996127011093  3.6196767582908166e-07  1.0000
  Cl  Cl1       1.0  0.22038910475795498  0.2203888990660689  0.7796109890404789  1.0000
  Cl  Cl2       1.0  0.7796112108105485  0.7796113656146694  0.22038865571858915  1.0000
  Cl  Cl3       1.0  0.7796110091323362  0.22038892940193944  0.22038890914541542  1.0000
  Cl  Cl4       1.0  0.22038891475180275  0.7796111699682966  0.7796111490865487  1.0000
  Cl  Cl5       1.0  0.22038892588218165  0.7796111995653024  0.22038872330964526  1.0000
  Cl  Cl6       1.0  0.7796111038561098  0.2203888494245905  0.7796112184872549  1.0000
