data_image0
_chemical_formula_structural       Hg2SbF6
_chemical_formula_sum              "Hg2 Sb1 F6"
_cell_length_a       7.356464412085173
_cell_length_b       7.356463407175657
_cell_length_c       7.356464138184518
_cell_angle_alpha    60.000009023294325
_cell_angle_beta     59.9999985282613
_cell_angle_gamma    60.00000469543659

_space_group_name_H-M_alt    "P 1"
_space_group_IT_number       1

loop_
  _space_group_symop_operation_xyz
  'x, y, z'

loop_
  _atom_site_type_symbol
  _atom_site_label
  _atom_site_symmetry_multiplicity
  _atom_site_fract_x
  _atom_site_fract_y
  _atom_site_fract_z
  _atom_site_occupancy
  Hg  Hg1       1.0  0.24999981310704175  0.24999974771473363  0.24999977976324736  1.0000
  Hg  Hg2       1.0  0.7499999817552983  0.7499999090865939  0.7500002901964286  1.0000
  Sb  Sb1       1.0  9.178402857100708e-09  9.489676467273776e-08  7.773767898638462e-09  1.0000
  F   F1        1.0  0.1854469634111955  0.18544712019132814  0.8145530425960728  1.0000
  F   F2        1.0  0.8145530681891519  0.8145530177532455  0.18544693757406017  1.0000
  F   F3        1.0  0.8145531390099112  0.1854470339843194  0.185446973364581  1.0000
  F   F4        1.0  0.18544712685054968  0.8145529191613136  0.8145529616847128  1.0000
  F   F5        1.0  0.18544708555535924  0.8145531462576361  0.18544686445011302  1.0000
  F   F6        1.0  0.8145529847473896  0.18544696504924926  0.8145530852193832  1.0000
