data_image0
_chemical_formula_structural       Hg2SbBr6
_chemical_formula_sum              "Hg2 Sb1 Br6"
_cell_length_a       7.759837169636316
_cell_length_b       7.7598371925879395
_cell_length_c       7.759837387300917
_cell_angle_alpha    59.999999716111994
_cell_angle_beta     59.999996934922976
_cell_angle_gamma    59.99999880430266

_space_group_name_H-M_alt    "P 1"
_space_group_IT_number       1

loop_
  _space_group_symop_operation_xyz
  'x, y, z'

loop_
  _atom_site_type_symbol
  _atom_site_label
  _atom_site_symmetry_multiplicity
  _atom_site_fract_x
  _atom_site_fract_y
  _atom_site_fract_z
  _atom_site_occupancy
  Hg  Hg1       1.0  0.2500000174357776  0.24999999564922276  0.2500000041565913  1.0000
  Hg  Hg2       1.0  0.7499999770177973  0.7500000074657319  0.74999999604016  1.0000
  Sb  Sb1       1.0  7.123287261237279e-08  0.9999998800482662  1.6661464103211149e-06  1.0000
  Br  Br1       1.0  0.24082212380847892  0.24082196677858608  0.7591779573133642  1.0000
  Br  Br2       1.0  0.7591779018219726  0.7591778579870444  0.24082201981809964  1.0000
  Br  Br3       1.0  0.7591782795888495  0.24082178914534855  0.2408217684157218  1.0000
  Br  Br4       1.0  0.2408224201195868  0.7591775936927436  0.7591774753595296  1.0000
  Br  Br5       1.0  0.2408216936179919  0.7591784228028843  0.24082166874232622  1.0000
  Br  Br6       1.0  0.7591775098102895  0.2408224846851771  0.7591774332680553  1.0000
