data_image0
_chemical_formula_structural       Hg2TlBr6
_chemical_formula_sum              "Hg2 Tl1 Br6"
_cell_length_a       7.441969097561299
_cell_length_b       7.441968693421772
_cell_length_c       7.441968632248072
_cell_angle_alpha    60.00000226955139
_cell_angle_beta     60.000000820049685
_cell_angle_gamma    60.00000151192974

_space_group_name_H-M_alt    "P 1"
_space_group_IT_number       1

loop_
  _space_group_symop_operation_xyz
  'x, y, z'

loop_
  _atom_site_type_symbol
  _atom_site_label
  _atom_site_symmetry_multiplicity
  _atom_site_fract_x
  _atom_site_fract_y
  _atom_site_fract_z
  _atom_site_occupancy
  Hg  Hg1       1.0  0.24999998606723586  0.2500000182042045  0.2500000172694093  1.0000
  Hg  Hg2       1.0  0.7500000067882524  0.7500000019493499  0.7499999974099062  1.0000
  Tl  Tl1       1.0  1.9826693098844468e-08  0.9999999637940095  8.343855427282039e-08  1.0000
  Br  Br1       1.0  0.25874446541230856  0.25874453467388325  0.7412554917140416  1.0000
  Br  Br2       1.0  0.7412553875028847  0.7412553653416007  0.2587446073176201  1.0000
  Br  Br3       1.0  0.741255452877854  0.25874460177576086  0.2587445234848513  1.0000
  Br  Br4       1.0  0.25874453508612905  0.7412555121842291  0.7412554292685044  1.0000
  Br  Br5       1.0  0.25874458846884607  0.7412554726498476  0.2587444649022478  1.0000
  Br  Br6       1.0  0.7412555557233813  0.2587445310464367  0.7412553909636596  1.0000
