data_image0
_chemical_formula_structural       Hg2TaI6
_chemical_formula_sum              "Hg2 Ta1 I6"
_cell_length_a       8.674950461691656
_cell_length_b       8.67495059972115
_cell_length_c       8.674950637961697
_cell_angle_alpha    59.9999995139408
_cell_angle_beta     59.9999963768632
_cell_angle_gamma    59.999996837940415

_space_group_name_H-M_alt    "P 1"
_space_group_IT_number       1

loop_
  _space_group_symop_operation_xyz
  'x, y, z'

loop_
  _atom_site_type_symbol
  _atom_site_label
  _atom_site_symmetry_multiplicity
  _atom_site_fract_x
  _atom_site_fract_y
  _atom_site_fract_z
  _atom_site_occupancy
  Hg  Hg1       1.0  0.24999996617567793  0.24999998918317762  0.24999994705505996  1.0000
  Hg  Hg2       1.0  0.7500000006021947  0.7500000127276988  0.7500000960706427  1.0000
  Ta  Ta1       1.0  0.9999998824201595  9.317997213724026e-08  6.29206863007993e-08  1.0000
  I   I1        1.0  0.2255752846928161  0.22557534964536466  0.774424615206869  1.0000
  I   I2        1.0  0.7744248324157448  0.7744246565009592  0.22557517541862704  1.0000
  I   I3        1.0  0.7744247887003969  0.2255752468924704  0.22557530335839088  1.0000
  I   I4        1.0  0.22557520484659935  0.7744247705484  0.7744247393671498  1.0000
  I   I5        1.0  0.2255752420525372  0.7744246719533183  0.22557536575909076  1.0000
  I   I6        1.0  0.7744248158728778  0.22557518030487864  0.7744246754950823  1.0000
