data_image0
_chemical_formula_structural       Hg2TlF6
_chemical_formula_sum              "Hg2 Tl1 F6"
_cell_length_a       6.2633507496220036
_cell_length_b       6.263350690521511
_cell_length_c       6.26335101471062
_cell_angle_alpha    59.99999778112867
_cell_angle_beta     59.99999694012158
_cell_angle_gamma    60.00000186863774

_space_group_name_H-M_alt    "P 1"
_space_group_IT_number       1

loop_
  _space_group_symop_operation_xyz
  'x, y, z'

loop_
  _atom_site_type_symbol
  _atom_site_label
  _atom_site_symmetry_multiplicity
  _atom_site_fract_x
  _atom_site_fract_y
  _atom_site_fract_z
  _atom_site_occupancy
  Hg  Hg1       1.0  0.2500000292846465  0.25000010545749984  0.24999998803166243  1.0000
  Hg  Hg2       1.0  0.7499997319947596  0.7499998353404368  0.7500002723759447  1.0000
  Tl  Tl1       1.0  1.4730005121152048e-09  0.9999998904967696  0.9999999933447171  1.0000
  F   F1        1.0  0.24377093236360148  0.24377112761512648  0.7562288966138669  1.0000
  F   F2        1.0  0.7562289354154657  0.7562288034057404  0.24377123081320357  1.0000
  F   F3        1.0  0.7562289423003342  0.24377120535678543  0.24377111571466237  1.0000
  F   F4        1.0  0.24377127424808803  0.7562289016514304  0.7562288355498802  1.0000
  F   F5        1.0  0.24377121430706758  0.7562288251195439  0.24377104018242243  1.0000
  F   F6        1.0  0.7562289970461051  0.24377126428993823  0.756228735678149  1.0000
