data_image0
_chemical_formula_structural       Hg2TaCl6
_chemical_formula_sum              "Hg2 Ta1 Cl6"
_cell_length_a       7.96402404792831
_cell_length_b       7.964024571218127
_cell_length_c       7.964024322327875
_cell_angle_alpha    59.99999892306717
_cell_angle_beta     60.00000158388124
_cell_angle_gamma    59.999999954103764

_space_group_name_H-M_alt    "P 1"
_space_group_IT_number       1

loop_
  _space_group_symop_operation_xyz
  'x, y, z'

loop_
  _atom_site_type_symbol
  _atom_site_label
  _atom_site_symmetry_multiplicity
  _atom_site_fract_x
  _atom_site_fract_y
  _atom_site_fract_z
  _atom_site_occupancy
  Hg  Hg1       1.0  0.24999994556229696  0.24999998457993786  0.24999996436888516  1.0000
  Hg  Hg2       1.0  0.7500000216126392  0.7500000644647659  0.7499999612525209  1.0000
  Ta  Ta1       1.0  0.9999999724368861  2.6143396879285575e-08  0.9999999165815359  1.0000
  Cl  Cl1       1.0  0.21014410903785946  0.21014403962728148  0.7898559866195635  1.0000
  Cl  Cl2       1.0  0.7898559408415065  0.7898559048438396  0.21014415586246366  1.0000
  Cl  Cl3       1.0  0.789855958848559  0.2101440285278019  0.210144129921377  1.0000
  Cl  Cl4       1.0  0.21014407380795358  0.7898559067162438  0.789855891431429  1.0000
  Cl  Cl5       1.0  0.21014403223039294  0.789855988067706  0.21014414250614638  1.0000
  Cl  Cl6       1.0  0.7898559334946502  0.21014406097699564  0.7898558529007699  1.0000
