data_image0
_chemical_formula_structural       Hg2TaF6
_chemical_formula_sum              "Hg2 Ta1 F6"
_cell_length_a       7.238058334523085
_cell_length_b       7.238057562222886
_cell_length_c       7.238058880676155
_cell_angle_alpha    60.00000157240267
_cell_angle_beta     59.99999536889338
_cell_angle_gamma    60.00000066888327

_space_group_name_H-M_alt    "P 1"
_space_group_IT_number       1

loop_
  _space_group_symop_operation_xyz
  'x, y, z'

loop_
  _atom_site_type_symbol
  _atom_site_label
  _atom_site_symmetry_multiplicity
  _atom_site_fract_x
  _atom_site_fract_y
  _atom_site_fract_z
  _atom_site_occupancy
  Hg  Hg1       1.0  0.2500000206332565  0.2499998827541928  0.25000001298890273  1.0000
  Hg  Hg2       1.0  0.7499999077454839  0.74999992407327  0.7499993785302487  1.0000
  Ta  Ta1       1.0  2.560525618369138e-08  2.3689273498469214e-08  3.614251514124653e-08  1.0000
  F   F1        1.0  0.18779681369972162  0.1877967335896087  0.8122033224369246  1.0000
  F   F2        1.0  0.812203072357255  0.8122033964272363  0.1877969565483369  1.0000
  F   F3        1.0  0.8122033122507938  0.18779671453636484  0.18779685386959738  1.0000
  F   F4        1.0  0.1877969043634136  0.8122031752036298  0.812203299843473  1.0000
  F   F5        1.0  0.18779668406874947  0.8122032111407511  0.187796848153707  1.0000
  F   F6        1.0  0.8122031895160022  0.18779690364727283  0.812203381129126  1.0000
