data_image0
_chemical_formula_structural       Hg2TaBr6
_chemical_formula_sum              "Hg2 Ta1 Br6"
_cell_length_a       8.175520359732467
_cell_length_b       8.175520285436333
_cell_length_c       8.175520620602184
_cell_angle_alpha    60.00000039770827
_cell_angle_beta     59.99999777610347
_cell_angle_gamma    59.99999699429348

_space_group_name_H-M_alt    "P 1"
_space_group_IT_number       1

loop_
  _space_group_symop_operation_xyz
  'x, y, z'

loop_
  _atom_site_type_symbol
  _atom_site_label
  _atom_site_symmetry_multiplicity
  _atom_site_fract_x
  _atom_site_fract_y
  _atom_site_fract_z
  _atom_site_occupancy
  Hg  Hg1       1.0  0.24999992544192612  0.24999994110441334  0.25000009348264285  1.0000
  Hg  Hg2       1.0  0.7500000603551676  0.7500000135672965  0.7499999173203452  1.0000
  Ta  Ta1       1.0  0.9999999943504481  7.662567475110056e-16  2.7288049516601217e-08  1.0000
  Br  Br1       1.0  0.21895359736868358  0.21895361225392151  0.7810463997533609  1.0000
  Br  Br2       1.0  0.7810464359355422  0.7810463693829311  0.21895361050840056  1.0000
  Br  Br3       1.0  0.7810464021656095  0.21895365424013433  0.21895360791561294  1.0000
  Br  Br4       1.0  0.21895354740622855  0.7810464472418026  0.78104636349602  1.0000
  Br  Br5       1.0  0.2189536251592683  0.7810463736620458  0.21895363933615938  1.0000
  Br  Br6       1.0  0.781046419786764  0.21895358999804387  0.7810463545224611  1.0000
