data_image0
_chemical_formula_structural       Hg2TlI6
_chemical_formula_sum              "Hg2 Tl1 I6"
_cell_length_a       8.378344058953786
_cell_length_b       8.378343925491107
_cell_length_c       8.378345003631354
_cell_angle_alpha    60.00000040367893
_cell_angle_beta     59.999996917987716
_cell_angle_gamma    60.0000083165952

_space_group_name_H-M_alt    "P 1"
_space_group_IT_number       1

loop_
  _space_group_symop_operation_xyz
  'x, y, z'

loop_
  _atom_site_type_symbol
  _atom_site_label
  _atom_site_symmetry_multiplicity
  _atom_site_fract_x
  _atom_site_fract_y
  _atom_site_fract_z
  _atom_site_occupancy
  Hg  Hg1       1.0  0.2499996761821984  0.25000000496323427  0.25000009046531974  1.0000
  Hg  Hg2       1.0  0.7500002536248552  0.7499999739594935  0.7500000242587961  1.0000
  Tl  Tl1       1.0  0.9999998776413342  3.2159559330263664e-07  0.9999998526394213  1.0000
  I   I1        1.0  0.2820051249947034  0.2820070336145228  0.7179938957686445  1.0000
  I   I2        1.0  0.7179949125624897  0.717992932152029  0.2820061131743855  1.0000
  I   I3        1.0  0.7179942513852426  0.28200627282270446  0.2820057486093744  1.0000
  I   I4        1.0  0.28200588507014684  0.7179935657674119  0.7179942661178995  1.0000
  I   I5        1.0  0.2820056510897093  0.7179935935017292  0.2820064959298488  1.0000
  I   I6        1.0  0.7179943608812981  0.28200631671648446  0.717993492709231  1.0000
