data_image0
_chemical_formula_structural       Hg2TlCl6
_chemical_formula_sum              "Hg2 Tl1 Cl6"
_cell_length_a       7.271396593599678
_cell_length_b       7.271396622717542
_cell_length_c       7.27139662612989
_cell_angle_alpha    60.0000003243972
_cell_angle_beta     60.000001018278645
_cell_angle_gamma    60.000002426421766

_space_group_name_H-M_alt    "P 1"
_space_group_IT_number       1

loop_
  _space_group_symop_operation_xyz
  'x, y, z'

loop_
  _atom_site_type_symbol
  _atom_site_label
  _atom_site_symmetry_multiplicity
  _atom_site_fract_x
  _atom_site_fract_y
  _atom_site_fract_z
  _atom_site_occupancy
  Hg  Hg1       1.0  0.24999999753387758  0.24999997752365413  0.2500000038934709  1.0000
  Hg  Hg2       1.0  0.7500000056579234  0.7499999696262744  0.749999987999863  1.0000
  Tl  Tl1       1.0  0.9999999587751768  5.221430201651557e-08  0.999999967000228  1.0000
  Cl  Cl1       1.0  0.2522019045429949  0.25220191172014045  0.7477981186507685  1.0000
  Cl  Cl2       1.0  0.7477981048714395  0.7477980977500852  0.2522018774781456  1.0000
  Cl  Cl3       1.0  0.7477980614344458  0.25220197715122833  0.25220198313720116  1.0000
  Cl  Cl4       1.0  0.25220189807757293  0.7477980676899757  0.7477980628902313  1.0000
  Cl  Cl5       1.0  0.25220192944001185  0.7477980561740206  0.2522019171366148  1.0000
  Cl  Cl6       1.0  0.747798130358481  0.25220189266024157  0.7477980896192588  1.0000
