data_image0
_chemical_formula_structural       Hg2YI6
_chemical_formula_sum              "Hg2 Y1 I6"
_cell_length_a       9.219184107864807
_cell_length_b       9.21918400367004
_cell_length_c       9.219186316063942
_cell_angle_alpha    59.999989860302605
_cell_angle_beta     59.99999561863801
_cell_angle_gamma    60.000016560020384

_space_group_name_H-M_alt    "P 1"
_space_group_IT_number       1

loop_
  _space_group_symop_operation_xyz
  'x, y, z'

loop_
  _atom_site_type_symbol
  _atom_site_label
  _atom_site_symmetry_multiplicity
  _atom_site_fract_x
  _atom_site_fract_y
  _atom_site_fract_z
  _atom_site_occupancy
  Hg  Hg1       1.0  0.24999992587916706  0.2500001322868186  0.24999990600565225  1.0000
  Hg  Hg2       1.0  0.7500000417062059  0.7499999916758516  0.7500000749342474  1.0000
  Y   Y1        1.0  0.9999999644678113  0.999999651939719  3.393146805999116e-07  1.0000
  I   I1        1.0  0.23301558560549704  0.23301647820110694  0.7669839433143569  1.0000
  I   I2        1.0  0.7669848458098846  0.7669835806664415  0.23301582741116852  1.0000
  I   I3        1.0  0.7669835758392558  0.23301589582855514  0.23301687514292518  1.0000
  I   I4        1.0  0.23301627609958475  0.7669841842944336  0.7669831822859957  1.0000
  I   I5        1.0  0.23301621021714247  0.7669841707107435  0.23301638359836457  1.0000
  I   I6        1.0  0.7669836232381272  0.23301589347055746  0.766983442648162  1.0000
