data_image0
_chemical_formula_structural       Hg2YF6
_chemical_formula_sum              "Hg2 Y1 F6"
_cell_length_a       6.386053875036586
_cell_length_b       6.386053976698146
_cell_length_c       6.386053738570453
_cell_angle_alpha    60.0000005441826
_cell_angle_beta     60.000001581865696
_cell_angle_gamma    59.99999927851174

_space_group_name_H-M_alt    "P 1"
_space_group_IT_number       1

loop_
  _space_group_symop_operation_xyz
  'x, y, z'

loop_
  _atom_site_type_symbol
  _atom_site_label
  _atom_site_symmetry_multiplicity
  _atom_site_fract_x
  _atom_site_fract_y
  _atom_site_fract_z
  _atom_site_occupancy
  Hg  Hg1       1.0  0.25000009059521733  0.24999950684419125  0.25000042723436694  1.0000
  Hg  Hg2       1.0  0.7499998622414648  0.749999895625994  0.750000296270631  1.0000
  Y   Y1        1.0  0.9999999674531255  4.39115672156832e-16  2.723482279966499e-08  1.0000
  F   F1        1.0  0.24106037394077318  0.2410603145427558  0.7589395326132486  1.0000
  F   F2        1.0  0.7589396423347043  0.7589397438297305  0.24106018449942448  1.0000
  F   F3        1.0  0.7589395510699425  0.2410604772657781  0.2410602364601812  1.0000
  F   F4        1.0  0.24106046865248285  0.7589398745366815  0.75893938702096  1.0000
  F   F5        1.0  0.24106037572294906  0.7589398304318831  0.2410603356013221  1.0000
  F   F6        1.0  0.7589396601288263  0.24106040246430974  0.7589395631937348  1.0000
