data_image0
_chemical_formula_structural       Hg2YBr6
_chemical_formula_sum              "Hg2 Y1 Br6"
_cell_length_a       8.784019546509112
_cell_length_b       8.784019891646931
_cell_length_c       8.784018727863138
_cell_angle_alpha    60.000010335197445
_cell_angle_beta     60.0000044418367
_cell_angle_gamma    60.000006500871585

_space_group_name_H-M_alt    "P 1"
_space_group_IT_number       1

loop_
  _space_group_symop_operation_xyz
  'x, y, z'

loop_
  _atom_site_type_symbol
  _atom_site_label
  _atom_site_symmetry_multiplicity
  _atom_site_fract_x
  _atom_site_fract_y
  _atom_site_fract_z
  _atom_site_occupancy
  Hg  Hg1       1.0  0.24999992551593148  0.24999994448864718  0.2500001387009512  1.0000
  Hg  Hg2       1.0  0.7500000560131022  0.7499999533746309  0.7499999352233849  1.0000
  Y   Y1        1.0  0.9999999082756663  0.9999998926398813  1.405257395811284e-07  1.0000
  Br  Br1       1.0  0.22632608737836793  0.22632618215608225  0.7736737516160508  1.0000
  Br  Br2       1.0  0.7736735426084846  0.7736737449872255  0.22632642765623553  1.0000
  Br  Br3       1.0  0.7736739668497139  0.2263263529697962  0.22632588821109922  1.0000
  Br  Br4       1.0  0.22632616333686442  0.7736738837052896  0.773673883918592  1.0000
  Br  Br5       1.0  0.2263264181879176  0.7736739011700049  0.22632596550369244  1.0000
  Br  Br6       1.0  0.7736738747792661  0.22632618631634518  0.7736738749665107  1.0000
