data_image0
_chemical_formula_structural       Hg2YCl6
_chemical_formula_sum              "Hg2 Y1 Cl6"
_cell_length_a       8.526974277707282
_cell_length_b       8.526974102540686
_cell_length_c       8.526974162182531
_cell_angle_alpha    59.9999996700604
_cell_angle_beta     60.00000422047971
_cell_angle_gamma    60.000000981844856

_space_group_name_H-M_alt    "P 1"
_space_group_IT_number       1

loop_
  _space_group_symop_operation_xyz
  'x, y, z'

loop_
  _atom_site_type_symbol
  _atom_site_label
  _atom_site_symmetry_multiplicity
  _atom_site_fract_x
  _atom_site_fract_y
  _atom_site_fract_z
  _atom_site_occupancy
  Hg  Hg1       1.0  0.2499998611607127  0.24999997083225123  0.25000007322538553  1.0000
  Hg  Hg2       1.0  0.7500000574147707  0.7499999613315785  0.7500000333483742  1.0000
  Y   Y1        1.0  0.9999999186815285  0.9999999798915417  1.5860636611325692e-07  1.0000
  Cl  Cl1       1.0  0.21879459533913703  0.2187945649509517  0.781205391663967  1.0000
  Cl  Cl2       1.0  0.7812054287515637  0.7812054203566567  0.21879456052436488  1.0000
  Cl  Cl3       1.0  0.7812056069672173  0.21879457857582094  0.2187943262033054  1.0000
  Cl  Cl4       1.0  0.21879442959250692  0.7812057471392196  0.7812055586124512  1.0000
  Cl  Cl5       1.0  0.21879441454401904  0.7812053909597477  0.21879443292341602  1.0000
  Cl  Cl6       1.0  0.7812056894735386  0.218794403317531  0.7812054809967386  1.0000
