data_image0
_chemical_formula_structural       In2AsBr6
_chemical_formula_sum              "In2 As1 Br6"
_cell_length_a       7.569915776264393
_cell_length_b       7.569915696362884
_cell_length_c       7.569915714260149
_cell_angle_alpha    60.00000019763001
_cell_angle_beta     60.000000436444424
_cell_angle_gamma    59.999999619414

_space_group_name_H-M_alt    "P 1"
_space_group_IT_number       1

loop_
  _space_group_symop_operation_xyz
  'x, y, z'

loop_
  _atom_site_type_symbol
  _atom_site_label
  _atom_site_symmetry_multiplicity
  _atom_site_fract_x
  _atom_site_fract_y
  _atom_site_fract_z
  _atom_site_occupancy
  In  In1       1.0  0.24999999324854486  0.2500000083727577  0.25000000568638664  1.0000
  In  In2       1.0  0.7499999995914628  0.7499999976137887  0.7499999905050585  1.0000
  As  As1       1.0  1.9383178774999015e-08  0.9999999967641785  8.703966574685717e-08  1.0000
  Br  Br1       1.0  0.24560273493695006  0.24560271725192895  0.7543972939772411  1.0000
  Br  Br2       1.0  0.7543972693050878  0.7543972774092416  0.24560273255930642  1.0000
  Br  Br3       1.0  0.7543973143972088  0.2456026707542279  0.2456027068553751  1.0000
  Br  Br4       1.0  0.24560274084598557  0.75439726242633  0.7543972443387613  1.0000
  Br  Br5       1.0  0.2456026775718244  0.7543973307236834  0.24560268910255373  1.0000
  Br  Br6       1.0  0.7543972443445442  0.24560274159720788  0.7543972406905676  1.0000
