data_image0
_chemical_formula_structural       In2AsF6
_chemical_formula_sum              "In2 As1 F6"
_cell_length_a       6.035202287909462
_cell_length_b       6.035202352886344
_cell_length_c       6.035202209817132
_cell_angle_alpha    59.999999716444236
_cell_angle_beta     59.99999913043665
_cell_angle_gamma    59.999999915100226

_space_group_name_H-M_alt    "P 1"
_space_group_IT_number       1

loop_
  _space_group_symop_operation_xyz
  'x, y, z'

loop_
  _atom_site_type_symbol
  _atom_site_label
  _atom_site_symmetry_multiplicity
  _atom_site_fract_x
  _atom_site_fract_y
  _atom_site_fract_z
  _atom_site_occupancy
  In  In1       1.0  0.24999992971205265  0.25000002066820654  0.250000059294235  1.0000
  In  In2       1.0  0.7500000372452855  0.7499999605378602  0.7499998510488868  1.0000
  As  As1       1.0  1.530620484234131e-08  0.9999999999999999  1.3887186541852103e-08  1.0000
  F   F1        1.0  0.23015938547041465  0.23015928571562966  0.7698406785493475  1.0000
  F   F2        1.0  0.7698407463005706  0.7698406143170271  0.23015933578484202  1.0000
  F   F3        1.0  0.7698406449270017  0.2301593750653128  0.23015937986823198  1.0000
  F   F4        1.0  0.23015928076718498  0.7698407299302011  0.7698406863882331  1.0000
  F   F5        1.0  0.2301592927523576  0.769840674965636  0.230159377117897  1.0000
  F   F6        1.0  0.7698406672084093  0.2301593387097934  0.7698406513875085  1.0000
