data_image0
_chemical_formula_structural       In2AsI6
_chemical_formula_sum              "In2 As1 I6"
_cell_length_a       7.988275544098752
_cell_length_b       7.988275552147106
_cell_length_c       7.988275589076829
_cell_angle_alpha    60.00000032285135
_cell_angle_beta     60.000000070341
_cell_angle_gamma    59.99999999936357

_space_group_name_H-M_alt    "P 1"
_space_group_IT_number       1

loop_
  _space_group_symop_operation_xyz
  'x, y, z'

loop_
  _atom_site_type_symbol
  _atom_site_label
  _atom_site_symmetry_multiplicity
  _atom_site_fract_x
  _atom_site_fract_y
  _atom_site_fract_z
  _atom_site_occupancy
  In  In1       1.0  0.25000001012914436  0.25000000262057887  0.24999999569256828  1.0000
  In  In2       1.0  0.7499999723196604  0.7499999955963121  0.7500000172369649  1.0000
  As  As1       1.0  0.9999999909612554  4.4462163159339583e-08  0.9999999585034329  1.0000
  I   I1        1.0  0.2514342259790492  0.2514342085638219  0.7485657404215862  1.0000
  I   I2        1.0  0.7485657775534243  0.7485657957857811  0.2514342313593948  1.0000
  I   I3        1.0  0.7485657652549996  0.2514342171231288  0.2514342115850843  1.0000
  I   I4        1.0  0.25143422731226406  0.7485657810937624  0.7485658100554  1.0000
  I   I5        1.0  0.2514342366454486  0.7485657405650324  0.25143423251807184  1.0000
  I   I6        1.0  0.748565793359383  0.2514342147228736  0.748565805638302  1.0000
