data_image0
_chemical_formula_structural       In2AsCl6
_chemical_formula_sum              "In2 As1 Cl6"
_cell_length_a       7.2056410690619925
_cell_length_b       7.205640898582802
_cell_length_c       7.205640966901545
_cell_angle_alpha    59.999998938404936
_cell_angle_beta     59.999999971253864
_cell_angle_gamma    59.99999795811669

_space_group_name_H-M_alt    "P 1"
_space_group_IT_number       1

loop_
  _space_group_symop_operation_xyz
  'x, y, z'

loop_
  _atom_site_type_symbol
  _atom_site_label
  _atom_site_symmetry_multiplicity
  _atom_site_fract_x
  _atom_site_fract_y
  _atom_site_fract_z
  _atom_site_occupancy
  In  In1       1.0  0.24999998861029402  0.2499999389674649  0.25000006391025736  1.0000
  In  In2       1.0  0.7500000243564912  0.7500001653414955  0.749999852243859  1.0000
  As  As1       1.0  0.9999999735990929  1.189792024015373e-08  9.884639849560533e-08  1.0000
  Cl  Cl1       1.0  0.2410423655321652  0.2410423891595032  0.7589576222027022  1.0000
  Cl  Cl2       1.0  0.7589575859927784  0.7589575196836207  0.2410424432222783  1.0000
  Cl  Cl3       1.0  0.7589576099481249  0.24104238942099204  0.24104233702600547  1.0000
  Cl  Cl4       1.0  0.24104246041973137  0.758957561914704  0.7589575727899461  1.0000
  Cl  Cl5       1.0  0.2410424153087279  0.758957570431098  0.2410424053123569  1.0000
  Cl  Cl6       1.0  0.7589575803555907  0.24104246079063615  0.7589575948950505  1.0000
