data_image0
_chemical_formula_structural       In2AsCl6
_chemical_formula_sum              "In2 As1 Cl6"
_cell_length_a       7.206939565998055
_cell_length_b       7.206939343210419
_cell_length_c       7.20693943654296
_cell_angle_alpha    59.99999942963462
_cell_angle_beta     59.9999995547245
_cell_angle_gamma    60.00000334872487

_space_group_name_H-M_alt    "P 1"
_space_group_IT_number       1

loop_
  _space_group_symop_operation_xyz
  'x, y, z'

loop_
  _atom_site_type_symbol
  _atom_site_label
  _atom_site_symmetry_multiplicity
  _atom_site_fract_x
  _atom_site_fract_y
  _atom_site_fract_z
  _atom_site_occupancy
  In  In1       1.0  0.24999996015373938  0.2500000348262095  0.249999885350898  1.0000
  In  In2       1.0  0.7500000456857183  0.7499999260419878  0.7499998222271917  1.0000
  As  As1       1.0  0.9999998355892196  0.9999999116313661  2.40168935802642e-07  1.0000
  Cl  Cl1       1.0  0.24097474712636896  0.24097462317059382  0.759025350643487  1.0000
  Cl  Cl2       1.0  0.7590254016481982  0.759025403974081  0.2409746380681396  1.0000
  Cl  Cl3       1.0  0.7590252561111508  0.2409747153254789  0.24097484446909628  1.0000
  Cl  Cl4       1.0  0.24097477589672367  0.7590253016228102  0.7590251758103845  1.0000
  Cl  Cl5       1.0  0.24097476011715754  0.7590253412072295  0.24097479275194356  1.0000
  Cl  Cl6       1.0  0.7590252272704825  0.2409747471157173  0.7590252488391149  1.0000
