data_image0
_chemical_formula_structural       In2AsBr6
_chemical_formula_sum              "In2 As1 Br6"
_cell_length_a       7.563620859992471
_cell_length_b       7.563620868271662
_cell_length_c       7.5636208387808885
_cell_angle_alpha    59.999999510475455
_cell_angle_beta     59.999999302205104
_cell_angle_gamma    59.999999343588826

_space_group_name_H-M_alt    "P 1"
_space_group_IT_number       1

loop_
  _space_group_symop_operation_xyz
  'x, y, z'

loop_
  _atom_site_type_symbol
  _atom_site_label
  _atom_site_symmetry_multiplicity
  _atom_site_fract_x
  _atom_site_fract_y
  _atom_site_fract_z
  _atom_site_occupancy
  In  In1       1.0  0.2499999623511756  0.24999996378074063  0.2499999722128271  1.0000
  In  In2       1.0  0.7499999540540955  0.7500000338368688  0.7500000154970596  1.0000
  As  As1       1.0  1.9862344899009106e-08  0.9999999724726245  5.539512112294864e-08  1.0000
  Br  Br1       1.0  0.24587403656806597  0.24587406649432614  0.7541259499780215  1.0000
  Br  Br2       1.0  0.7541259778047679  0.7541259440773416  0.2458740444106047  1.0000
  Br  Br3       1.0  0.754126027350536  0.2458739782710537  0.24587402333054034  1.0000
  Br  Br4       1.0  0.24587404579176025  0.7541259659110618  0.754125978834485  1.0000
  Br  Br5       1.0  0.24587402084569118  0.7541260116763008  0.24587399732006396  1.0000
  Br  Br6       1.0  0.7541259551438888  0.2458740636656617  0.7541259666875064  1.0000
