data_image0
_chemical_formula_structural       In2AsI6
_chemical_formula_sum              "In2 As1 I6"
_cell_length_a       7.990166170934787
_cell_length_b       7.990166151527609
_cell_length_c       7.990166181975211
_cell_angle_alpha    60.000000279907546
_cell_angle_beta     59.99999977454467
_cell_angle_gamma    60.00000011426724

_space_group_name_H-M_alt    "P 1"
_space_group_IT_number       1

loop_
  _space_group_symop_operation_xyz
  'x, y, z'

loop_
  _atom_site_type_symbol
  _atom_site_label
  _atom_site_symmetry_multiplicity
  _atom_site_fract_x
  _atom_site_fract_y
  _atom_site_fract_z
  _atom_site_occupancy
  In  In1       1.0  0.24999999647120688  0.2500000041055312  0.24999999125466404  1.0000
  In  In2       1.0  0.7499999959681567  0.7499999969884408  0.7499999994269537  1.0000
  As  As1       1.0  1.6087039961574817e-08  0.9999999647452489  1.9596162843963023e-08  1.0000
  I   I1        1.0  0.2513878045998093  0.2513877992970914  0.7486121919764297  1.0000
  I   I2        1.0  0.7486122175014835  0.7486122125265876  0.2513877847670621  1.0000
  I   I3        1.0  0.7486121959897241  0.2513877998103663  0.25138780196582516  1.0000
  I   I4        1.0  0.2513877849610453  0.7486122227430196  0.7486122162703818  1.0000
  I   I5        1.0  0.25138778317544813  0.7486122047888711  0.25138778931159805  1.0000
  I   I6        1.0  0.748612202038155  0.25138779630510083  0.7486122062344381  1.0000
