data_image0
_chemical_formula_structural       In2AsF6
_chemical_formula_sum              "In2 As1 F6"
_cell_length_a       6.038536380230443
_cell_length_b       6.038535515155555
_cell_length_c       6.0385356894550855
_cell_angle_alpha    60.00000228191587
_cell_angle_beta     60.00000109852872
_cell_angle_gamma    60.00000093984482

_space_group_name_H-M_alt    "P 1"
_space_group_IT_number       1

loop_
  _space_group_symop_operation_xyz
  'x, y, z'

loop_
  _atom_site_type_symbol
  _atom_site_label
  _atom_site_symmetry_multiplicity
  _atom_site_fract_x
  _atom_site_fract_y
  _atom_site_fract_z
  _atom_site_occupancy
  In  In1       1.0  0.2500000260100561  0.2499999929774615  0.24999994770785208  1.0000
  In  In2       1.0  0.749999952247877  0.7500000235531149  0.7499999333852587  1.0000
  As  As1       1.0  2.1150407900511737e-08  0.9999999939153542  0.9999999676266591  1.0000
  F   F1        1.0  0.2299718446685717  0.2299718305378102  0.7700282180939406  1.0000
  F   F2        1.0  0.7700281621566436  0.7700281920774231  0.22997188248557884  1.0000
  F   F3        1.0  0.7700281811156534  0.22997178136664206  0.22997186231221067  1.0000
  F   F4        1.0  0.2299719014659727  0.7700281459224831  0.7700281834669594  1.0000
  F   F5        1.0  0.22997175529004146  0.7700282037826209  0.2299718683166179  1.0000
  F   F6        1.0  0.7700281371102087  0.2299718695379808  0.7700281581367441  1.0000
