data_image0
_chemical_formula_structural       In2BiCl6
_chemical_formula_sum              "In2 Bi1 Cl6"
_cell_length_a       7.333166516277107
_cell_length_b       7.333166410500715
_cell_length_c       7.333166681898807
_cell_angle_alpha    59.99999918520813
_cell_angle_beta     59.99999894790102
_cell_angle_gamma    60.00000078408899

_space_group_name_H-M_alt    "P 1"
_space_group_IT_number       1

loop_
  _space_group_symop_operation_xyz
  'x, y, z'

loop_
  _atom_site_type_symbol
  _atom_site_label
  _atom_site_symmetry_multiplicity
  _atom_site_fract_x
  _atom_site_fract_y
  _atom_site_fract_z
  _atom_site_occupancy
  In  In1       1.0  0.2499999953353137  0.24999998908776302  0.2500000064927576  1.0000
  In  In2       1.0  0.7499999985865727  0.7499999956557489  0.7500000480837518  1.0000
  Bi  Bi1       1.0  0.9999998629910216  2.8392457697761827e-08  2.0703900431438734e-07  1.0000
  Cl  Cl1       1.0  0.2549297522557844  0.25492978647503883  0.7450702142129696  1.0000
  Cl  Cl2       1.0  0.7450703315289637  0.7450703302099029  0.2549296380956817  1.0000
  Cl  Cl3       1.0  0.7450702769897405  0.254929727169456  0.25492974019081355  1.0000
  Cl  Cl4       1.0  0.25492982649025947  0.7450701273027731  0.7450701461018565  1.0000
  Cl  Cl5       1.0  0.25492979111942254  0.7450701812476219  0.25492983509879646  1.0000
  Cl  Cl6       1.0  0.7450701671263597  0.2549298302182037  0.7450701707715818  1.0000
