data_image0
_chemical_formula_structural       In2BiBr6
_chemical_formula_sum              "In2 Bi1 Br6"
_cell_length_a       7.65652320804706
_cell_length_b       7.656523268712367
_cell_length_c       7.656523321064689
_cell_angle_alpha    59.999999683562244
_cell_angle_beta     59.999999620037705
_cell_angle_gamma    60.00000082528221

_space_group_name_H-M_alt    "P 1"
_space_group_IT_number       1

loop_
  _space_group_symop_operation_xyz
  'x, y, z'

loop_
  _atom_site_type_symbol
  _atom_site_label
  _atom_site_symmetry_multiplicity
  _atom_site_fract_x
  _atom_site_fract_y
  _atom_site_fract_z
  _atom_site_occupancy
  In  In1       1.0  0.24999999746800228  0.2499999939175426  0.2500000042718499  1.0000
  In  In2       1.0  0.7499999960292505  0.7500000025475537  0.7500000136662232  1.0000
  Bi  Bi1       1.0  0.9999999972738921  0.9999999584101484  1.5627600625361832e-08  1.0000
  Br  Br1       1.0  0.2612367099950508  0.2612367042183197  0.7387633110750055  1.0000
  Br  Br2       1.0  0.7387633025589476  0.7387633210397508  0.2612367025293451  1.0000
  Br  Br3       1.0  0.7387632952710235  0.2612366951212786  0.26123673051605983  1.0000
  Br  Br4       1.0  0.2612367057668619  0.7387633013438176  0.7387632640605597  1.0000
  Br  Br5       1.0  0.26123671868222004  0.7387632972290222  0.26123671703994145  1.0000
  Br  Br6       1.0  0.7387632640594854  0.2612367360270965  0.7387632460859676  1.0000
