data_image0
_chemical_formula_structural       In2BiF6
_chemical_formula_sum              "In2 Bi1 F6"
_cell_length_a       6.186989372439948
_cell_length_b       6.186989392346402
_cell_length_c       6.186989434408636
_cell_angle_alpha    59.99999992225606
_cell_angle_beta     59.9999988180128
_cell_angle_gamma    59.99999797638399

_space_group_name_H-M_alt    "P 1"
_space_group_IT_number       1

loop_
  _space_group_symop_operation_xyz
  'x, y, z'

loop_
  _atom_site_type_symbol
  _atom_site_label
  _atom_site_symmetry_multiplicity
  _atom_site_fract_x
  _atom_site_fract_y
  _atom_site_fract_z
  _atom_site_occupancy
  In  In1       1.0  0.24999991128742058  0.24999998262245735  0.2500000440862517  1.0000
  In  In2       1.0  0.7500000442013737  0.749999985478797  0.7499999857604993  1.0000
  Bi  Bi1       1.0  0.9999999836558191  0.999999976245412  3.886434675457343e-09  1.0000
  F   F1        1.0  0.24999314501931758  0.2499931021719356  0.7500068889092993  1.0000
  F   F2        1.0  0.7500068473627861  0.7500068560315732  0.24999317916110905  1.0000
  F   F3        1.0  0.75000691154736  0.24999312812760494  0.24999310865923358  1.0000
  F   F4        1.0  0.24999319092918787  0.7500068637282346  0.7500068051067426  1.0000
  F   F5        1.0  0.24999312322244752  0.7500068949392238  0.2499931183375693  1.0000
  F   F6        1.0  0.7500068369013837  0.24999322162820697  0.7500068381911652  1.0000
