data_image0
_chemical_formula_structural       In2BCl6
_chemical_formula_sum              "In2 B1 Cl6"
_cell_length_a       7.088789656828372
_cell_length_b       7.088789926896845
_cell_length_c       7.08878963179477
_cell_angle_alpha    59.999997254197446
_cell_angle_beta     59.99999898242933
_cell_angle_gamma    59.99999664340815

_space_group_name_H-M_alt    "P 1"
_space_group_IT_number       1

loop_
  _space_group_symop_operation_xyz
  'x, y, z'

loop_
  _atom_site_type_symbol
  _atom_site_label
  _atom_site_symmetry_multiplicity
  _atom_site_fract_x
  _atom_site_fract_y
  _atom_site_fract_z
  _atom_site_occupancy
  In  In1       1.0  0.2500002032757021  0.24999998136741633  0.24999984189709246  1.0000
  In  In2       1.0  0.7500001493394174  0.7499999181864451  0.7499999141928686  1.0000
  B   B1        1.0  0.9999998167119188  6.427121063583894e-07  0.9999997985015301  1.0000
  Cl  Cl1       1.0  0.2069280553914878  0.2069282763374751  0.7930718637489933  1.0000
  Cl  Cl2       1.0  0.7930717062763247  0.7930715195531545  0.20692837083930485  1.0000
  Cl  Cl3       1.0  0.7930717752003403  0.20692822416153805  0.20692825695966108  1.0000
  Cl  Cl4       1.0  0.2069282616206698  0.7930716356547498  0.7930718179639511  1.0000
  Cl  Cl5       1.0  0.20692819363646447  0.7930716398047984  0.2069284141436078  1.0000
  Cl  Cl6       1.0  0.7930718036954477  0.20692824074413707  0.793071711067893  1.0000
