data_image0
_chemical_formula_structural       In2BiCl6
_chemical_formula_sum              "In2 Bi1 Cl6"
_cell_length_a       7.327752987040502
_cell_length_b       7.3277528653299875
_cell_length_c       7.327752962854712
_cell_angle_alpha    60.000000445276136
_cell_angle_beta     60.00000052723546
_cell_angle_gamma    60.00000028736483

_space_group_name_H-M_alt    "P 1"
_space_group_IT_number       1

loop_
  _space_group_symop_operation_xyz
  'x, y, z'

loop_
  _atom_site_type_symbol
  _atom_site_label
  _atom_site_symmetry_multiplicity
  _atom_site_fract_x
  _atom_site_fract_y
  _atom_site_fract_z
  _atom_site_occupancy
  In  In1       1.0  0.2499999785863828  0.25000000578150783  0.25000001554292833  1.0000
  In  In2       1.0  0.7499999966578611  0.7500000190159021  0.7499999989676417  1.0000
  Bi  Bi1       1.0  0.9999999804377973  6.685514311968399e-09  4.464923933838145e-08  1.0000
  Cl  Cl1       1.0  0.25504577238647763  0.2550457446408824  0.7449542709029132  1.0000
  Cl  Cl2       1.0  0.7449542370800246  0.744954248400336  0.25504576420942043  1.0000
  Cl  Cl3       1.0  0.7449543196086328  0.2550457071956803  0.2550456926691025  1.0000
  Cl  Cl4       1.0  0.25504578259196076  0.74495421564764  0.7449542124484245  1.0000
  Cl  Cl5       1.0  0.2550457323745166  0.7449542750159355  0.2550457655172332  1.0000
  Cl  Cl6       1.0  0.7449542051299368  0.25504577318077304  0.7449542220467121  1.0000
