data_image0
_chemical_formula_structural       In2BiI6
_chemical_formula_sum              "In2 Bi1 I6"
_cell_length_a       8.16533694924521
_cell_length_b       8.165336896271164
_cell_length_c       8.16533718960778
_cell_angle_alpha    60.000000523868636
_cell_angle_beta     60.00000012060038
_cell_angle_gamma    60.000001659245605

_space_group_name_H-M_alt    "P 1"
_space_group_IT_number       1

loop_
  _space_group_symop_operation_xyz
  'x, y, z'

loop_
  _atom_site_type_symbol
  _atom_site_label
  _atom_site_symmetry_multiplicity
  _atom_site_fract_x
  _atom_site_fract_y
  _atom_site_fract_z
  _atom_site_occupancy
  In  In1       1.0  0.25000001841856906  0.25000000402631795  0.2500000192104427  1.0000
  In  In2       1.0  0.7499999947046351  0.7499999985795646  0.7499999697382629  1.0000
  Bi  Bi1       1.0  0.9999999975737017  0.9999998800054553  8.815358163917199e-08  1.0000
  I   I1        1.0  0.2637950534858686  0.26379503928407505  0.7362049445621397  1.0000
  I   I2        1.0  0.73620499989034  0.736204978321126  0.2637950081875807  1.0000
  I   I3        1.0  0.7362049078324352  0.26379505712551987  0.26379508473865015  1.0000
  I   I4        1.0  0.2637950860637217  0.7362049649794763  0.7362049334665622  1.0000
  I   I5        1.0  0.2637950099517095  0.7362049952616616  0.26379501415528206  1.0000
  I   I6        1.0  0.7362049325914434  0.2637950748411508  0.7362049444930663  1.0000
