data_image0
_chemical_formula_structural       In2BiI6
_chemical_formula_sum              "In2 Bi1 I6"
_cell_length_a       8.166973142885192
_cell_length_b       8.166973246608933
_cell_length_c       8.16697305887224
_cell_angle_alpha    60.00000053616199
_cell_angle_beta     60.00000025046011
_cell_angle_gamma    60.000000343943

_space_group_name_H-M_alt    "P 1"
_space_group_IT_number       1

loop_
  _space_group_symop_operation_xyz
  'x, y, z'

loop_
  _atom_site_type_symbol
  _atom_site_label
  _atom_site_symmetry_multiplicity
  _atom_site_fract_x
  _atom_site_fract_y
  _atom_site_fract_z
  _atom_site_occupancy
  In  In1       1.0  0.2500000039006846  0.25000000376252945  0.24999999686846558  1.0000
  In  In2       1.0  0.7499999997344332  0.7499999962912756  0.7499999955162566  1.0000
  Bi  Bi1       1.0  0.9999999969860225  3.4491519587362726e-08  3.323898322700567e-08  1.0000
  I   I1        1.0  0.26376787323975154  0.2637679270616959  0.7362320981368247  1.0000
  I   I2        1.0  0.7362320882366832  0.7362320594954275  0.26376792819779915  1.0000
  I   I3        1.0  0.736232108585281  0.26376788614965674  0.2637678977024  1.0000
  I   I4        1.0  0.2637679300828543  0.7362320809122599  0.7362320642751049  1.0000
  I   I5        1.0  0.26376789530212297  0.736232105947074  0.26376789151640306  1.0000
  I   I6        1.0  0.7362320991783913  0.26376790460415  0.7362320989724674  1.0000
