data_image0
_chemical_formula_structural       In2BI6
_chemical_formula_sum              "In2 B1 I6"
_cell_length_a       7.785227589393347
_cell_length_b       7.785227479183982
_cell_length_c       7.785227592773839
_cell_angle_alpha    60.00000082888406
_cell_angle_beta     60.00000070778513
_cell_angle_gamma    60.00000138955239

_space_group_name_H-M_alt    "P 1"
_space_group_IT_number       1

loop_
  _space_group_symop_operation_xyz
  'x, y, z'

loop_
  _atom_site_type_symbol
  _atom_site_label
  _atom_site_symmetry_multiplicity
  _atom_site_fract_x
  _atom_site_fract_y
  _atom_site_fract_z
  _atom_site_occupancy
  In  In1       1.0  0.2499999925307379  0.24999999785416682  0.2500000155364468  1.0000
  In  In2       1.0  0.7500000010688465  0.7499999809771789  0.7500000039136495  1.0000
  B   B1        1.0  1.544630211522813e-08  0.9999999937073392  0.9999999568886605  1.0000
  I   I1        1.0  0.22523310651154402  0.22523307781796922  0.7747669147941291  1.0000
  I   I2        1.0  0.7747668518203875  0.7747669356230096  0.2252331152608491  1.0000
  I   I3        1.0  0.774766918068453  0.2252331095978832  0.22523311686427253  1.0000
  I   I4        1.0  0.2252331181838831  0.7747668881114449  0.7747668628290697  1.0000
  I   I5        1.0  0.22523309973358807  0.7747669003186243  0.22523316394671689  1.0000
  I   I6        1.0  0.7747669006521725  0.22523311154919015  0.774766857428285  1.0000
