data_image0
_chemical_formula_structural       In2BBr6
_chemical_formula_sum              "In2 B1 Br6"
_cell_length_a       7.518411484936331
_cell_length_b       7.5184115841075725
_cell_length_c       7.518411902947355
_cell_angle_alpha    59.9999984473786
_cell_angle_beta     59.999995513794104
_cell_angle_gamma    59.999997425523915

_space_group_name_H-M_alt    "P 1"
_space_group_IT_number       1

loop_
  _space_group_symop_operation_xyz
  'x, y, z'

loop_
  _atom_site_type_symbol
  _atom_site_label
  _atom_site_symmetry_multiplicity
  _atom_site_fract_x
  _atom_site_fract_y
  _atom_site_fract_z
  _atom_site_occupancy
  In  In1       1.0  0.2499999745452291  0.24999999486494323  0.2500000523768664  1.0000
  In  In2       1.0  0.7499999938500455  0.7499999536439378  0.7500000217829381  1.0000
  B   B1        1.0  0.9999999909393784  4.561183705458461e-08  0.9999998846294195  1.0000
  Br  Br1       1.0  0.2118937990796118  0.21189389272611042  0.7881061279452581  1.0000
  Br  Br2       1.0  0.7881062416061052  0.7881061844733114  0.21189380848214587  1.0000
  Br  Br3       1.0  0.7881061604582503  0.2118938185159442  0.211893918262655  1.0000
  Br  Br4       1.0  0.21189383302134218  0.7881061837497454  0.7881061244569945  1.0000
  Br  Br5       1.0  0.21189388717320537  0.7881060812249325  0.21189395570659295  1.0000
  Br  Br6       1.0  0.7881061423146045  0.21189383144607518  0.7881061071559476  1.0000
