data_image0
_chemical_formula_structural       In2BiBr6
_chemical_formula_sum              "In2 Bi1 Br6"
_cell_length_a       7.658441909618933
_cell_length_b       7.658441697360548
_cell_length_c       7.65844223987699
_cell_angle_alpha    59.99999876099927
_cell_angle_beta     59.999998236054054
_cell_angle_gamma    60.00000278036401

_space_group_name_H-M_alt    "P 1"
_space_group_IT_number       1

loop_
  _space_group_symop_operation_xyz
  'x, y, z'

loop_
  _atom_site_type_symbol
  _atom_site_label
  _atom_site_symmetry_multiplicity
  _atom_site_fract_x
  _atom_site_fract_y
  _atom_site_fract_z
  _atom_site_occupancy
  In  In1       1.0  0.24999999430220457  0.24999999373141077  0.2499999956884466  1.0000
  In  In2       1.0  0.7500000056900724  0.7499999987855325  0.749999992992932  1.0000
  Bi  Bi1       1.0  0.9999999278109831  0.9999999904047464  3.072648435176039e-07  1.0000
  Br  Br1       1.0  0.26119270016160234  0.26119273524643044  0.7388072877431233  1.0000
  Br  Br2       1.0  0.7388073121356619  0.7388072972507381  0.2611926904646322  1.0000
  Br  Br3       1.0  0.738807256713868  0.26119276722783097  0.2611927788961451  1.0000
  Br  Br4       1.0  0.26119291913892667  0.7388070957531918  0.7388070612710707  1.0000
  Br  Br5       1.0  0.2611927822183189  0.7388072218992725  0.2611928096813512  1.0000
  Br  Br6       1.0  0.7388071001825693  0.26119290175279997  0.7388070756027642  1.0000
