data_image0
_chemical_formula_structural       In2BF6
_chemical_formula_sum              "In2 B1 F6"
_cell_length_a       5.653895912167264
_cell_length_b       5.653895849307144
_cell_length_c       5.653895505925103
_cell_angle_alpha    59.99999964011816
_cell_angle_beta     59.99999963481694
_cell_angle_gamma    59.99999721627184

_space_group_name_H-M_alt    "P 1"
_space_group_IT_number       1

loop_
  _space_group_symop_operation_xyz
  'x, y, z'

loop_
  _atom_site_type_symbol
  _atom_site_label
  _atom_site_symmetry_multiplicity
  _atom_site_fract_x
  _atom_site_fract_y
  _atom_site_fract_z
  _atom_site_occupancy
  In  In1       1.0  0.2499999746653366  0.24999999992753905  0.2500000679646759  1.0000
  In  In2       1.0  0.750000006534349  0.7499999911178333  0.7499999281838224  1.0000
  B   B1        1.0  1.0130175946255933e-08  0.9999999328479124  0.9999999471511228  1.0000
  F   F1        1.0  0.20609300968851177  0.206092976594656  0.7939070084620454  1.0000
  F   F2        1.0  0.7939070169162747  0.793907025281697  0.20609297194925535  1.0000
  F   F3        1.0  0.7939070258589447  0.20609298305210433  0.2060930126398945  1.0000
  F   F4        1.0  0.20609290663320118  0.7939070989735175  0.7939070331199303  1.0000
  F   F5        1.0  0.20609294192444555  0.7939070111897588  0.20609300682185971  1.0000
  F   F6        1.0  0.7939071000914901  0.20609293219929012  0.7939070375761283  1.0000
