data_image0
_chemical_formula_structural       In2BiF6
_chemical_formula_sum              "In2 Bi1 F6"
_cell_length_a       6.182647242089247
_cell_length_b       6.1826479442488385
_cell_length_c       6.182647991857862
_cell_angle_alpha    59.999997496000475
_cell_angle_beta     59.99999871769183
_cell_angle_gamma    59.99999840964473

_space_group_name_H-M_alt    "P 1"
_space_group_IT_number       1

loop_
  _space_group_symop_operation_xyz
  'x, y, z'

loop_
  _atom_site_type_symbol
  _atom_site_label
  _atom_site_symmetry_multiplicity
  _atom_site_fract_x
  _atom_site_fract_y
  _atom_site_fract_z
  _atom_site_occupancy
  In  In1       1.0  0.2499999035870381  0.2500000454595425  0.25000002218977346  1.0000
  In  In2       1.0  0.7500000855012798  0.7499999422465883  0.7499999827349881  1.0000
  Bi  Bi1       1.0  7.583881698116595e-09  0.9999999940571825  0.9999999991794681  1.0000
  F   F1        1.0  0.2501624666216793  0.25016261906830367  0.7498374674665685  1.0000
  F   F2        1.0  0.7498375268233732  0.7498374340088159  0.2501625300906394  1.0000
  F   F3        1.0  0.7498374953943924  0.2501625314887681  0.2501625181209544  1.0000
  F   F4        1.0  0.2501625218413666  0.7498374165985807  0.749837484452329  1.0000
  F   F5        1.0  0.25016246496941463  0.7498374899589882  0.25016254823736145  1.0000
  F   F6        1.0  0.7498375203641713  0.2501625314231068  0.749837449813933  1.0000
