data_image0
_chemical_formula_structural       In2GaF6
_chemical_formula_sum              "In2 Ga1 F6"
_cell_length_a       5.67854706590021
_cell_length_b       5.678547089899349
_cell_length_c       5.678547133439988
_cell_angle_alpha    59.99999941520133
_cell_angle_beta     59.99999915808609
_cell_angle_gamma    59.99999888806785

_space_group_name_H-M_alt    "P 1"
_space_group_IT_number       1

loop_
  _space_group_symop_operation_xyz
  'x, y, z'

loop_
  _atom_site_type_symbol
  _atom_site_label
  _atom_site_symmetry_multiplicity
  _atom_site_fract_x
  _atom_site_fract_y
  _atom_site_fract_z
  _atom_site_occupancy
  In  In1       1.0  0.24999997515633215  0.24999999215383967  0.2500000277766197  1.0000
  In  In2       1.0  0.7500000152682379  0.7500000303813353  0.7499999392687631  1.0000
  Ga  Ga1       1.0  6.470378387608092e-09  0.9999999805888659  0.9999999606840184  1.0000
  F   F1        1.0  0.2372538730737411  0.23725387920700122  0.762746150032159  1.0000
  F   F2        1.0  0.7627461173719923  0.7627461066626979  0.2372539233860713  1.0000
  F   F3        1.0  0.7627461472075121  0.23725384293365634  0.23725391575713212  1.0000
  F   F4        1.0  0.23725388881626158  0.762746134308872  0.7627461039653867  1.0000
  F   F5        1.0  0.23725386139641497  0.7627461504886413  0.23725388421891458  1.0000
  F   F6        1.0  0.7627461228044748  0.2372538785169119  0.7627461020742712  1.0000
