data_image0
_chemical_formula_structural       In2GaCl6
_chemical_formula_sum              "In2 Ga1 Cl6"
_cell_length_a       7.1312608854190005
_cell_length_b       7.131260423874122
_cell_length_c       7.131260428383396
_cell_angle_alpha    59.99999616707444
_cell_angle_beta     59.999997741889835
_cell_angle_gamma    59.9999955036533

_space_group_name_H-M_alt    "P 1"
_space_group_IT_number       1

loop_
  _space_group_symop_operation_xyz
  'x, y, z'

loop_
  _atom_site_type_symbol
  _atom_site_label
  _atom_site_symmetry_multiplicity
  _atom_site_fract_x
  _atom_site_fract_y
  _atom_site_fract_z
  _atom_site_occupancy
  In  In1       1.0  0.24999995990577192  0.25000008970607557  0.24999996193654284  1.0000
  In  In2       1.0  0.7499999940976574  0.7499999599806014  0.7500000715317046  1.0000
  Ga  Ga1       1.0  0.9999999700853084  1.2022019631529069e-08  0.9999999851076335  1.0000
  Cl  Cl1       1.0  0.23565255901002027  0.23565251179396263  0.7643475259614149  1.0000
  Cl  Cl2       1.0  0.7643473648346097  0.7643474777826201  0.23565260452551803  1.0000
  Cl  Cl3       1.0  0.764347444447363  0.2356526116642569  0.23565251947300836  1.0000
  Cl  Cl4       1.0  0.23565252077546245  0.7643474723710476  0.7643473678108803  1.0000
  Cl  Cl5       1.0  0.23565268120571575  0.7643473525116443  0.2356525497595705  1.0000
  Cl  Cl6       1.0  0.764347505672124  0.23565254260622087  0.7643473744420417  1.0000
