data_image0
_chemical_formula_structural       In2GaI6
_chemical_formula_sum              "In2 Ga1 I6"
_cell_length_a       7.90116380875625
_cell_length_b       7.901163836342806
_cell_length_c       7.9011639671581495
_cell_angle_alpha    59.99999899180903
_cell_angle_beta     59.99999970236726
_cell_angle_gamma    59.999999782899174

_space_group_name_H-M_alt    "P 1"
_space_group_IT_number       1

loop_
  _space_group_symop_operation_xyz
  'x, y, z'

loop_
  _atom_site_type_symbol
  _atom_site_label
  _atom_site_symmetry_multiplicity
  _atom_site_fract_x
  _atom_site_fract_y
  _atom_site_fract_z
  _atom_site_occupancy
  In  In1       1.0  0.2500000044048525  0.2499999991936025  0.24999998364637674  1.0000
  In  In2       1.0  0.7500000011837176  0.7499999898303991  0.7499999987988436  1.0000
  Ga  Ga1       1.0  2.511027841714687e-08  0.9999999860492653  2.352986335746058e-08  1.0000
  I   I1        1.0  0.2494450086909799  0.24944498761723247  0.7505550121516419  1.0000
  I   I2        1.0  0.7505549954361596  0.7505550014067688  0.2494450102590195  1.0000
  I   I3        1.0  0.7505549602596323  0.2494449924054872  0.2494450426718439  1.0000
  I   I4        1.0  0.2494450305373269  0.7505550059190041  0.7505549488471184  1.0000
  I   I5        1.0  0.24944500238983075  0.7505550278281787  0.24944499697010647  1.0000
  I   I6        1.0  0.7505549734230064  0.24944501544867945  0.7505549757678244  1.0000
