data_image0
_chemical_formula_structural       In2GaBr6
_chemical_formula_sum              "In2 Ga1 Br6"
_cell_length_a       7.439293998202357
_cell_length_b       7.439293683486413
_cell_length_c       7.439293760006562
_cell_angle_alpha    60.00000030015037
_cell_angle_beta     60.00000024422447
_cell_angle_gamma    59.99999963715168

_space_group_name_H-M_alt    "P 1"
_space_group_IT_number       1

loop_
  _space_group_symop_operation_xyz
  'x, y, z'

loop_
  _atom_site_type_symbol
  _atom_site_label
  _atom_site_symmetry_multiplicity
  _atom_site_fract_x
  _atom_site_fract_y
  _atom_site_fract_z
  _atom_site_occupancy
  In  In1       1.0  0.25000000338931144  0.2500000151686964  0.24999999173500473  1.0000
  In  In2       1.0  0.7500000243580301  0.7499999796533389  0.7500000077574093  1.0000
  Ga  Ga1       1.0  7.3062025221636265e-09  0.9999999967073624  0.9999999858952949  1.0000
  Br  Br1       1.0  0.2427832843587698  0.2427833853453173  0.7572166849900344  1.0000
  Br  Br2       1.0  0.7572167008990573  0.7572166670978746  0.24278332172290876  1.0000
  Br  Br3       1.0  0.7572166737162548  0.24278333085560852  0.2427832782660111  1.0000
  Br  Br4       1.0  0.2427833502219863  0.75721661951582  0.7572167090624886  1.0000
  Br  Br5       1.0  0.24278332552044302  0.7572166504159658  0.24278333184722525  1.0000
  Br  Br6       1.0  0.7572166439655886  0.24278336086925698  0.7572166912326774  1.0000
