data_image0
_chemical_formula_structural       In2GaI6
_chemical_formula_sum              "In2 Ga1 I6"
_cell_length_a       7.9040994694034605
_cell_length_b       7.904099399838646
_cell_length_c       7.90409950767755
_cell_angle_alpha    59.99999967096852
_cell_angle_beta     59.99999946526762
_cell_angle_gamma    60.00000005801209

_space_group_name_H-M_alt    "P 1"
_space_group_IT_number       1

loop_
  _space_group_symop_operation_xyz
  'x, y, z'

loop_
  _atom_site_type_symbol
  _atom_site_label
  _atom_site_symmetry_multiplicity
  _atom_site_fract_x
  _atom_site_fract_y
  _atom_site_fract_z
  _atom_site_occupancy
  In  In1       1.0  0.2499999999061156  0.25000000426136504  0.2499999982191416  1.0000
  In  In2       1.0  0.750000000928586  0.750000000388048  0.7500000002503288  1.0000
  Ga  Ga1       1.0  0.9999999853025004  4.648517707386017e-09  2.2736818569358853e-08  1.0000
  I   I1        1.0  0.24936070420549683  0.24936071050997471  0.7506392987865272  1.0000
  I   I2        1.0  0.7506392816076431  0.7506392646988258  0.249360716853365  1.0000
  I   I3        1.0  0.750639284748443  0.24936073719807048  0.24936071370811108  1.0000
  I   I4        1.0  0.24936072175257598  0.7506392767483779  0.7506392760145166  1.0000
  I   I5        1.0  0.24936073323243974  0.7506392567499119  0.24936074422408688  1.0000
  I   I6        1.0  0.7506392832441476  0.24936074480048923  0.7506392302616187  1.0000
