data_image0
_chemical_formula_structural       In2GaCl6
_chemical_formula_sum              "In2 Ga1 Cl6"
_cell_length_a       7.133976517215641
_cell_length_b       7.13397637855142
_cell_length_c       7.133976559444716
_cell_angle_alpha    59.99999986903768
_cell_angle_beta     60.000000621327004
_cell_angle_gamma    60.00000061367497

_space_group_name_H-M_alt    "P 1"
_space_group_IT_number       1

loop_
  _space_group_symop_operation_xyz
  'x, y, z'

loop_
  _atom_site_type_symbol
  _atom_site_label
  _atom_site_symmetry_multiplicity
  _atom_site_fract_x
  _atom_site_fract_y
  _atom_site_fract_z
  _atom_site_occupancy
  In  In1       1.0  0.24999990559858756  0.24999998467134207  0.24999996246667844  1.0000
  In  In2       1.0  0.7499999682836483  0.7499998939268248  0.7500001351266707  1.0000
  Ga  Ga1       1.0  0.9999999741670028  5.322009610910978e-08  0.9999999792977369  1.0000
  Cl  Cl1       1.0  0.23560943292679226  0.23560940855027443  0.7643905918668855  1.0000
  Cl  Cl2       1.0  0.7643905868223021  0.7643906297081833  0.2356093978186592  1.0000
  Cl  Cl3       1.0  0.7643906038020984  0.2356094126226634  0.23560939124939653  1.0000
  Cl  Cl4       1.0  0.2356093979461034  0.7643906359364578  0.764390588268835  1.0000
  Cl  Cl5       1.0  0.23560942647499164  0.7643905955571174  0.23560937539319307  1.0000
  Cl  Cl6       1.0  0.7643907016721946  0.23560936029603086  0.7643905998942181  1.0000
