data_image0
_chemical_formula_structural       In2GaBr6
_chemical_formula_sum              "In2 Ga1 Br6"
_cell_length_a       7.442172386665304
_cell_length_b       7.442172472749552
_cell_length_c       7.442172507502814
_cell_angle_alpha    59.9999999213486
_cell_angle_beta     60.00000008805738
_cell_angle_gamma    60.00000044967927

_space_group_name_H-M_alt    "P 1"
_space_group_IT_number       1

loop_
  _space_group_symop_operation_xyz
  'x, y, z'

loop_
  _atom_site_type_symbol
  _atom_site_label
  _atom_site_symmetry_multiplicity
  _atom_site_fract_x
  _atom_site_fract_y
  _atom_site_fract_z
  _atom_site_occupancy
  In  In1       1.0  0.24999997259579987  0.25000002523507775  0.25000005162158806  1.0000
  In  In2       1.0  0.7499999629871336  0.7500000378545494  0.7500000329451975  1.0000
  Ga  Ga1       1.0  2.9385593767704277e-08  4.937045986113947e-09  0.9999998981859798  1.0000
  Br  Br1       1.0  0.24264412438509925  0.24264411097376523  0.7573558960348221  1.0000
  Br  Br2       1.0  0.7573558631228579  0.7573558056501712  0.24264416593022672  1.0000
  Br  Br3       1.0  0.7573558624932768  0.2426441426341326  0.24264409391391392  1.0000
  Br  Br4       1.0  0.2426441484279298  0.7573558480454904  0.7573558910991002  1.0000
  Br  Br5       1.0  0.2426441107770563  0.7573558767955927  0.24264407771158789  1.0000
  Br  Br6       1.0  0.7573559212072168  0.24264414844335086  0.7573558902397822  1.0000
