data_image0
_chemical_formula_structural       In2GaF6
_chemical_formula_sum              "In2 Ga1 F6"
_cell_length_a       5.680120145425919
_cell_length_b       5.680120153072872
_cell_length_c       5.680120149808724
_cell_angle_alpha    60.00000221328972
_cell_angle_beta     60.00000208346608
_cell_angle_gamma    60.000003184100386

_space_group_name_H-M_alt    "P 1"
_space_group_IT_number       1

loop_
  _space_group_symop_operation_xyz
  'x, y, z'

loop_
  _atom_site_type_symbol
  _atom_site_label
  _atom_site_symmetry_multiplicity
  _atom_site_fract_x
  _atom_site_fract_y
  _atom_site_fract_z
  _atom_site_occupancy
  In  In1       1.0  0.24999996882805528  0.25000002735437826  0.24999997924690184  1.0000
  In  In2       1.0  0.7499999899978926  0.7500000022839115  0.7499999992523946  1.0000
  Ga  Ga1       1.0  0.9999999848044762  1.509336719802598e-08  2.4698444272244396e-08  1.0000
  F   F1        1.0  0.2371732020113343  0.23717320923025154  0.7628268179709535  1.0000
  F   F2        1.0  0.762826837576728  0.7628267427850104  0.23717322409826702  1.0000
  F   F3        1.0  0.7628268176127115  0.2371732149645527  0.2371732249399066  1.0000
  F   F4        1.0  0.23717323786844946  0.7628267564564665  0.7628267607483116  1.0000
  F   F5        1.0  0.23717321947407285  0.7628267842253222  0.23717323443608557  1.0000
  F   F6        1.0  0.7628267291874731  0.23717324541296772  0.7628267702717253  1.0000
