data_image0
_chemical_formula_structural       In2IrI6
_chemical_formula_sum              "In2 Ir1 I6"
_cell_length_a       7.78502510734755
_cell_length_b       7.785025124452938
_cell_length_c       7.7850250919528206
_cell_angle_alpha    59.999999515228986
_cell_angle_beta     60.000000377826105
_cell_angle_gamma    59.99999996996122

_space_group_name_H-M_alt    "P 1"
_space_group_IT_number       1

loop_
  _space_group_symop_operation_xyz
  'x, y, z'

loop_
  _atom_site_type_symbol
  _atom_site_label
  _atom_site_symmetry_multiplicity
  _atom_site_fract_x
  _atom_site_fract_y
  _atom_site_fract_z
  _atom_site_occupancy
  In  In1       1.0  0.2500000014347101  0.2500000149578556  0.25000000714819165  1.0000
  In  In2       1.0  0.749999993083516  0.7499999850917366  0.750000000427033  1.0000
  Ir  Ir1       1.0  3.717079527075218e-08  0.9999999952803823  0.9999999336782337  1.0000
  I   I1        1.0  0.2443897926098058  0.24438975661502746  0.7556102078646066  1.0000
  I   I2        1.0  0.7556102012195087  0.7556102277025044  0.24438978479979137  1.0000
  I   I3        1.0  0.7556101822058646  0.24438982230495565  0.24438980464744625  1.0000
  I   I4        1.0  0.24438979091728907  0.7556102107819638  0.7556102266505503  1.0000
  I   I5        1.0  0.24438978319933977  0.7556102024095473  0.2443898053468436  1.0000
  I   I6        1.0  0.7556102205781767  0.24438977876157172  0.7556102365818721  1.0000
