data_image0
_chemical_formula_structural       In2IrF6
_chemical_formula_sum              "In2 Ir1 F6"
_cell_length_a       6.056741280881762
_cell_length_b       6.056741212191355
_cell_length_c       6.056740620374477
_cell_angle_alpha    60.000002502061974
_cell_angle_beta     60.000002064398224
_cell_angle_gamma    59.999998748141316

_space_group_name_H-M_alt    "P 1"
_space_group_IT_number       1

loop_
  _space_group_symop_operation_xyz
  'x, y, z'

loop_
  _atom_site_type_symbol
  _atom_site_label
  _atom_site_symmetry_multiplicity
  _atom_site_fract_x
  _atom_site_fract_y
  _atom_site_fract_z
  _atom_site_occupancy
  In  In1       1.0  0.2500000283371071  0.2500000255133902  0.24999996709770267  1.0000
  In  In2       1.0  0.7499998978500053  0.750000060363228  0.7500000376343531  1.0000
  Ir  Ir1       1.0  2.7595936391462054e-08  0.9999999858451696  0.9999999800710224  1.0000
  F   F1        1.0  0.23320958372726164  0.23320945673359808  0.7667904839563916  1.0000
  F   F2        1.0  0.7667904138286721  0.7667905523025144  0.23320956643888485  1.0000
  F   F3        1.0  0.7667905432375265  0.2332094594995227  0.23320952936597716  1.0000
  F   F4        1.0  0.23320956485748676  0.7667904180988833  0.7667904208580589  1.0000
  F   F5        1.0  0.23320955049531863  0.7667904517585769  0.2332095031663514  1.0000
  F   F6        1.0  0.7667903881516042  0.23320961389685582  0.7667905120506041  1.0000
