data_image0
_chemical_formula_structural       In2IrCl6
_chemical_formula_sum              "In2 Ir1 Cl6"
_cell_length_a       7.144893858666309
_cell_length_b       7.144893936041675
_cell_length_c       7.144893904638086
_cell_angle_alpha    59.999999935996
_cell_angle_beta     59.99999985894537
_cell_angle_gamma    59.99999842379148

_space_group_name_H-M_alt    "P 1"
_space_group_IT_number       1

loop_
  _space_group_symop_operation_xyz
  'x, y, z'

loop_
  _atom_site_type_symbol
  _atom_site_label
  _atom_site_symmetry_multiplicity
  _atom_site_fract_x
  _atom_site_fract_y
  _atom_site_fract_z
  _atom_site_occupancy
  In  In1       1.0  0.25000004574410134  0.24999998027119433  0.2499999822089785  1.0000
  In  In2       1.0  0.7499999925797146  0.7500000402345198  0.7500000112307892  1.0000
  Ir  Ir1       1.0  0.9999999945802555  1.7141541745177512e-09  0.999999989256387  1.0000
  Cl  Cl1       1.0  0.23291972336287467  0.23291971991697694  0.7670802410790696  1.0000
  Cl  Cl2       1.0  0.7670802609932049  0.7670802491641172  0.23291973787603262  1.0000
  Cl  Cl3       1.0  0.7670802482206106  0.23291976346917198  0.23291967921026507  1.0000
  Cl  Cl4       1.0  0.23291971745902143  0.7670802810347002  0.7670803007632908  1.0000
  Cl  Cl5       1.0  0.23291971100266876  0.7670802653060403  0.2329197377537074  1.0000
  Cl  Cl6       1.0  0.7670803111935885  0.2329196969184366  0.76708032648088  1.0000
