data_image0
_chemical_formula_structural       In2IrBr6
_chemical_formula_sum              "In2 Ir1 Br6"
_cell_length_a       7.442312682773373
_cell_length_b       7.442312706348926
_cell_length_c       7.442312607020026
_cell_angle_alpha    60.00000048270933
_cell_angle_beta     60.000000181082164
_cell_angle_gamma    60.000000801901415

_space_group_name_H-M_alt    "P 1"
_space_group_IT_number       1

loop_
  _space_group_symop_operation_xyz
  'x, y, z'

loop_
  _atom_site_type_symbol
  _atom_site_label
  _atom_site_symmetry_multiplicity
  _atom_site_fract_x
  _atom_site_fract_y
  _atom_site_fract_z
  _atom_site_occupancy
  In  In1       1.0  0.24999999639839263  0.24999999841911097  0.25000000055977295  1.0000
  In  In2       1.0  0.7500000217612559  0.7500000232333985  0.7499999808139255  1.0000
  Ir  Ir1       1.0  3.2143939495451405e-08  0.999999968732633  0.9999999511896527  1.0000
  Br  Br1       1.0  0.23784972040096894  0.23784974685419455  0.7621502947841925  1.0000
  Br  Br2       1.0  0.7621502682956706  0.7621502468222494  0.23784973680773708  1.0000
  Br  Br3       1.0  0.7621502427782305  0.23784978068580206  0.23784972582136654  1.0000
  Br  Br4       1.0  0.23784971303768654  0.7621502557775653  0.7621502981301259  1.0000
  Br  Br5       1.0  0.23784975065463204  0.762150233830836  0.23784973668492126  1.0000
  Br  Br6       1.0  0.7621502610488246  0.23784974668040107  0.7621502725185144  1.0000
