data_image0
_chemical_formula_structural       In2MoI6
_chemical_formula_sum              "In2 Mo1 I6"
_cell_length_a       7.937615847157493
_cell_length_b       7.937615852359279
_cell_length_c       7.937615840510517
_cell_angle_alpha    59.99999947348679
_cell_angle_beta     59.99999922779488
_cell_angle_gamma    59.999999909699504

_space_group_name_H-M_alt    "P 1"
_space_group_IT_number       1

loop_
  _space_group_symop_operation_xyz
  'x, y, z'

loop_
  _atom_site_type_symbol
  _atom_site_label
  _atom_site_symmetry_multiplicity
  _atom_site_fract_x
  _atom_site_fract_y
  _atom_site_fract_z
  _atom_site_occupancy
  In  In1       1.0  0.2500000042037296  0.250000001407229  0.24999999582278712  1.0000
  In  In2       1.0  0.7500000010616752  0.7499999995927974  0.750000004376332  1.0000
  Mo  Mo1       1.0  0.9999999268228014  2.31444468395151e-08  7.414951745740541e-08  1.0000
  I   I1        1.0  0.24776248772904189  0.24776250866579713  0.7522375193193154  1.0000
  I   I2        1.0  0.7522375607215934  0.7522375417090502  0.24776246105608424  1.0000
  I   I3        1.0  0.7522375283798587  0.24776245412360182  0.24776246848486416  1.0000
  I   I4        1.0  0.24776250781791262  0.75223747590012  0.7522374874851931  1.0000
  I   I5        1.0  0.24776249399935374  0.75223749464131  0.24776249524628513  1.0000
  I   I6        1.0  0.7522374851693415  0.2477625017298271  0.7522375077173921  1.0000
