data_image0
_chemical_formula_structural       In2MoF6
_chemical_formula_sum              "In2 Mo1 F6"
_cell_length_a       6.112138803343055
_cell_length_b       6.112139533302033
_cell_length_c       6.112139009720541
_cell_angle_alpha    59.99999859003924
_cell_angle_beta     59.99999979506629
_cell_angle_gamma    59.99999947519518

_space_group_name_H-M_alt    "P 1"
_space_group_IT_number       1

loop_
  _space_group_symop_operation_xyz
  'x, y, z'

loop_
  _atom_site_type_symbol
  _atom_site_label
  _atom_site_symmetry_multiplicity
  _atom_site_fract_x
  _atom_site_fract_y
  _atom_site_fract_z
  _atom_site_occupancy
  In  In1       1.0  0.25000006278828557  0.2500001759282047  0.2499998162887444  1.0000
  In  In2       1.0  0.750000005372178  0.7499998865715582  0.750000093293679  1.0000
  Mo  Mo1       1.0  0.9999999696583252  6.011372252425685e-09  2.5253858448310683e-08  1.0000
  F   F1        1.0  0.2345834069338797  0.23458339702634673  0.7654166281530018  1.0000
  F   F2        1.0  0.765416580030639  0.7654165973445302  0.23458338390534222  1.0000
  F   F3        1.0  0.765416590217495  0.23458343618068841  0.23458337391312784  1.0000
  F   F4        1.0  0.23458341046908754  0.7654164660158114  0.765416700276614  1.0000
  F   F5        1.0  0.23458339988356577  0.7654165454806175  0.23458339701896355  1.0000
  F   F6        1.0  0.7654165501745733  0.23458346892816764  0.7654166251097035  1.0000
