data_image0
_chemical_formula_structural       In2MoBr6
_chemical_formula_sum              "In2 Mo1 Br6"
_cell_length_a       7.528655983753625
_cell_length_b       7.528655881656087
_cell_length_c       7.5286560142313155
_cell_angle_alpha    59.999998514654585
_cell_angle_beta     59.99999890961199
_cell_angle_gamma    59.999999699830504

_space_group_name_H-M_alt    "P 1"
_space_group_IT_number       1

loop_
  _space_group_symop_operation_xyz
  'x, y, z'

loop_
  _atom_site_type_symbol
  _atom_site_label
  _atom_site_symmetry_multiplicity
  _atom_site_fract_x
  _atom_site_fract_y
  _atom_site_fract_z
  _atom_site_occupancy
  In  In1       1.0  0.24999999261722833  0.25000001615218226  0.2500000137376208  1.0000
  In  In2       1.0  0.7499999783487952  0.7499999687444439  0.7500000237052515  1.0000
  Mo  Mo1       1.0  5.127518959286008e-09  2.60284423480131e-08  0.9999999233221364  1.0000
  Br  Br1       1.0  0.23998616648128349  0.23998617326134894  0.7600138354922531  1.0000
  Br  Br2       1.0  0.7600137996044073  0.7600138262762759  0.23998617183337792  1.0000
  Br  Br3       1.0  0.7600138187459557  0.2399862076402225  0.23998618298591648  1.0000
  Br  Br4       1.0  0.23998619750395306  0.7600137886438475  0.7600138354190991  1.0000
  Br  Br5       1.0  0.23998621154637254  0.7600138213686544  0.239986177275799  1.0000
  Br  Br6       1.0  0.7600138365559038  0.2399861667815276  0.7600138425525599  1.0000
