data_image0
_chemical_formula_structural       In2MoCl6
_chemical_formula_sum              "In2 Mo1 Cl6"
_cell_length_a       7.168266322006353
_cell_length_b       7.168266305452783
_cell_length_c       7.168266443497064
_cell_angle_alpha    59.99999916525719
_cell_angle_beta     60.00000024388328
_cell_angle_gamma    60.00000005173083

_space_group_name_H-M_alt    "P 1"
_space_group_IT_number       1

loop_
  _space_group_symop_operation_xyz
  'x, y, z'

loop_
  _atom_site_type_symbol
  _atom_site_label
  _atom_site_symmetry_multiplicity
  _atom_site_fract_x
  _atom_site_fract_y
  _atom_site_fract_z
  _atom_site_occupancy
  In  In1       1.0  0.24999994258299904  0.2500000379348398  0.2500000008784184  1.0000
  In  In2       1.0  0.7500000070922694  0.7500000010392314  0.7499999651611521  1.0000
  Mo  Mo1       1.0  0.9999998811879202  0.9999999794972202  0.9999999427090229  1.0000
  Cl  Cl1       1.0  0.23638623036978454  0.23638612620158783  0.7636138418410773  1.0000
  Cl  Cl2       1.0  0.7636139708745399  0.7636139264410043  0.236386068306765  1.0000
  Cl  Cl3       1.0  0.7636138270416707  0.23638611329723752  0.23638611318252245  1.0000
  Cl  Cl4       1.0  0.23638604637086902  0.7636138983397931  0.7636140037045899  1.0000
  Cl  Cl5       1.0  0.23638613321591426  0.763613832781664  0.23638610891509473  1.0000
  Cl  Cl6       1.0  0.7636139640741904  0.23638606779864363  0.7636139752772345  1.0000
