data_image0
_chemical_formula_structural       In2NCl6
_chemical_formula_sum              "In2 N1 Cl6"
_cell_length_a       7.228053051780349
_cell_length_b       7.228053654800998
_cell_length_c       7.2280530659201885
_cell_angle_alpha    60.000000462241225
_cell_angle_beta     59.99999875417272
_cell_angle_gamma    60.00000489146347

_space_group_name_H-M_alt    "P 1"
_space_group_IT_number       1

loop_
  _space_group_symop_operation_xyz
  'x, y, z'

loop_
  _atom_site_type_symbol
  _atom_site_label
  _atom_site_symmetry_multiplicity
  _atom_site_fract_x
  _atom_site_fract_y
  _atom_site_fract_z
  _atom_site_occupancy
  In  In1       1.0  0.24999998900801818  0.25000032837477126  0.24999983029838063  1.0000
  In  In2       1.0  0.7500001682657583  0.7499999261040682  0.7499999253184226  1.0000
  N   N1        1.0  9.722204821418162e-08  6.777729847781467e-08  0.9999999935927377  1.0000
  Cl  Cl1       1.0  0.21333097876256044  0.21333088284248833  0.7866690739423017  1.0000
  Cl  Cl2       1.0  0.7866690033205564  0.7866690920549958  0.21333098238593165  1.0000
  Cl  Cl3       1.0  0.7866688708648196  0.21333089115682263  0.21333112060214307  1.0000
  Cl  Cl4       1.0  0.2133309969246117  0.7866689617415229  0.786669092610461  1.0000
  Cl  Cl5       1.0  0.21333105495192284  0.7866689279451572  0.21333095580145844  1.0000
  Cl  Cl6       1.0  0.7866688514522351  0.21333093850865192  0.7866691068111921  1.0000
