data_image0
_chemical_formula_structural       In2NCl6
_chemical_formula_sum              "In2 N1 Cl6"
_cell_length_a       7.2305987109139025
_cell_length_b       7.230598775312059
_cell_length_c       7.23059942045448
_cell_angle_alpha    59.99999683176299
_cell_angle_beta     59.99999950935165
_cell_angle_gamma    60.00000161958569

_space_group_name_H-M_alt    "P 1"
_space_group_IT_number       1

loop_
  _space_group_symop_operation_xyz
  'x, y, z'

loop_
  _atom_site_type_symbol
  _atom_site_label
  _atom_site_symmetry_multiplicity
  _atom_site_fract_x
  _atom_site_fract_y
  _atom_site_fract_z
  _atom_site_occupancy
  In  In1       1.0  0.2500002017248799  0.2499999988050013  0.25000012163302465  1.0000
  In  In2       1.0  0.7500002655555282  0.7499998846218172  0.7500001369775418  1.0000
  N   N1        1.0  0.9999995963669842  0.9999993089148776  0.9999999983036143  1.0000
  Cl  Cl1       1.0  0.21324750623429584  0.21324771030442538  0.7867523224596678  1.0000
  Cl  Cl2       1.0  0.7867527813223697  0.7867526931300649  0.21324731376426592  1.0000
  Cl  Cl3       1.0  0.7867523821514204  0.21324772084647572  0.2132473677052448  1.0000
  Cl  Cl4       1.0  0.2132472315168641  0.7867527926873338  0.7867526389259224  1.0000
  Cl  Cl5       1.0  0.21324749891757774  0.7867522732848625  0.2132477013951102  1.0000
  Cl  Cl6       1.0  0.7867525479904408  0.2132476016727645  0.7867524867359302  1.0000
