data_image0
_chemical_formula_structural       In2NF6
_chemical_formula_sum              "In2 N1 F6"
_cell_length_a       5.496791936766376
_cell_length_b       5.496789910398486
_cell_length_c       5.4967898881353765
_cell_angle_alpha    60.0000002183839
_cell_angle_beta     59.999994629896165
_cell_angle_gamma    59.99998316503447

_space_group_name_H-M_alt    "P 1"
_space_group_IT_number       1

loop_
  _space_group_symop_operation_xyz
  'x, y, z'

loop_
  _atom_site_type_symbol
  _atom_site_label
  _atom_site_symmetry_multiplicity
  _atom_site_fract_x
  _atom_site_fract_y
  _atom_site_fract_z
  _atom_site_occupancy
  In  In1       1.0  0.2500001072956917  0.24999959608761432  0.2500012367614907  1.0000
  In  In2       1.0  0.7499996897597384  0.7500008358952595  0.7499992730825724  1.0000
  N   N1        1.0  2.2470390048327707e-08  3.342162425836487e-08  0.9999997482870231  1.0000
  F   F1        1.0  0.22236620119325048  0.22236595333529552  0.777634608436179  1.0000
  F   F2        1.0  0.777633668414094  0.7776342357836494  0.2223661502958084  1.0000
  F   F3        1.0  0.7776336265297366  0.22236699259768133  0.22236587685375997  1.0000
  F   F4        1.0  0.2223647597013014  0.7776343506820573  0.7776339185551314  1.0000
  F   F5        1.0  0.22236655619006412  0.7776325416676247  0.22236621182253039  1.0000
  F   F6        1.0  0.7776352056956024  0.22236583376990457  0.7776330667697929  1.0000
