data_image0
_chemical_formula_structural       In2NF6
_chemical_formula_sum              "In2 N1 F6"
_cell_length_a       5.494633396862939
_cell_length_b       5.494633247170141
_cell_length_c       5.494633046028572
_cell_angle_alpha    60.00000072548737
_cell_angle_beta     60.0000007117567
_cell_angle_gamma    60.000000874447906

_space_group_name_H-M_alt    "P 1"
_space_group_IT_number       1

loop_
  _space_group_symop_operation_xyz
  'x, y, z'

loop_
  _atom_site_type_symbol
  _atom_site_label
  _atom_site_symmetry_multiplicity
  _atom_site_fract_x
  _atom_site_fract_y
  _atom_site_fract_z
  _atom_site_occupancy
  In  In1       1.0  0.24999993869696063  0.2500000261540093  0.2500000953609386  1.0000
  In  In2       1.0  0.7500000453481378  0.7499999580969038  0.7499998840248173  1.0000
  N   N1        1.0  0.9999999708119989  2.4518821779989127e-08  2.5994040676113306e-08  1.0000
  F   F1        1.0  0.2225124451629449  0.22251248926448303  0.7774875248778697  1.0000
  F   F2        1.0  0.7774875665622925  0.777487512818301  0.22251251910985326  1.0000
  F   F3        1.0  0.7774875124772567  0.22251254143972482  0.22251245331914843  1.0000
  F   F4        1.0  0.22251248848549643  0.7774874740169619  0.7774874910851466  1.0000
  F   F5        1.0  0.22251248010313335  0.7774874406996062  0.22251251279397308  1.0000
  F   F6        1.0  0.777487528417043  0.22251254578029095  0.7774874514197938  1.0000
