data_image0
_chemical_formula_structural       In2PCl6
_chemical_formula_sum              "In2 P1 Cl6"
_cell_length_a       7.408456570981986
_cell_length_b       7.408456422383237
_cell_length_c       7.408457005417334
_cell_angle_alpha    60.00000309328981
_cell_angle_beta     59.999999909058474
_cell_angle_gamma    60.0000018399248

_space_group_name_H-M_alt    "P 1"
_space_group_IT_number       1

loop_
  _space_group_symop_operation_xyz
  'x, y, z'

loop_
  _atom_site_type_symbol
  _atom_site_label
  _atom_site_symmetry_multiplicity
  _atom_site_fract_x
  _atom_site_fract_y
  _atom_site_fract_z
  _atom_site_occupancy
  In  In1       1.0  0.2499999881893921  0.2499999532788845  0.2499999486698721  1.0000
  In  In2       1.0  0.7499999827961624  0.7500000482982067  0.7499999721323405  1.0000
  P   P1        1.0  0.9999999402536368  0.9999999454453332  0.9999998816753759  1.0000
  Cl  Cl1       1.0  0.21450673295948797  0.214506881173328  0.785493088351051  1.0000
  Cl  Cl2       1.0  0.7854933903120211  0.7854932807613815  0.21450652765042283  1.0000
  Cl  Cl3       1.0  0.7854931297835785  0.21450691681710268  0.21450679719658636  1.0000
  Cl  Cl4       1.0  0.21450644483294024  0.7854934368855155  0.785493522324028  1.0000
  Cl  Cl5       1.0  0.21450681236826394  0.7854930551822036  0.21450688172863855  1.0000
  Cl  Cl6       1.0  0.785493563584486  0.21450647028154612  0.7854934066995818  1.0000
