data_image0
_chemical_formula_structural       In2PBr6
_chemical_formula_sum              "In2 P1 Br6"
_cell_length_a       7.485675942487481
_cell_length_b       7.485675875444066
_cell_length_c       7.485675831421894
_cell_angle_alpha    59.99999950667446
_cell_angle_beta     59.999999854380704
_cell_angle_gamma    60.00000046649738

_space_group_name_H-M_alt    "P 1"
_space_group_IT_number       1

loop_
  _space_group_symop_operation_xyz
  'x, y, z'

loop_
  _atom_site_type_symbol
  _atom_site_label
  _atom_site_symmetry_multiplicity
  _atom_site_fract_x
  _atom_site_fract_y
  _atom_site_fract_z
  _atom_site_occupancy
  In  In1       1.0  0.250000011123363  0.25000002522289655  0.24999998791307027  1.0000
  In  In2       1.0  0.7500000037676862  0.7499999562320782  0.7500000449381423  1.0000
  P   P1        1.0  0.9999999728570473  2.12695330093367e-08  4.3013251608210664e-08  1.0000
  Br  Br1       1.0  0.2408888737687783  0.2408888529068328  0.7591111273819332  1.0000
  Br  Br2       1.0  0.759111128952985  0.7591111465454397  0.24088884778399985  1.0000
  Br  Br3       1.0  0.7591111569544039  0.2408888513260237  0.2408888265000874  1.0000
  Br  Br4       1.0  0.24088889343127587  0.7591111023149462  0.7591111517471929  1.0000
  Br  Br5       1.0  0.24088885959594614  0.7591111443764917  0.24088884715501876  1.0000
  Br  Br6       1.0  0.7591111027228333  0.24088889761484725  0.7591111322864117  1.0000
