data_image0
_chemical_formula_structural       In2PF6
_chemical_formula_sum              "In2 P1 F6"
_cell_length_a       6.260876553687908
_cell_length_b       6.26087802603284
_cell_length_c       6.260876436739441
_cell_angle_alpha    59.99999727099047
_cell_angle_beta     60.00000000300871
_cell_angle_gamma    59.99999645102535

_space_group_name_H-M_alt    "P 1"
_space_group_IT_number       1

loop_
  _space_group_symop_operation_xyz
  'x, y, z'

loop_
  _atom_site_type_symbol
  _atom_site_label
  _atom_site_symmetry_multiplicity
  _atom_site_fract_x
  _atom_site_fract_y
  _atom_site_fract_z
  _atom_site_occupancy
  In  In1       1.0  0.24999992667104365  0.25000005308952916  0.24999997861356912  1.0000
  In  In2       1.0  0.7499999696448655  0.7499999832117219  0.7500000169004125  1.0000
  P   P1        1.0  0.9999999874062546  1.564949770559135e-08  6.934306297561506e-11  1.0000
  F   F1        1.0  0.18544231958627197  0.18544217598209756  0.8145577746150818  1.0000
  F   F2        1.0  0.814557732808943  0.8145577351231603  0.1854422565683083  1.0000
  F   F3        1.0  0.8145577300544106  0.18544227136873312  0.1854423094882766  1.0000
  F   F4        1.0  0.1854423275924047  0.8145577512391817  0.8145577351928966  1.0000
  F   F5        1.0  0.18544231806734457  0.8145577195804059  0.18544229251091052  1.0000
  F   F6        1.0  0.8145576643910124  0.18544231280846166  0.8145576906380074  1.0000
