data_image0
_chemical_formula_structural       In2PI6
_chemical_formula_sum              "In2 P1 I6"
_cell_length_a       7.87728127695433
_cell_length_b       7.877281315675415
_cell_length_c       7.877281311866231
_cell_angle_alpha    59.99999983479141
_cell_angle_beta     59.999999598649886
_cell_angle_gamma    59.99999926796638

_space_group_name_H-M_alt    "P 1"
_space_group_IT_number       1

loop_
  _space_group_symop_operation_xyz
  'x, y, z'

loop_
  _atom_site_type_symbol
  _atom_site_label
  _atom_site_symmetry_multiplicity
  _atom_site_fract_x
  _atom_site_fract_y
  _atom_site_fract_z
  _atom_site_occupancy
  In  In1       1.0  0.2499999949944347  0.2499999913428933  0.25000001414079226  1.0000
  In  In2       1.0  0.7499999993599074  0.7500000144529905  0.7499999845545554  1.0000
  P   P1        1.0  0.9999999648929807  2.1766936790888654e-08  2.444267051502842e-08  1.0000
  I   I1        1.0  0.25036039897278045  0.2503604139488448  0.7496395988247894  1.0000
  I   I2        1.0  0.749639592805516  0.7496395731896647  0.2503604358767387  1.0000
  I   I3        1.0  0.7496396176302569  0.25036041201882503  0.2503603838864562  1.0000
  I   I4        1.0  0.2503604201080148  0.749639573564903  0.7496395816419549  1.0000
  I   I5        1.0  0.25036040706761215  0.7496395725551264  0.25036041679394694  1.0000
  I   I6        1.0  0.7496396030707878  0.25036042546685144  0.7496395639321161  1.0000
