data_image0
_chemical_formula_structural       In2RuBr6
_chemical_formula_sum              "In2 Ru1 Br6"
_cell_length_a       7.428749665872148
_cell_length_b       7.42874979036261
_cell_length_c       7.4287499353386215
_cell_angle_alpha    59.99999907590763
_cell_angle_beta     59.99999947060802
_cell_angle_gamma    59.999998318386574

_space_group_name_H-M_alt    "P 1"
_space_group_IT_number       1

loop_
  _space_group_symop_operation_xyz
  'x, y, z'

loop_
  _atom_site_type_symbol
  _atom_site_label
  _atom_site_symmetry_multiplicity
  _atom_site_fract_x
  _atom_site_fract_y
  _atom_site_fract_z
  _atom_site_occupancy
  In  In1       1.0  0.2500000190845261  0.25000001767299385  0.24999994902257655  1.0000
  In  In2       1.0  0.7499999737110761  0.7500000052079744  0.7499999800505593  1.0000
  Ru  Ru1       1.0  0.9999999916947897  0.9999999736215126  6.310997985015002e-08  1.0000
  Br  Br1       1.0  0.2383317961773087  0.23833179451052552  0.7616682140663575  1.0000
  Br  Br2       1.0  0.7616682230587155  0.7616682003432992  0.23833178310621417  1.0000
  Br  Br3       1.0  0.7616681990851742  0.23833179094080828  0.23833181352650687  1.0000
  Br  Br4       1.0  0.23833178155835505  0.7616682171022605  0.7616682300007277  1.0000
  Br  Br5       1.0  0.23833178250889855  0.7616682316212355  0.2383317627216766  1.0000
  Br  Br6       1.0  0.7616682284057373  0.2383317648812448  0.7616682243260465  1.0000
