data_image0
_chemical_formula_structural       In2RhCl6
_chemical_formula_sum              "In2 Rh1 Cl6"
_cell_length_a       7.104817746550202
_cell_length_b       7.104817546372903
_cell_length_c       7.104817683562876
_cell_angle_alpha    60.00000012186758
_cell_angle_beta     59.99999902809919
_cell_angle_gamma    60.00000097096161

_space_group_name_H-M_alt    "P 1"
_space_group_IT_number       1

loop_
  _space_group_symop_operation_xyz
  'x, y, z'

loop_
  _atom_site_type_symbol
  _atom_site_label
  _atom_site_symmetry_multiplicity
  _atom_site_fract_x
  _atom_site_fract_y
  _atom_site_fract_z
  _atom_site_occupancy
  In  In1       1.0  0.25000009883918156  0.2499998962914281  0.24999997308076297  1.0000
  In  In2       1.0  0.7500000764007642  0.7499999250380455  0.7499998689939326  1.0000
  Rh  Rh1       1.0  0.9999999738807207  3.4476463297146585e-08  1.1686603456820883e-07  1.0000
  Cl  Cl1       1.0  0.23508334042849038  0.2350833390374737  0.7649167320589169  1.0000
  Cl  Cl2       1.0  0.7649166162382331  0.7649166943222416  0.23508336241400282  1.0000
  Cl  Cl3       1.0  0.7649166451121593  0.23508340850601092  0.2350833363743065  1.0000
  Cl  Cl4       1.0  0.23508338464234188  0.7649165421101951  0.7649166531418168  1.0000
  Cl  Cl5       1.0  0.23508327754990066  0.7649166349904166  0.2350834319148586  1.0000
  Cl  Cl6       1.0  0.7649165715864183  0.23508352593220494  0.7649165174222292  1.0000
