data_image0
_chemical_formula_structural       In2RhBr6
_chemical_formula_sum              "In2 Rh1 Br6"
_cell_length_a       7.4091821845026535
_cell_length_b       7.409182178230672
_cell_length_c       7.4091820708143175
_cell_angle_alpha    59.99999997550282
_cell_angle_beta     60.00000071114079
_cell_angle_gamma    60.00000002387569

_space_group_name_H-M_alt    "P 1"
_space_group_IT_number       1

loop_
  _space_group_symop_operation_xyz
  'x, y, z'

loop_
  _atom_site_type_symbol
  _atom_site_label
  _atom_site_symmetry_multiplicity
  _atom_site_fract_x
  _atom_site_fract_y
  _atom_site_fract_z
  _atom_site_occupancy
  In  In1       1.0  0.2500000152464548  0.2500000037263183  0.24999999461473088  1.0000
  In  In2       1.0  0.7500000151209211  0.7500000095259457  0.7499999783850926  1.0000
  Rh  Rh1       1.0  9.615924276952598e-10  0.9999999223085521  6.805781427152561e-08  1.0000
  Br  Br1       1.0  0.23884228345600775  0.2388422985861718  0.7611577002284875  1.0000
  Br  Br2       1.0  0.7611577623853337  0.7611577477262828  0.23884224715458094  1.0000
  Br  Br3       1.0  0.7611577022900309  0.23884229326237083  0.2388423170182878  1.0000
  Br  Br4       1.0  0.23884225327067385  0.7611577199898931  0.7611577122803439  1.0000
  Br  Br5       1.0  0.23884224409652713  0.7611577349474156  0.23884228063922183  1.0000
  Br  Br6       1.0  0.7611577245774964  0.23884227169281047  0.7611576941210569  1.0000
