data_image0
_chemical_formula_structural       In2RhF6
_chemical_formula_sum              "In2 Rh1 F6"
_cell_length_a       5.847185019041017
_cell_length_b       5.8471847436369035
_cell_length_c       5.847185653574536
_cell_angle_alpha    59.99999929357639
_cell_angle_beta     59.99999814955081
_cell_angle_gamma    59.99999977469574

_space_group_name_H-M_alt    "P 1"
_space_group_IT_number       1

loop_
  _space_group_symop_operation_xyz
  'x, y, z'

loop_
  _atom_site_type_symbol
  _atom_site_label
  _atom_site_symmetry_multiplicity
  _atom_site_fract_x
  _atom_site_fract_y
  _atom_site_fract_z
  _atom_site_occupancy
  In  In1       1.0  0.2500000116862058  0.24999995841350223  0.2500000528307749  1.0000
  In  In2       1.0  0.7500000266972882  0.7500000721318678  0.7499999718751938  1.0000
  Rh  Rh1       1.0  4.358588635510267e-08  0.9999999581082193  0.9999999649484569  1.0000
  F   F1        1.0  0.24027259460141326  0.24027259368570503  0.7597274147583253  1.0000
  F   F2        1.0  0.7597273807289092  0.7597273949678813  0.24027259401113996  1.0000
  F   F3        1.0  0.7597273807176106  0.24027259785083943  0.24027261569209207  1.0000
  F   F4        1.0  0.24027254230964834  0.7597274410728828  0.759727412906307  1.0000
  F   F5        1.0  0.24027257016763928  0.7597274309004121  0.24027259623763295  1.0000
  F   F6        1.0  0.7597274441007789  0.240272517955985  0.7597274386147451  1.0000
