data_image0
_chemical_formula_structural       In2RuI6
_chemical_formula_sum              "In2 Ru1 I6"
_cell_length_a       7.785614340760908
_cell_length_b       7.785614456830007
_cell_length_c       7.785614338295714
_cell_angle_alpha    60.00000055368631
_cell_angle_beta     60.0000007265633
_cell_angle_gamma    59.999999783148546

_space_group_name_H-M_alt    "P 1"
_space_group_IT_number       1

loop_
  _space_group_symop_operation_xyz
  'x, y, z'

loop_
  _atom_site_type_symbol
  _atom_site_label
  _atom_site_symmetry_multiplicity
  _atom_site_fract_x
  _atom_site_fract_y
  _atom_site_fract_z
  _atom_site_occupancy
  In  In1       1.0  0.25000000106649767  0.24999999925580538  0.24999999497373  1.0000
  In  In2       1.0  0.7499999951695612  0.7500000040597641  0.7500000024874438  1.0000
  Ru  Ru1       1.0  0.9999999706820167  7.865435156313105e-09  4.304173123447401e-09  1.0000
  I   I1        1.0  0.24607084232859952  0.24607084069259194  0.7539291549954066  1.0000
  I   I2        1.0  0.7539291918542673  0.753929168915325  0.24607082548387052  1.0000
  I   I3        1.0  0.753929155823266  0.2460708315572874  0.24607082617037657  1.0000
  I   I4        1.0  0.2460708337014848  0.7539291607466734  0.753929182721096  1.0000
  I   I5        1.0  0.2460708267985912  0.7539291571134643  0.24607082920155596  1.0000
  I   I6        1.0  0.7539291820966942  0.24607083047123532  0.7539291749331203  1.0000
