data_image0
_chemical_formula_structural       In2RhI6
_chemical_formula_sum              "In2 Rh1 I6"
_cell_length_a       7.795438437050382
_cell_length_b       7.795438420579333
_cell_length_c       7.795438568626485
_cell_angle_alpha    59.99999920435807
_cell_angle_beta     60.000000189522446
_cell_angle_gamma    60.00000052920001

_space_group_name_H-M_alt    "P 1"
_space_group_IT_number       1

loop_
  _space_group_symop_operation_xyz
  'x, y, z'

loop_
  _atom_site_type_symbol
  _atom_site_label
  _atom_site_symmetry_multiplicity
  _atom_site_fract_x
  _atom_site_fract_y
  _atom_site_fract_z
  _atom_site_occupancy
  In  In1       1.0  0.24999999699289402  0.25000001209732253  0.24999999728108482  1.0000
  In  In2       1.0  0.7500000111334817  0.7499999891588311  0.7500000053324231  1.0000
  Rh  Rh1       1.0  2.9625025176455997e-09  3.4028758218290015e-16  0.999999933095874  1.0000
  I   I1        1.0  0.24447063068867375  0.2444706218969584  0.7555293582793985  1.0000
  I   I2        1.0  0.7555293542613782  0.7555293777880907  0.24447063233459562  1.0000
  I   I3        1.0  0.7555293129635592  0.2444706834828303  0.24447067905643946  1.0000
  I   I4        1.0  0.24447061801705047  0.755529375904191  0.7555293497409362  1.0000
  I   I5        1.0  0.24447067238778025  0.7555293123319189  0.24447067497070907  1.0000
  I   I6        1.0  0.7555293976379982  0.24447062765115768  0.7555293709448863  1.0000
