data_image0
_chemical_formula_structural       In2RuCl6
_chemical_formula_sum              "In2 Ru1 Cl6"
_cell_length_a       7.136235543506596
_cell_length_b       7.136235869037019
_cell_length_c       7.13623552213647
_cell_angle_alpha    60.000001587358746
_cell_angle_beta     60.000000074171716
_cell_angle_gamma    60.00000107579653

_space_group_name_H-M_alt    "P 1"
_space_group_IT_number       1

loop_
  _space_group_symop_operation_xyz
  'x, y, z'

loop_
  _atom_site_type_symbol
  _atom_site_label
  _atom_site_symmetry_multiplicity
  _atom_site_fract_x
  _atom_site_fract_y
  _atom_site_fract_z
  _atom_site_occupancy
  In  In1       1.0  0.2500000450194206  0.25000004169270024  0.2499999774276291  1.0000
  In  In2       1.0  0.7500000308477025  0.7500001027670633  0.7499999254787338  1.0000
  Ru  Ru1       1.0  5.852611842374926e-09  0.9999999193370164  9.71410824867844e-10  1.0000
  Cl  Cl1       1.0  0.23361114737094005  0.23361108601269892  0.766388870316646  1.0000
  Cl  Cl2       1.0  0.7663888607865034  0.7663887907146089  0.2336111764887011  1.0000
  Cl  Cl3       1.0  0.7663887899345659  0.23361122042114743  0.23361118975413717  1.0000
  Cl  Cl4       1.0  0.23361115483722264  0.7663888124834268  0.766388877917758  1.0000
  Cl  Cl5       1.0  0.23361115494589893  0.7663888125582522  0.2336111677565761  1.0000
  Cl  Cl6       1.0  0.7663888329419922  0.2336112220625555  0.7663888130393952  1.0000
