data_image0
_chemical_formula_structural       In2RuF6
_chemical_formula_sum              "In2 Ru1 F6"
_cell_length_a       6.036971739435584
_cell_length_b       6.036971388148297
_cell_length_c       6.036971616368668
_cell_angle_alpha    60.000000021609615
_cell_angle_beta     59.999999572917986
_cell_angle_gamma    59.99999992918744

_space_group_name_H-M_alt    "P 1"
_space_group_IT_number       1

loop_
  _space_group_symop_operation_xyz
  'x, y, z'

loop_
  _atom_site_type_symbol
  _atom_site_label
  _atom_site_symmetry_multiplicity
  _atom_site_fract_x
  _atom_site_fract_y
  _atom_site_fract_z
  _atom_site_occupancy
  In  In1       1.0  0.24999998376860139  0.25000000370641917  0.25000001848101683  1.0000
  In  In2       1.0  0.7499999643467318  0.7500000293779219  0.7500000000382225  1.0000
  Ru  Ru1       1.0  2.409292735372537e-08  0.999999973626373  9.422647679890647e-09  1.0000
  F   F1        1.0  0.231734749297034  0.23173480502101607  0.7682652270543959  1.0000
  F   F2        1.0  0.7682652590406642  0.768265179373552  0.23173478569854625  1.0000
  F   F3        1.0  0.7682652233514027  0.23173478350991913  0.23173473967557945  1.0000
  F   F4        1.0  0.2317347786680228  0.7682652313157574  0.7682652643338646  1.0000
  F   F5        1.0  0.23173476746671692  0.7682652254026676  0.2317347728605984  1.0000
  F   F6        1.0  0.7682652630312871  0.23173476710686283  0.7682652164724114  1.0000
