data_image0
_chemical_formula_structural       In2SbF6
_chemical_formula_sum              "In2 Sb1 F6"
_cell_length_a       6.263022372380445
_cell_length_b       6.263022274329615
_cell_length_c       6.263022170280595
_cell_angle_alpha    60.0000027569697
_cell_angle_beta     60.00000300928713
_cell_angle_gamma    60.00000049025695

_space_group_name_H-M_alt    "P 1"
_space_group_IT_number       1

loop_
  _space_group_symop_operation_xyz
  'x, y, z'

loop_
  _atom_site_type_symbol
  _atom_site_label
  _atom_site_symmetry_multiplicity
  _atom_site_fract_x
  _atom_site_fract_y
  _atom_site_fract_z
  _atom_site_occupancy
  In  In1       1.0  0.24999997743400384  0.2500000104367204  0.2499999667798704  1.0000
  In  In2       1.0  0.7500000033299946  0.7500000449987858  0.7500001006756434  1.0000
  Sb  Sb1       1.0  3.381887795933852e-08  3.1288275637139063e-08  0.9999999195462266  1.0000
  F   F1        1.0  0.23085517941131567  0.23085515504843282  0.7691448096276835  1.0000
  F   F2        1.0  0.769144827966247  0.7691448260774127  0.230855133185265  1.0000
  F   F3        1.0  0.7691448965590472  0.2308550553894968  0.2308551528060992  1.0000
  F   F4        1.0  0.2308551028111487  0.7691448944480732  0.7691448862949859  1.0000
  F   F5        1.0  0.2308550962153275  0.7691448771058244  0.23085513521677295  1.0000
  F   F6        1.0  0.7691448847915348  0.23085513335278185  0.7691448540153432  1.0000
