data_image0
_chemical_formula_structural       In2SbBr6
_chemical_formula_sum              "In2 Sb1 Br6"
_cell_length_a       7.591464786087563
_cell_length_b       7.591464737208492
_cell_length_c       7.591464761457038
_cell_angle_alpha    60.00000109108513
_cell_angle_beta     59.999999154919266
_cell_angle_gamma    60.00000059054779

_space_group_name_H-M_alt    "P 1"
_space_group_IT_number       1

loop_
  _space_group_symop_operation_xyz
  'x, y, z'

loop_
  _atom_site_type_symbol
  _atom_site_label
  _atom_site_symmetry_multiplicity
  _atom_site_fract_x
  _atom_site_fract_y
  _atom_site_fract_z
  _atom_site_occupancy
  In  In1       1.0  0.25000000871959427  0.24999997523768203  0.25000001233885344  1.0000
  In  In2       1.0  0.7499999918335948  0.7500000241254584  0.749999991800261  1.0000
  Sb  Sb1       1.0  0.9999998620719216  2.4038441763390137e-07  0.9999999487718335  1.0000
  Br  Br1       1.0  0.25355901838405803  0.2535589977542675  0.7464409908898602  1.0000
  Br  Br2       1.0  0.7464409807878383  0.7464409144896877  0.2535590416922661  1.0000
  Br  Br3       1.0  0.7464410147207702  0.2535589693443533  0.2535589753576095  1.0000
  Br  Br4       1.0  0.25355903830212284  0.7464409638727388  0.7464409974188797  1.0000
  Br  Br5       1.0  0.25355909687764117  0.7464409118525649  0.25355903952855635  1.0000
  Br  Br6       1.0  0.7464409961539139  0.25355899716475516  0.7464410070141555  1.0000
