data_image0
_chemical_formula_structural       In2SbCl6
_chemical_formula_sum              "In2 Sb1 Cl6"
_cell_length_a       7.283263634784698
_cell_length_b       7.283263647014342
_cell_length_c       7.28326381837365
_cell_angle_alpha    59.99999903073607
_cell_angle_beta     59.99999885236143
_cell_angle_gamma    60.00000094714817

_space_group_name_H-M_alt    "P 1"
_space_group_IT_number       1

loop_
  _space_group_symop_operation_xyz
  'x, y, z'

loop_
  _atom_site_type_symbol
  _atom_site_label
  _atom_site_symmetry_multiplicity
  _atom_site_fract_x
  _atom_site_fract_y
  _atom_site_fract_z
  _atom_site_occupancy
  In  In1       1.0  0.2500000125838589  0.24999999536579356  0.24999998008000726  1.0000
  In  In2       1.0  0.7500000193832806  0.7499999793710284  0.7499999980967028  1.0000
  Sb  Sb1       1.0  5.893807265268683e-09  0.9999999680498279  1.4071818832320863e-07  1.0000
  Cl  Cl1       1.0  0.24416190353011655  0.24416190463446705  0.7558380883445275  1.0000
  Cl  Cl2       1.0  0.7558380855016094  0.7558381323211101  0.24416189941266322  1.0000
  Cl  Cl3       1.0  0.7558381337675083  0.2441618838697817  0.2441618861144032  1.0000
  Cl  Cl4       1.0  0.24416194140705957  0.7558380421009888  0.7558380660083914  1.0000
  Cl  Cl5       1.0  0.24416185702017998  0.755838109865497  0.24416190647314523  1.0000
  Cl  Cl6       1.0  0.7558380385351517  0.2441619792193064  0.7558380236960132  1.0000
