data_image0
_chemical_formula_structural       In2SbBr6
_chemical_formula_sum              "In2 Sb1 Br6"
_cell_length_a       7.590957536464697
_cell_length_b       7.590957547395708
_cell_length_c       7.590957585882243
_cell_angle_alpha    60.00000068814992
_cell_angle_beta     59.999999756256976
_cell_angle_gamma    59.99999873593999

_space_group_name_H-M_alt    "P 1"
_space_group_IT_number       1

loop_
  _space_group_symop_operation_xyz
  'x, y, z'

loop_
  _atom_site_type_symbol
  _atom_site_label
  _atom_site_symmetry_multiplicity
  _atom_site_fract_x
  _atom_site_fract_y
  _atom_site_fract_z
  _atom_site_occupancy
  In  In1       1.0  0.25000002043979863  0.24999999323467223  0.24999999697343456  1.0000
  In  In2       1.0  0.7499999846158474  0.750000013585965  0.7500000031096059  1.0000
  Sb  Sb1       1.0  0.9999999116175434  1.1455324893555835e-07  0.9999997287126613  1.0000
  Br  Br1       1.0  0.25366762401118337  0.2536676042985935  0.7463323484532045  1.0000
  Br  Br2       1.0  0.7463323593344537  0.746332344438706  0.25366765464051716  1.0000
  Br  Br3       1.0  0.7463323724375358  0.25366761396918996  0.2536676194150362  1.0000
  Br  Br4       1.0  0.25366752214071747  0.7463324961107176  0.7463324593664069  1.0000
  Br  Br5       1.0  0.2536677119962901  0.7463323057338764  0.2536676939912363  1.0000
  Br  Br6       1.0  0.7463324984335188  0.25366751392933673  0.7463324945869616  1.0000
