data_image0
_chemical_formula_structural       In2SbF6
_chemical_formula_sum              "In2 Sb1 F6"
_cell_length_a       6.26632658857651
_cell_length_b       6.266325693759597
_cell_length_c       6.266325607014
_cell_angle_alpha    59.9999979807077
_cell_angle_beta     59.99999723705488
_cell_angle_gamma    59.99999734222412

_space_group_name_H-M_alt    "P 1"
_space_group_IT_number       1

loop_
  _space_group_symop_operation_xyz
  'x, y, z'

loop_
  _atom_site_type_symbol
  _atom_site_label
  _atom_site_symmetry_multiplicity
  _atom_site_fract_x
  _atom_site_fract_y
  _atom_site_fract_z
  _atom_site_occupancy
  In  In1       1.0  0.250000009055256  0.24999999374296816  0.2499999847338733  1.0000
  In  In2       1.0  0.749999918704652  0.7500000965436079  0.7500000225872496  1.0000
  Sb  Sb1       1.0  0.9999999736432077  2.9317297358143006e-08  0.9999999298989926  1.0000
  F   F1        1.0  0.2305125842071836  0.23051241717915183  0.7694875422691503  1.0000
  F   F2        1.0  0.769487501600907  0.769487469840828  0.23051254191944598  1.0000
  F   F3        1.0  0.7694874707301718  0.23051251373761364  0.23051255858592334  1.0000
  F   F4        1.0  0.23051256072599702  0.769487453416313  0.7694874839866945  1.0000
  F   F5        1.0  0.23051253743721117  0.769487475825504  0.23051246272962522  1.0000
  F   F6        1.0  0.7694874560470281  0.23051254996301743  0.7694874769534323  1.0000
