data_image0
_chemical_formula_structural       In2SbI6
_chemical_formula_sum              "In2 Sb1 I6"
_cell_length_a       8.096553779634492
_cell_length_b       8.096553695860042
_cell_length_c       8.096553645756277
_cell_angle_alpha    60.00000088819829
_cell_angle_beta     59.999999840396164
_cell_angle_gamma    59.99999969617355

_space_group_name_H-M_alt    "P 1"
_space_group_IT_number       1

loop_
  _space_group_symop_operation_xyz
  'x, y, z'

loop_
  _atom_site_type_symbol
  _atom_site_label
  _atom_site_symmetry_multiplicity
  _atom_site_fract_x
  _atom_site_fract_y
  _atom_site_fract_z
  _atom_site_occupancy
  In  In1       1.0  0.25000000434123143  0.24999999852319074  0.25000000063886907  1.0000
  In  In2       1.0  0.749999993042569  0.7500000212850354  0.7500000002845318  1.0000
  Sb  Sb1       1.0  0.9999998848268434  0.9999999818479082  0.9999999629147789  1.0000
  I   I1        1.0  0.25998213212283483  0.2599821065313764  0.740017883621849  1.0000
  I   I2        1.0  0.7400179438581101  0.7400179299162664  0.2599820647428974  1.0000
  I   I3        1.0  0.740017940361966  0.25998204809319675  0.2599820818626743  1.0000
  I   I4        1.0  0.25998205366528343  0.7400179732277039  0.740017942214346  1.0000
  I   I5        1.0  0.2599821029192579  0.7400178956182131  0.25998210780149494  1.0000
  I   I6        1.0  0.7400179453467147  0.2599820485562984  0.7400179499610392  1.0000
