data_image0
_chemical_formula_structural       In2SbI6
_chemical_formula_sum              "In2 Sb1 I6"
_cell_length_a       8.096497667818706
_cell_length_b       8.09649769313611
_cell_length_c       8.096497658838818
_cell_angle_alpha    59.999999738928544
_cell_angle_beta     60.00000027189074
_cell_angle_gamma    59.99999924325432

_space_group_name_H-M_alt    "P 1"
_space_group_IT_number       1

loop_
  _space_group_symop_operation_xyz
  'x, y, z'

loop_
  _atom_site_type_symbol
  _atom_site_label
  _atom_site_symmetry_multiplicity
  _atom_site_fract_x
  _atom_site_fract_y
  _atom_site_fract_z
  _atom_site_occupancy
  In  In1       1.0  0.249999994768863  0.24999999649407476  0.2500000016564048  1.0000
  In  In2       1.0  0.7500000068658195  0.750000003096387  0.7499999930580278  1.0000
  Sb  Sb1       1.0  3.1636057204515747e-10  3.32790656832372e-08  0.9999998621622962  1.0000
  I   I1        1.0  0.2599464659333909  0.25994644972569453  0.740053537047358  1.0000
  I   I2        1.0  0.7400535211232018  0.7400535165857023  0.25994647294993833  1.0000
  I   I3        1.0  0.740053508810392  0.25994648339892995  0.2599464774859585  1.0000
  I   I4        1.0  0.25994641795636225  0.7400535782116079  0.7400535903479047  1.0000
  I   I5        1.0  0.25994647973814117  0.7400535263652342  0.2599464669947088  1.0000
  I   I6        1.0  0.7400536019649334  0.2599464127178356  0.7400535957506466  1.0000
