data_image0
_chemical_formula_structural       In2SbCl6
_chemical_formula_sum              "In2 Sb1 Cl6"
_cell_length_a       7.289370661534568
_cell_length_b       7.289370551963771
_cell_length_c       7.289370227525515
_cell_angle_alpha    60.000000928076695
_cell_angle_beta     60.00000126199565
_cell_angle_gamma    59.999998579540154

_space_group_name_H-M_alt    "P 1"
_space_group_IT_number       1

loop_
  _space_group_symop_operation_xyz
  'x, y, z'

loop_
  _atom_site_type_symbol
  _atom_site_label
  _atom_site_symmetry_multiplicity
  _atom_site_fract_x
  _atom_site_fract_y
  _atom_site_fract_z
  _atom_site_occupancy
  In  In1       1.0  0.24999998366318046  0.24999999414350646  0.2500000287932113  1.0000
  In  In2       1.0  0.7500000090242541  0.7500000126737438  0.7499999997129855  1.0000
  Sb  Sb1       1.0  0.9999999978393663  3.02432264039912e-08  0.9999997198177422  1.0000
  Cl  Cl1       1.0  0.24397092414285032  0.24397091816322453  0.7560290768783096  1.0000
  Cl  Cl2       1.0  0.756029029598533  0.7560290819333098  0.24397094702405853  1.0000
  Cl  Cl3       1.0  0.7560291255822991  0.24397083273332923  0.24397086248461455  1.0000
  Cl  Cl4       1.0  0.24397079213956366  0.7560292564127027  0.7560292323048691  1.0000
  Cl  Cl5       1.0  0.2439708596473004  0.7560291456308593  0.24397086432887613  1.0000
  Cl  Cl6       1.0  0.7560292812746097  0.24397073013241047  0.7560292776826684  1.0000
