data_image0
_chemical_formula_structural       In2TaBr6
_chemical_formula_sum              "In2 Ta1 Br6"
_cell_length_a       7.60147611220971
_cell_length_b       7.601476059254136
_cell_length_c       7.601476027195244
_cell_angle_alpha    60.00000001084582
_cell_angle_beta     60.00000016775437
_cell_angle_gamma    60.00000101137297

_space_group_name_H-M_alt    "P 1"
_space_group_IT_number       1

loop_
  _space_group_symop_operation_xyz
  'x, y, z'

loop_
  _atom_site_type_symbol
  _atom_site_label
  _atom_site_symmetry_multiplicity
  _atom_site_fract_x
  _atom_site_fract_y
  _atom_site_fract_z
  _atom_site_occupancy
  In  In1       1.0  0.250000008693628  0.24999995473455536  0.2500000303428243  1.0000
  In  In2       1.0  0.749999987549105  0.7500000527133031  0.7499999410541072  1.0000
  Ta  Ta1       1.0  8.480604732761692e-08  0.9999999871104531  3.6396118457702354e-08  1.0000
  Br  Br1       1.0  0.23688318855197124  0.23688314108888392  0.7631168494270766  1.0000
  Br  Br2       1.0  0.7631167513333218  0.763116821245556  0.23688324900625488  1.0000
  Br  Br3       1.0  0.7631168113913388  0.23688312523650468  0.2368832171811882  1.0000
  Br  Br4       1.0  0.2368832314206198  0.7631168564322584  0.7631167385585419  1.0000
  Br  Br5       1.0  0.23688314104387959  0.7631168664648906  0.2368831662467906  1.0000
  Br  Br6       1.0  0.7631167875156312  0.23688321187547995  0.7631167706571463  1.0000
