data_image0
_chemical_formula_structural       In2TaI6
_chemical_formula_sum              "In2 Ta1 I6"
_cell_length_a       8.059289782191232
_cell_length_b       8.059289782015854
_cell_length_c       8.059289855438637
_cell_angle_alpha    59.999999378653904
_cell_angle_beta     59.99999951476834
_cell_angle_gamma    60.00000025109986

_space_group_name_H-M_alt    "P 1"
_space_group_IT_number       1

loop_
  _space_group_symop_operation_xyz
  'x, y, z'

loop_
  _atom_site_type_symbol
  _atom_site_label
  _atom_site_symmetry_multiplicity
  _atom_site_fract_x
  _atom_site_fract_y
  _atom_site_fract_z
  _atom_site_occupancy
  In  In1       1.0  0.25000000358763813  0.24999998647658292  0.25000000181596127  1.0000
  In  In2       1.0  0.7500000017169035  0.7500000080591405  0.7499999881378016  1.0000
  Ta  Ta1       1.0  1.8104375915994126e-08  2.7354033006869224e-08  0.9999999809932077  1.0000
  I   I1        1.0  0.24375933997544894  0.24375932800713038  0.7562406569595466  1.0000
  I   I2        1.0  0.7562406380347062  0.7562406452532339  0.2437593485934603  1.0000
  I   I3        1.0  0.7562406331311237  0.2437593628868601  0.243759359734186  1.0000
  I   I4        1.0  0.2437593515933497  0.756240659002896  0.7562406454446564  1.0000
  I   I5        1.0  0.24375936006404944  0.7562406407487056  0.24375935805321114  1.0000
  I   I6        1.0  0.7562406525781008  0.2437593446690068  0.7562406576068352  1.0000
