data_image0
_chemical_formula_structural       In2TaCl6
_chemical_formula_sum              "In2 Ta1 Cl6"
_cell_length_a       7.260769924172914
_cell_length_b       7.2607699748100245
_cell_length_c       7.260770169777083
_cell_angle_alpha    59.99999922472905
_cell_angle_beta     59.99999948710739
_cell_angle_gamma    59.99999898274574

_space_group_name_H-M_alt    "P 1"
_space_group_IT_number       1

loop_
  _space_group_symop_operation_xyz
  'x, y, z'

loop_
  _atom_site_type_symbol
  _atom_site_label
  _atom_site_symmetry_multiplicity
  _atom_site_fract_x
  _atom_site_fract_y
  _atom_site_fract_z
  _atom_site_occupancy
  In  In1       1.0  0.2500000484294982  0.24999992840619506  0.2500000315491462  1.0000
  In  In2       1.0  0.7499999618824855  0.7500000348646207  0.7499999623643905  1.0000
  Ta  Ta1       1.0  0.9999999638717011  3.204915330841045e-08  0.9999999662306992  1.0000
  Cl  Cl1       1.0  0.23238192694173315  0.232381970539554  0.7676180387802456  1.0000
  Cl  Cl2       1.0  0.7676181253775132  0.7676179859840714  0.23238196229401373  1.0000
  Cl  Cl3       1.0  0.7676180841957835  0.2323819718685764  0.23238190427359445  1.0000
  Cl  Cl4       1.0  0.2323818995932355  0.7676180757421158  0.7676180731268656  1.0000
  Cl  Cl5       1.0  0.23238185983971188  0.7676180897767128  0.23238194861671513  1.0000
  Cl  Cl6       1.0  0.7676181310823759  0.23238191735083885  0.7676180812676544  1.0000
