data_image0
_chemical_formula_structural       In2TaF6
_chemical_formula_sum              "In2 Ta1 F6"
_cell_length_a       6.558897705743919
_cell_length_b       6.558899185561672
_cell_length_c       6.558898543120563
_cell_angle_alpha    59.99999472547414
_cell_angle_beta     59.999998924239854
_cell_angle_gamma    59.999995574188766

_space_group_name_H-M_alt    "P 1"
_space_group_IT_number       1

loop_
  _space_group_symop_operation_xyz
  'x, y, z'

loop_
  _atom_site_type_symbol
  _atom_site_label
  _atom_site_symmetry_multiplicity
  _atom_site_fract_x
  _atom_site_fract_y
  _atom_site_fract_z
  _atom_site_occupancy
  In  In1       1.0  0.2500000227695463  0.2499999824879666  0.2499999717463791  1.0000
  In  In2       1.0  0.7499999868796859  0.7500000016156698  0.7500000173072054  1.0000
  Ta  Ta1       1.0  4.10256941191269e-08  0.9999999719904629  0.9999999569004145  1.0000
  F   F1        1.0  0.20733910901746253  0.2073391982758761  0.7926608054498787  1.0000
  F   F2        1.0  0.7926608980169164  0.7926608306430235  0.20733915183097423  1.0000
  F   F3        1.0  0.7926608643972185  0.20733914414920368  0.2073391176327036  1.0000
  F   F4        1.0  0.2073391610966074  0.7926608399544273  0.7926609046640357  1.0000
  F   F5        1.0  0.20733915173479525  0.7926608810063077  0.20733911645728093  1.0000
  F   F6        1.0  0.7926608016299367  0.20733919272785878  0.7926608254303569  1.0000
