data_image0
_chemical_formula_structural       In2YBr6
_chemical_formula_sum              "In2 Y1 Br6"
_cell_length_a       7.670797762595923
_cell_length_b       7.6707978181642
_cell_length_c       7.67079798185173
_cell_angle_alpha    59.999998958389014
_cell_angle_beta     59.99999919286291
_cell_angle_gamma    60.00000048244333

_space_group_name_H-M_alt    "P 1"
_space_group_IT_number       1

loop_
  _space_group_symop_operation_xyz
  'x, y, z'

loop_
  _atom_site_type_symbol
  _atom_site_label
  _atom_site_symmetry_multiplicity
  _atom_site_fract_x
  _atom_site_fract_y
  _atom_site_fract_z
  _atom_site_occupancy
  In  In1       1.0  0.2499999969508642  0.25000001055206766  0.2499999996659317  1.0000
  In  In2       1.0  0.7500000036256559  0.7499999933370117  0.7499999974307605  1.0000
  Y   Y1        1.0  2.2047589726833653e-08  1.5966325978553917e-09  1.3548981164141856e-07  1.0000
  Br  Br1       1.0  0.25512456014992735  0.25512455048656035  0.7448754414525846  1.0000
  Br  Br2       1.0  0.7448754188199015  0.7448754549991516  0.25512456825642754  1.0000
  Br  Br3       1.0  0.7448754168484263  0.2551245603914522  0.2551245674842193  1.0000
  Br  Br4       1.0  0.25512463716046396  0.7448753780356759  0.744875346979381  1.0000
  Br  Br5       1.0  0.25512456675306544  0.7448754472142665  0.25512454215110064  1.0000
  Br  Br6       1.0  0.7448753752672667  0.25512460138053594  0.7448754019031387  1.0000
