data_image0
_chemical_formula_structural       In2YF6
_chemical_formula_sum              "In2 Y1 F6"
_cell_length_a       6.014392430873079
_cell_length_b       6.014392681088565
_cell_length_c       6.014392525214091
_cell_angle_alpha    59.99999908189361
_cell_angle_beta     59.99999869924464
_cell_angle_gamma    59.99999981508327

_space_group_name_H-M_alt    "P 1"
_space_group_IT_number       1

loop_
  _space_group_symop_operation_xyz
  'x, y, z'

loop_
  _atom_site_type_symbol
  _atom_site_label
  _atom_site_symmetry_multiplicity
  _atom_site_fract_x
  _atom_site_fract_y
  _atom_site_fract_z
  _atom_site_occupancy
  In  In1       1.0  0.25000009967271825  0.2500000092189576  0.24999994361435002  1.0000
  In  In2       1.0  0.7499999028208951  0.7500000643112938  0.7500000239158975  1.0000
  Y   Y1        1.0  0.9999999908463854  1.0181783722715538e-08  0.9999999845218106  1.0000
  F   F1        1.0  0.2520088548750946  0.2520086791572918  0.7479912471984885  1.0000
  F   F2        1.0  0.7479911774850838  0.747991304773265  0.25200876183707294  1.0000
  F   F3        1.0  0.7479911820964753  0.25200877394327037  0.2520088348600375  1.0000
  F   F4        1.0  0.25200880509791657  0.7479911957327897  0.7479912105363795  1.0000
  F   F5        1.0  0.252008818364704  0.7479912022135574  0.25200879055314257  1.0000
  F   F6        1.0  0.7479911819395547  0.25200875117164956  0.747991226505558  1.0000
