data_image0
_chemical_formula_structural       In2YCl6
_chemical_formula_sum              "In2 Y1 Cl6"
_cell_length_a       7.3159517549355995
_cell_length_b       7.3159518306837334
_cell_length_c       7.315951627656824
_cell_angle_alpha    60.000000749171384
_cell_angle_beta     60.00000052115953
_cell_angle_gamma    59.99999977014945

_space_group_name_H-M_alt    "P 1"
_space_group_IT_number       1

loop_
  _space_group_symop_operation_xyz
  'x, y, z'

loop_
  _atom_site_type_symbol
  _atom_site_label
  _atom_site_symmetry_multiplicity
  _atom_site_fract_x
  _atom_site_fract_y
  _atom_site_fract_z
  _atom_site_occupancy
  In  In1       1.0  0.250000023542658  0.24999997949770764  0.24999998113234412  1.0000
  In  In2       1.0  0.7499999887926226  0.7500000088042539  0.749999991532304  1.0000
  Y   Y1        1.0  1.67407458193018e-09  0.9999999949777764  8.508455418304184e-09  1.0000
  Cl  Cl1       1.0  0.2517497236319936  0.2517497213278565  0.7482503047532681  1.0000
  Cl  Cl2       1.0  0.7482502706878611  0.7482502736704034  0.25174974328162897  1.0000
  Cl  Cl3       1.0  0.7482502908840173  0.2517497470305483  0.25174978685208566  1.0000
  Cl  Cl4       1.0  0.2517497621377973  0.7482502044417733  0.7482501961860011  1.0000
  Cl  Cl5       1.0  0.25174970906808586  0.7482502839715894  0.25174977195427184  1.0000
  Cl  Cl6       1.0  0.7482502292277645  0.25174977966372697  0.7482502109984235  1.0000
