data_image0
_chemical_formula_structural       In2YI6
_chemical_formula_sum              "In2 Y1 I6"
_cell_length_a       8.181956343102728
_cell_length_b       8.181956233303739
_cell_length_c       8.181956317531126
_cell_angle_alpha    59.999999819649
_cell_angle_beta     59.9999985937168
_cell_angle_gamma    59.999999310899646

_space_group_name_H-M_alt    "P 1"
_space_group_IT_number       1

loop_
  _space_group_symop_operation_xyz
  'x, y, z'

loop_
  _atom_site_type_symbol
  _atom_site_label
  _atom_site_symmetry_multiplicity
  _atom_site_fract_x
  _atom_site_fract_y
  _atom_site_fract_z
  _atom_site_occupancy
  In  In1       1.0  0.2499999776480756  0.2500000155871289  0.2500000070945913  1.0000
  In  In2       1.0  0.7500000080281013  0.7499999823953253  0.7499999914808346  1.0000
  Y   Y1        1.0  1.2672115054704003e-08  5.0894095063781494e-08  0.9999999877721203  1.0000
  I   I1        1.0  0.25819319229316934  0.2581931947294077  0.7418067736021701  1.0000
  I   I2        1.0  0.7418067759780995  0.7418067538558367  0.25819328281834675  1.0000
  I   I3        1.0  0.7418068090885189  0.25819322506066916  0.2581931365624256  1.0000
  I   I4        1.0  0.25819320928916284  0.7418067848968659  0.7418068152306756  1.0000
  I   I5        1.0  0.2581931839168755  0.7418067603034544  0.258193230407065  1.0000
  I   I6        1.0  0.7418068328930001  0.25819323318834436  0.741806773179863  1.0000
