data_image0
_chemical_formula_structural       Ir2AsBr6
_chemical_formula_sum              "Ir2 As1 Br6"
_cell_length_a       6.802421271216287
_cell_length_b       6.802421305038524
_cell_length_c       6.8024214002903385
_cell_angle_alpha    59.999997374416765
_cell_angle_beta     59.999996971273376
_cell_angle_gamma    59.99999817652142

_space_group_name_H-M_alt    "P 1"
_space_group_IT_number       1

loop_
  _space_group_symop_operation_xyz
  'x, y, z'

loop_
  _atom_site_type_symbol
  _atom_site_label
  _atom_site_symmetry_multiplicity
  _atom_site_fract_x
  _atom_site_fract_y
  _atom_site_fract_z
  _atom_site_occupancy
  Ir  Ir1       1.0  0.24999994053195962  0.24999993463744621  0.2500001743172457  1.0000
  Ir  Ir2       1.0  0.7499997723304692  0.750000043372775  0.7499999206818777  1.0000
  As  As1       1.0  0.9999999913243035  0.9999999801950017  4.51117079180485e-08  1.0000
  Br  Br1       1.0  0.25604962233005124  0.25604955255174655  0.74395035811375  1.0000
  Br  Br2       1.0  0.7439504249191878  0.7439504560661976  0.2560495911397193  1.0000
  Br  Br3       1.0  0.7439504410921909  0.25604953602593683  0.2560496321665811  1.0000
  Br  Br4       1.0  0.25604971731730675  0.7439504293811018  0.7439503669059019  1.0000
  Br  Br5       1.0  0.2560496341404722  0.7439504495176236  0.2560495738963787  1.0000
  Br  Br6       1.0  0.7439504481204592  0.2560496221162227  0.743950348394263  1.0000
