data_image0
_chemical_formula_structural       Ir2AsSe6
_chemical_formula_sum              "Ir2 As1 Se6"
_cell_length_a       6.177251347098474
_cell_length_b       6.177250691544402
_cell_length_c       6.177249902659633
_cell_angle_alpha    60.00000335637993
_cell_angle_beta     60.00000819455033
_cell_angle_gamma    60.00001066716857

_space_group_name_H-M_alt    "P 1"
_space_group_IT_number       1

loop_
  _space_group_symop_operation_xyz
  'x, y, z'

loop_
  _atom_site_type_symbol
  _atom_site_label
  _atom_site_symmetry_multiplicity
  _atom_site_fract_x
  _atom_site_fract_y
  _atom_site_fract_z
  _atom_site_occupancy
  Ir  Ir1       1.0  0.25000412180369547  0.2500004807273273  0.2499969919312977  1.0000
  Ir  Ir2       1.0  0.749997133797703  0.7499988984150453  0.7500019453165804  1.0000
  As  As1       1.0  0.9999999107832186  7.137610091015797e-08  7.043638725150001e-08  1.0000
  Se  Se1       1.0  0.28312471035488  0.2831237702650114  0.7168760303506543  1.0000
  Se  Se2       1.0  0.716874911292476  0.7168765347839497  0.2831243099314374  1.0000
  Se  Se3       1.0  0.7168742737669711  0.2831250778862165  0.28312348417678324  1.0000
  Se  Se4       1.0  0.28312549580295737  0.716874985277055  0.7168765307528959  1.0000
  Se  Se5       1.0  0.28312550980920365  0.716875206410025  0.2831230630320524  1.0000
  Se  Se6       1.0  0.7168739313507647  0.2831249895920791  0.7168775580000042  1.0000
