data_image0
_chemical_formula_structural       Ir2AsS6
_chemical_formula_sum              "Ir2 As1 S6"
_cell_length_a       5.729006095933862
_cell_length_b       5.729005962628441
_cell_length_c       5.729005636676055
_cell_angle_alpha    59.999997241504616
_cell_angle_beta     59.999994684354874
_cell_angle_gamma    59.99999699379028

_space_group_name_H-M_alt    "P 1"
_space_group_IT_number       1

loop_
  _space_group_symop_operation_xyz
  'x, y, z'

loop_
  _atom_site_type_symbol
  _atom_site_label
  _atom_site_symmetry_multiplicity
  _atom_site_fract_x
  _atom_site_fract_y
  _atom_site_fract_z
  _atom_site_occupancy
  Ir  Ir1       1.0  0.25000170461025567  0.2500002610717946  0.24999877369426382  1.0000
  Ir  Ir2       1.0  0.7500004370131442  0.7499998725139391  0.7500054230926725  1.0000
  As  As1       1.0  2.7015824800608867e-08  2.7791354662539924e-08  0.9999999778329185  1.0000
  S   S1        1.0  0.2727065022616087  0.2727066845494587  0.7272941684119522  1.0000
  S   S2        1.0  0.7272931263757575  0.7272936050956107  0.27270326130606254  1.0000
  S   S3        1.0  0.7272930651381811  0.2727081436675529  0.2727049338804066  1.0000
  S   S4        1.0  0.2727049746782378  0.7272927402849355  0.7272940002500279  1.0000
  S   S5        1.0  0.27270805485417887  0.7272934410212797  0.2727050129810025  1.0000
  S   S6        1.0  0.7272921351467565  0.2727052431385594  0.7272944451674779  1.0000
