data_image0
_chemical_formula_structural       Ir2AsO6
_chemical_formula_sum              "Ir2 As1 O6"
_cell_length_a       5.074745242155098
_cell_length_b       5.0747453003942145
_cell_length_c       5.074745284864591
_cell_angle_alpha    59.99999950042869
_cell_angle_beta     59.999999874556906
_cell_angle_gamma    59.99999980468799

_space_group_name_H-M_alt    "P 1"
_space_group_IT_number       1

loop_
  _space_group_symop_operation_xyz
  'x, y, z'

loop_
  _atom_site_type_symbol
  _atom_site_label
  _atom_site_symmetry_multiplicity
  _atom_site_fract_x
  _atom_site_fract_y
  _atom_site_fract_z
  _atom_site_occupancy
  Ir  Ir1       1.0  0.2499998499199097  0.25000008719664085  0.24999966753651445  1.0000
  Ir  Ir2       1.0  0.7499998845649196  0.7500001650534565  0.7499995633122587  1.0000
  As  As1       1.0  3.667133305376934e-10  6.033528785407552e-08  0.9999999893544217  1.0000
  O   O1        1.0  0.2464812264897223  0.2464809940464197  0.7535189963189339  1.0000
  O   O2        1.0  0.7535189173873682  0.7535188696444154  0.24648118967904517  1.0000
  O   O3        1.0  0.7535189587825074  0.2464808890717571  0.24648139209857017  1.0000
  O   O4        1.0  0.2464812175061546  0.7535187067303982  0.7535190397232105  1.0000
  O   O5        1.0  0.24648108536069308  0.7535189711252555  0.24648122971918335  1.0000
  O   O6        1.0  0.7535188610111095  0.2464812666443648  0.7535189645486153  1.0000
