data_image0
_chemical_formula_structural       Ir2AsI6
_chemical_formula_sum              "Ir2 As1 I6"
_cell_length_a       7.371029029407178
_cell_length_b       7.3710285879452995
_cell_length_c       7.37102893742726
_cell_angle_alpha    60.00000047452211
_cell_angle_beta     60.00000245987813
_cell_angle_gamma    59.99999977493285

_space_group_name_H-M_alt    "P 1"
_space_group_IT_number       1

loop_
  _space_group_symop_operation_xyz
  'x, y, z'

loop_
  _atom_site_type_symbol
  _atom_site_label
  _atom_site_symmetry_multiplicity
  _atom_site_fract_x
  _atom_site_fract_y
  _atom_site_fract_z
  _atom_site_occupancy
  Ir  Ir1       1.0  0.250000466893598  0.2499989225736484  0.2500008287002868  1.0000
  Ir  Ir2       1.0  0.7499998399581932  0.7499999413115396  0.7500004356071949  1.0000
  As  As1       1.0  1.2499703514285609e-08  5.649323648472849e-08  0.9999999899234596  1.0000
  I   I1        1.0  0.2640197217555193  0.26401981376695266  0.7359800670959057  1.0000
  I   I2        1.0  0.7359799021876298  0.7359804690953821  0.26401968415401844  1.0000
  I   I3        1.0  0.7359801596238524  0.26401995863949484  0.2640195182952921  1.0000
  I   I4        1.0  0.26401982291000337  0.7359805784424011  0.7359798193731547  1.0000
  I   I5        1.0  0.26401984367380915  0.7359804681459482  0.26401951511197297  1.0000
  I   I6        1.0  0.73598022665426  0.264019791454468  0.7359801398927861  1.0000
