data_image0
_chemical_formula_structural       Ir2AsF6
_chemical_formula_sum              "Ir2 As1 F6"
_cell_length_a       7.332359542896367
_cell_length_b       5.541112958217867
_cell_length_c       7.298957816730756
_cell_angle_alpha    59.54442742604488
_cell_angle_beta     51.18571476792573
_cell_angle_gamma    61.66010187072179

_space_group_name_H-M_alt    "P 1"
_space_group_IT_number       1

loop_
  _space_group_symop_operation_xyz
  'x, y, z'

loop_
  _atom_site_type_symbol
  _atom_site_label
  _atom_site_symmetry_multiplicity
  _atom_site_fract_x
  _atom_site_fract_y
  _atom_site_fract_z
  _atom_site_occupancy
  Ir  Ir1       1.0  0.4871788315961458  0.21726005152940506  0.41769245225431567  1.0000
  Ir  Ir2       1.0  0.5151451090572094  0.7592669577256653  0.602394304612692  1.0000
  As  As1       1.0  0.18168016324608188  0.011864081873490862  0.9140142471059891  1.0000
  F   F1        1.0  0.1361257611199794  0.3812347078737287  0.6760886180867567  1.0000
  F   F2        1.0  0.853017521210885  0.5944250660798822  0.40918609534011785  1.0000
  F   F3        1.0  0.8161235669241121  0.18616540738790555  0.10832970830314516  1.0000
  F   F4        1.0  0.08841620557067548  0.8576913695159202  0.8229750522064679  1.0000
  F   F5        1.0  0.45766358380078215  0.612209051926518  0.23628096466088222  1.0000
  F   F6        1.0  0.46464989866572837  0.3798786510913619  0.8130401361294648  1.0000
