data_image0
_chemical_formula_structural       Ir2BeI6
_chemical_formula_sum              "Ir2 Be1 I6"
_cell_length_a       6.895577269225746
_cell_length_b       6.895576771406475
_cell_length_c       6.89557740132628
_cell_angle_alpha    59.99999633045256
_cell_angle_beta     60.000000190917675
_cell_angle_gamma    59.999997044991346

_space_group_name_H-M_alt    "P 1"
_space_group_IT_number       1

loop_
  _space_group_symop_operation_xyz
  'x, y, z'

loop_
  _atom_site_type_symbol
  _atom_site_label
  _atom_site_symmetry_multiplicity
  _atom_site_fract_x
  _atom_site_fract_y
  _atom_site_fract_z
  _atom_site_occupancy
  Ir  Ir1       1.0  0.24999986368188967  0.25000084868074735  0.2499997194675139  1.0000
  Ir  Ir2       1.0  0.7499999811747377  0.7499990346307829  0.7500001230095505  1.0000
  Be  Be1       1.0  3.2300953350808795e-09  3.552262590208785e-08  0.9999998791092976  1.0000
  I   I1        1.0  0.24482557690240178  0.24482602291115954  0.7551741697740092  1.0000
  I   I2        1.0  0.7551744092231062  0.7551740042669973  0.24482593329225863  1.0000
  I   I3        1.0  0.7551740539485485  0.24482606312172325  0.24482567327405808  1.0000
  I   I4        1.0  0.24482593872130232  0.7551740599675203  0.7551744206204362  1.0000
  I   I5        1.0  0.24482589134848678  0.7551738628259136  0.24482585484419395  1.0000
  I   I6        1.0  0.755174263654364  0.24482608975473094  0.7551742387874869  1.0000
