data_image0
_chemical_formula_structural       Ir2BF6
_chemical_formula_sum              "Ir2 B1 F6"
_cell_length_a       5.474389960214031
_cell_length_b       5.546260896541154
_cell_length_c       5.466265661008257
_cell_angle_alpha    47.950470409040356
_cell_angle_beta     102.44315782971483
_cell_angle_gamma    83.42384697511706

_space_group_name_H-M_alt    "P 1"
_space_group_IT_number       1

loop_
  _space_group_symop_operation_xyz
  'x, y, z'

loop_
  _atom_site_type_symbol
  _atom_site_label
  _atom_site_symmetry_multiplicity
  _atom_site_fract_x
  _atom_site_fract_y
  _atom_site_fract_z
  _atom_site_occupancy
  Ir  Ir1       1.0  0.8296282714357796  0.23020254534236856  0.7706839534025169  1.0000
  Ir  Ir2       1.0  0.5733536563776891  0.12144679184219176  0.6850243258648852  1.0000
  B   B1        1.0  0.7371437286238535  0.007792373629831977  0.8291478353118532  1.0000
  F   F1        1.0  0.17799390837579643  0.23508503025519722  0.08701550782096763  1.0000
  F   F2        1.0  0.09277981743666563  0.3412301881589155  0.14385585907344017  1.0000
  F   F3        1.0  0.5405058594985157  0.29081382445729664  0.3700850366784475  1.0000
  F   F4        1.0  0.5378022271113644  0.29241391021072544  0.3654350268711868  1.0000
  F   F5        1.0  0.21196291550537572  0.7219536051936566  0.43497190407753095  1.0000
  F   F6        1.0  0.5865871242015892  0.07811711362525424  0.7622843889531783  1.0000
