data_image0
_chemical_formula_structural       Ir2BBr6
_chemical_formula_sum              "Ir2 B1 Br6"
_cell_length_a       6.666131482529866
_cell_length_b       6.6661313262116
_cell_length_c       6.66613132434113
_cell_angle_alpha    59.99999868932401
_cell_angle_beta     59.99999986165055
_cell_angle_gamma    59.999997413399655

_space_group_name_H-M_alt    "P 1"
_space_group_IT_number       1

loop_
  _space_group_symop_operation_xyz
  'x, y, z'

loop_
  _atom_site_type_symbol
  _atom_site_label
  _atom_site_symmetry_multiplicity
  _atom_site_fract_x
  _atom_site_fract_y
  _atom_site_fract_z
  _atom_site_occupancy
  Ir  Ir1       1.0  0.25000000708569425  0.25000015582598933  0.2500000279892745  1.0000
  Ir  Ir2       1.0  0.7499999620206431  0.750000000812695  0.7499997663720663  1.0000
  B   B1        1.0  0.9999998464804831  1.1758495779089304e-07  0.9999997959494511  1.0000
  Br  Br1       1.0  0.23970899395887982  0.23970884146240712  0.7602910640730965  1.0000
  Br  Br2       1.0  0.7602910783644508  0.7602911406361087  0.23970900746922702  1.0000
  Br  Br3       1.0  0.7602911055461674  0.23970878770791137  0.2397089517992224  1.0000
  Br  Br4       1.0  0.23970893054230852  0.7602911264118044  0.7602911778504111  1.0000
  Br  Br5       1.0  0.23970888241082886  0.7602910203119662  0.23970895600528774  1.0000
  Br  Br6       1.0  0.7602911858207696  0.23970881296809374  0.7602912369957453  1.0000
