data_image0
_chemical_formula_structural       Ir2BeBr6
_chemical_formula_sum              "Ir2 Be1 Br6"
_cell_length_a       6.615747548571579
_cell_length_b       6.615747218596566
_cell_length_c       6.6157475021100405
_cell_angle_alpha    59.999993249927584
_cell_angle_beta     59.999994684481315
_cell_angle_gamma    59.999996217358145

_space_group_name_H-M_alt    "P 1"
_space_group_IT_number       1

loop_
  _space_group_symop_operation_xyz
  'x, y, z'

loop_
  _atom_site_type_symbol
  _atom_site_label
  _atom_site_symmetry_multiplicity
  _atom_site_fract_x
  _atom_site_fract_y
  _atom_site_fract_z
  _atom_site_occupancy
  Ir  Ir1       1.0  0.24999979065505668  0.2500003227298596  0.25000051511675253  1.0000
  Ir  Ir2       1.0  0.7500001185055926  0.7499993150170327  0.749999200796576  1.0000
  Be  Be1       1.0  0.9999999803954613  0.9999999907437114  7.640375951166194e-08  1.0000
  Br  Br1       1.0  0.24365584017141637  0.24365603155473659  0.7563438941397362  1.0000
  Br  Br2       1.0  0.7563442814597207  0.7563440578988809  0.2436562817345342  1.0000
  Br  Br3       1.0  0.7563440218116728  0.24365587523321353  0.24365587021479193  1.0000
  Br  Br4       1.0  0.24365608485216217  0.7563441753440108  0.7563441330573892  1.0000
  Br  Br5       1.0  0.24365567465480611  0.7563439734372785  0.24365604691821927  1.0000
  Br  Br6       1.0  0.7563442142566734  0.24365623819931584  0.7563440330698972  1.0000
