data_image0
_chemical_formula_structural       Ir2BeCl6
_chemical_formula_sum              "Ir2 Be1 Cl6"
_cell_length_a       6.090780933544179
_cell_length_b       6.090780983146575
_cell_length_c       6.090781408186395
_cell_angle_alpha    59.99999819405447
_cell_angle_beta     59.99999626367156
_cell_angle_gamma    59.99999796963259

_space_group_name_H-M_alt    "P 1"
_space_group_IT_number       1

loop_
  _space_group_symop_operation_xyz
  'x, y, z'

loop_
  _atom_site_type_symbol
  _atom_site_label
  _atom_site_symmetry_multiplicity
  _atom_site_fract_x
  _atom_site_fract_y
  _atom_site_fract_z
  _atom_site_occupancy
  Ir  Ir1       1.0  0.24999989778481  0.25000005135602926  0.24999994799415556  1.0000
  Ir  Ir2       1.0  0.7499998994071251  0.7500000193433183  0.7500001760874049  1.0000
  Be  Be1       1.0  7.793538572886864e-09  2.211899202760691e-08  0.9999999554908764  1.0000
  Cl  Cl1       1.0  0.24169543746529973  0.24169541440651993  0.7583045879400301  1.0000
  Cl  Cl2       1.0  0.7583046163716615  0.7583045859142129  0.24169537733530377  1.0000
  Cl  Cl3       1.0  0.7583046709327887  0.24169541811401068  0.24169536077892972  1.0000
  Cl  Cl4       1.0  0.24169539809043863  0.7583045480228251  0.7583046435480777  1.0000
  Cl  Cl5       1.0  0.24169549082274353  0.7583045609158323  0.24169532352861672  1.0000
  Cl  Cl6       1.0  0.7583045853434813  0.24169539516691532  0.7583046132972665  1.0000
