data_image0
_chemical_formula_structural       Ir2BI6
_chemical_formula_sum              "Ir2 B1 I6"
_cell_length_a       6.937739683052713
_cell_length_b       6.937739693218943
_cell_length_c       6.937739604591851
_cell_angle_alpha    60.000000250674624
_cell_angle_beta     59.99999997379183
_cell_angle_gamma    60.00000171257681

_space_group_name_H-M_alt    "P 1"
_space_group_IT_number       1

loop_
  _space_group_symop_operation_xyz
  'x, y, z'

loop_
  _atom_site_type_symbol
  _atom_site_label
  _atom_site_symmetry_multiplicity
  _atom_site_fract_x
  _atom_site_fract_y
  _atom_site_fract_z
  _atom_site_occupancy
  Ir  Ir1       1.0  0.2500000081085542  0.249999893460045  0.25000006221754073  1.0000
  Ir  Ir2       1.0  0.750000264024469  0.7499999698954081  0.7499998961005315  1.0000
  B   B1        1.0  0.9999999897281837  0.9999999858773038  3.8142306167342605e-08  1.0000
  I   I1        1.0  0.24397908009382163  0.24397921128319033  0.7560208079113812  1.0000
  I   I2        1.0  0.7560208541333236  0.7560208868620781  0.24397912412957345  1.0000
  I   I3        1.0  0.7560208225017706  0.24397911986863666  0.24397919005576865  1.0000
  I   I4        1.0  0.24397905369146908  0.7560209376738798  0.7560208417522228  1.0000
  I   I5        1.0  0.2439790994957549  0.7560208513956616  0.24397921550698606  1.0000
  I   I6        1.0  0.7560208356746843  0.2439791390640496  0.7560208246779834  1.0000
