data_image0
_chemical_formula_structural       Ir2BCl6
_chemical_formula_sum              "Ir2 B1 Cl6"
_cell_length_a       6.271405721461125
_cell_length_b       6.271405727660376
_cell_length_c       6.271405963112368
_cell_angle_alpha    59.999998998009985
_cell_angle_beta     59.99999921366065
_cell_angle_gamma    60.00000078560358

_space_group_name_H-M_alt    "P 1"
_space_group_IT_number       1

loop_
  _space_group_symop_operation_xyz
  'x, y, z'

loop_
  _atom_site_type_symbol
  _atom_site_label
  _atom_site_symmetry_multiplicity
  _atom_site_fract_x
  _atom_site_fract_y
  _atom_site_fract_z
  _atom_site_occupancy
  Ir  Ir1       1.0  0.2500000236390788  0.24999999323335204  0.250000117065594  1.0000
  Ir  Ir2       1.0  0.7499999739104509  0.7499999172071494  0.7500000514463985  1.0000
  B   B1        1.0  0.9999997406854473  4.8822578118116955e-08  5.644731544540008e-07  1.0000
  Cl  Cl1       1.0  0.23217030616201373  0.23217034974121198  0.7678295819411927  1.0000
  Cl  Cl2       1.0  0.7678297545056524  0.7678297911418765  0.23217013204445444  1.0000
  Cl  Cl3       1.0  0.7678298337447187  0.2321702349832142  0.2321701643791167  1.0000
  Cl  Cl4       1.0  0.23217051261456087  0.7678295680476125  0.7678295294452306  1.0000
  Cl  Cl5       1.0  0.23217026225712883  0.7678296925647446  0.2321702362721521  1.0000
  Cl  Cl6       1.0  0.7678296021823655  0.23217040730737204  0.7678296154675315  1.0000
