data_image0
_chemical_formula_structural       Ir2CCl6
_chemical_formula_sum              "Ir2 C1 Cl6"
_cell_length_a       6.350572029252528
_cell_length_b       6.350572664075798
_cell_length_c       6.350572267919535
_cell_angle_alpha    60.0000007794991
_cell_angle_beta     59.99999764143006
_cell_angle_gamma    59.999999830746106

_space_group_name_H-M_alt    "P 1"
_space_group_IT_number       1

loop_
  _space_group_symop_operation_xyz
  'x, y, z'

loop_
  _atom_site_type_symbol
  _atom_site_label
  _atom_site_symmetry_multiplicity
  _atom_site_fract_x
  _atom_site_fract_y
  _atom_site_fract_z
  _atom_site_occupancy
  Ir  Ir1       1.0  0.2500001285933368  0.25000002450682096  0.25000002694460965  1.0000
  Ir  Ir2       1.0  0.7499997510394043  0.7500001776626187  0.7499999524677483  1.0000
  C   C1        1.0  0.9999990771824215  1.2902053962089317e-06  5.390755954191556e-07  1.0000
  Cl  Cl1       1.0  0.2461922157120442  0.2461920505426579  0.7538078737585244  1.0000
  Cl  Cl2       1.0  0.753807800353621  0.7538076714158058  0.24619231061074912  1.0000
  Cl  Cl3       1.0  0.7538081077296416  0.24619175920040776  0.24619187170717363  1.0000
  Cl  Cl4       1.0  0.2461926288723381  0.7538074594043793  0.7538073868215965  1.0000
  Cl  Cl5       1.0  0.2461923917865288  0.7538075822960131  0.24619216233460914  1.0000
  Cl  Cl6       1.0  0.7538079089774891  0.24619198923491253  0.753807822627712  1.0000
