data_image0
_chemical_formula_structural       Ir2CF6
_chemical_formula_sum              "Ir2 C1 F6"
_cell_length_a       4.9632691535064675
_cell_length_b       4.963269706108055
_cell_length_c       4.963270190292019
_cell_angle_alpha    59.99999276656074
_cell_angle_beta     59.99999300705646
_cell_angle_gamma    59.99999456729115

_space_group_name_H-M_alt    "P 1"
_space_group_IT_number       1

loop_
  _space_group_symop_operation_xyz
  'x, y, z'

loop_
  _atom_site_type_symbol
  _atom_site_label
  _atom_site_symmetry_multiplicity
  _atom_site_fract_x
  _atom_site_fract_y
  _atom_site_fract_z
  _atom_site_occupancy
  Ir  Ir1       1.0  0.24999823719893663  0.24999744435429663  0.24999987373576812  1.0000
  Ir  Ir2       1.0  0.7500037251653235  0.7500000641068331  0.7500001482753025  1.0000
  C   C1        1.0  0.999999779753218  3.2572546681465946e-07  8.225229134609987e-08  1.0000
  F   F1        1.0  0.22276204938072133  0.22276259094574744  0.7772377232635647  1.0000
  F   F2        1.0  0.7772373711543262  0.7772381180149106  0.2227623119283627  1.0000
  F   F3        1.0  0.777237273219917  0.22276255077214538  0.22276225217631734  1.0000
  F   F4        1.0  0.22276214115819243  0.7772381557208993  0.7772377067358602  1.0000
  F   F5        1.0  0.2227620696752749  0.7772378969542243  0.22276208986861348  1.0000
  F   F6        1.0  0.7772373670283024  0.22276277745979997  0.777237795343116  1.0000
