data_image0
_chemical_formula_structural       Ir2GaSe6
_chemical_formula_sum              "Ir2 Ga1 Se6"
_cell_length_a       6.180212870710353
_cell_length_b       6.1802124937167155
_cell_length_c       6.180214891567761
_cell_angle_alpha    59.99998627001793
_cell_angle_beta     59.999988080275585
_cell_angle_gamma    59.99997595249338

_space_group_name_H-M_alt    "P 1"
_space_group_IT_number       1

loop_
  _space_group_symop_operation_xyz
  'x, y, z'

loop_
  _atom_site_type_symbol
  _atom_site_label
  _atom_site_symmetry_multiplicity
  _atom_site_fract_x
  _atom_site_fract_y
  _atom_site_fract_z
  _atom_site_occupancy
  Ir  Ir1       1.0  0.24999347945852154  0.24999051629065275  0.25001125296404314  1.0000
  Ir  Ir2       1.0  0.7500066867534174  0.7500096038384305  0.7499962255296008  1.0000
  Ga  Ga1       1.0  5.1712531598028365e-09  0.9999999900913996  0.9999998567426693  1.0000
  Se  Se1       1.0  0.2798197985662146  0.2798180333486224  0.7201796621362523  1.0000
  Se  Se2       1.0  0.7201802148173003  0.7201820015665887  0.2798167966072839  1.0000
  Se  Se3       1.0  0.7201843563999014  0.2798150566600406  0.2798227132000453  1.0000
  Se  Se4       1.0  0.2798136955100879  0.7201866924433444  0.720175398259216  1.0000
  Se  Se5       1.0  0.2798158146573532  0.7201851532992734  0.2798219234981038  1.0000
  Se  Se6       1.0  0.7201859470000972  0.2798129494385711  0.7201761821592584  1.0000
