data_image0
_chemical_formula_structural       Ir2GaBr6
_chemical_formula_sum              "Ir2 Ga1 Br6"
_cell_length_a       6.782285113355226
_cell_length_b       6.782284720512423
_cell_length_c       6.78228488991517
_cell_angle_alpha    60.00000041595039
_cell_angle_beta     59.99999946398045
_cell_angle_gamma    59.99999884870517

_space_group_name_H-M_alt    "P 1"
_space_group_IT_number       1

loop_
  _space_group_symop_operation_xyz
  'x, y, z'

loop_
  _atom_site_type_symbol
  _atom_site_label
  _atom_site_symmetry_multiplicity
  _atom_site_fract_x
  _atom_site_fract_y
  _atom_site_fract_z
  _atom_site_occupancy
  Ir  Ir1       1.0  0.24999999951262103  0.2500002210306711  0.24999982192325437  1.0000
  Ir  Ir2       1.0  0.7500000053778476  0.7499999172966816  0.7500002156502056  1.0000
  Ga  Ga1       1.0  0.999999992192588  0.9999999927767999  0.999999970654572  1.0000
  Br  Br1       1.0  0.2558748615992942  0.25587485378681013  0.7441251474753208  1.0000
  Br  Br2       1.0  0.744125150688532  0.7441251346591522  0.2558748345392287  1.0000
  Br  Br3       1.0  0.7441251251060688  0.2558748976852736  0.2558747664248788  1.0000
  Br  Br4       1.0  0.25587482049120286  0.7441250763142893  0.744125213399697  1.0000
  Br  Br5       1.0  0.2558749228063617  0.7441250844972548  0.2558748511008779  1.0000
  Br  Br6       1.0  0.744125123773942  0.2558748317167135  0.7441251646277225  1.0000
