data_image0
_chemical_formula_structural       Ir2GaO6
_chemical_formula_sum              "Ir2 Ga1 O6"
_cell_length_a       5.115223910658537
_cell_length_b       5.115223943100313
_cell_length_c       5.115224017505828
_cell_angle_alpha    59.999999131470396
_cell_angle_beta     59.999998175444546
_cell_angle_gamma    60.0000005260994

_space_group_name_H-M_alt    "P 1"
_space_group_IT_number       1

loop_
  _space_group_symop_operation_xyz
  'x, y, z'

loop_
  _atom_site_type_symbol
  _atom_site_label
  _atom_site_symmetry_multiplicity
  _atom_site_fract_x
  _atom_site_fract_y
  _atom_site_fract_z
  _atom_site_occupancy
  Ir  Ir1       1.0  0.2500012120296027  0.24999918376023228  0.2500002843025035  1.0000
  Ir  Ir2       1.0  0.7500014555836632  0.7499996367275564  0.7500000422142329  1.0000
  Ga  Ga1       1.0  1.6629502111807813e-07  0.9999999209876631  5.215113778196058e-08  1.0000
  O   O1        1.0  0.25430935541637123  0.2543090698213119  0.7456900068760617  1.0000
  O   O2        1.0  0.7456897559691801  0.7456916900602072  0.25430906363197625  1.0000
  O   O3        1.0  0.7456910994079886  0.25430952883219843  0.25430893026667983  1.0000
  O   O4        1.0  0.2543081993676391  0.7456909533089796  0.74569069956797  1.0000
  O   O5        1.0  0.2543085848250495  0.7456905654831144  0.25430969350833477  1.0000
  O   O6        1.0  0.7456901650514027  0.25430938272618947  0.7456913203246899  1.0000
