data_image0
_chemical_formula_structural       Ir2GaF6
_chemical_formula_sum              "Ir2 Ga1 F6"
_cell_length_a       5.222902523981365
_cell_length_b       5.222902648282519
_cell_length_c       5.222902685049006
_cell_angle_alpha    59.999997868264465
_cell_angle_beta     59.999996121055936
_cell_angle_gamma    60.00000031193918

_space_group_name_H-M_alt    "P 1"
_space_group_IT_number       1

loop_
  _space_group_symop_operation_xyz
  'x, y, z'

loop_
  _atom_site_type_symbol
  _atom_site_label
  _atom_site_symmetry_multiplicity
  _atom_site_fract_x
  _atom_site_fract_y
  _atom_site_fract_z
  _atom_site_occupancy
  Ir  Ir1       1.0  0.24999966674372787  0.2500001662445146  0.24999923924865067  1.0000
  Ir  Ir2       1.0  0.7499995666434962  0.7499997413144682  0.7500009168874766  1.0000
  Ga  Ga1       1.0  3.934678589301567e-08  1.0083287685305358e-07  6.4959317788147776e-09  1.0000
  F   F1        1.0  0.252917804157182  0.25291776961103357  0.7470820479690627  1.0000
  F   F2        1.0  0.7470825241977388  0.7470822223661918  0.25291755676695293  1.0000
  F   F3        1.0  0.7470824762606791  0.25291777905055196  0.25291770249982726  1.0000
  F   F4        1.0  0.2529177229957207  0.7470821425781462  0.7470825552918717  1.0000
  F   F5        1.0  0.252917932961394  0.7470824574107392  0.25291756005398547  1.0000
  F   F6        1.0  0.7470822171621506  0.252917644779158  0.7470824807666532  1.0000
