data_image0
_chemical_formula_structural       Ir2GaI6
_chemical_formula_sum              "Ir2 Ga1 I6"
_cell_length_a       7.244614326173427
_cell_length_b       7.2446144063511655
_cell_length_c       7.244614392364908
_cell_angle_alpha    60.00000032422414
_cell_angle_beta     60.00000025344038
_cell_angle_gamma    60.000001298397606

_space_group_name_H-M_alt    "P 1"
_space_group_IT_number       1

loop_
  _space_group_symop_operation_xyz
  'x, y, z'

loop_
  _atom_site_type_symbol
  _atom_site_label
  _atom_site_symmetry_multiplicity
  _atom_site_fract_x
  _atom_site_fract_y
  _atom_site_fract_z
  _atom_site_occupancy
  Ir  Ir1       1.0  0.25000020642277526  0.2500000697288145  0.24999974252341767  1.0000
  Ir  Ir2       1.0  0.749999897541811  0.7499996918753602  0.7500005331158992  1.0000
  Ga  Ga1       1.0  0.999999980229891  0.9999999780227319  3.053603846165937e-08  1.0000
  I   I1        1.0  0.2623178361356257  0.2623179147789946  0.7376822127951753  1.0000
  I   I2        1.0  0.737682123521002  0.7376821984614659  0.2623176679291419  1.0000
  I   I3        1.0  0.7376820397702532  0.26231801077595074  0.26231773065922276  1.0000
  I   I4        1.0  0.26231785051278994  0.7376820906305952  0.7376821644424649  1.0000
  I   I5        1.0  0.2623179998543243  0.737682122346327  0.2623177186170966  1.0000
  I   I6        1.0  0.7376820573518721  0.26231791820009426  0.7376821938501991  1.0000
