data_image0
_chemical_formula_structural       Ir2GaCl6
_chemical_formula_sum              "Ir2 Ga1 Cl6"
_cell_length_a       6.399423960205588
_cell_length_b       6.399424242374601
_cell_length_c       6.399423970914117
_cell_angle_alpha    60.00000088181914
_cell_angle_beta     59.999999138708056
_cell_angle_gamma    60.00000067068564

_space_group_name_H-M_alt    "P 1"
_space_group_IT_number       1

loop_
  _space_group_symop_operation_xyz
  'x, y, z'

loop_
  _atom_site_type_symbol
  _atom_site_label
  _atom_site_symmetry_multiplicity
  _atom_site_fract_x
  _atom_site_fract_y
  _atom_site_fract_z
  _atom_site_occupancy
  Ir  Ir1       1.0  0.25000005458914265  0.24999995289545374  0.2500000491521714  1.0000
  Ir  Ir2       1.0  0.7500000479022826  0.7499999735165228  0.7499998838877373  1.0000
  Ga  Ga1       1.0  2.112409297265432e-08  0.9999999961723279  0.9999999741627423  1.0000
  Cl  Cl1       1.0  0.2571639114093095  0.2571639467676121  0.7428360588131362  1.0000
  Cl  Cl2       1.0  0.7428360672895983  0.7428360370594449  0.25716397617168024  1.0000
  Cl  Cl3       1.0  0.7428360027165136  0.2571639455035866  0.25716396542318387  1.0000
  Cl  Cl4       1.0  0.25716393688637756  0.7428361014800587  0.7428360575313465  1.0000
  Cl  Cl5       1.0  0.25716391446743053  0.7428361047855223  0.2571639528280858  1.0000
  Cl  Cl6       1.0  0.7428360405180451  0.25716395559497485  0.7428360823016172  1.0000
