data_image0
_chemical_formula_structural       Ir2NO6
_chemical_formula_sum              "Ir2 N1 O6"
_cell_length_a       4.701552556930332
_cell_length_b       4.701552467712149
_cell_length_c       4.701552623719709
_cell_angle_alpha    59.99999860962511
_cell_angle_beta     59.99999777873493
_cell_angle_gamma    59.99999840050188

_space_group_name_H-M_alt    "P 1"
_space_group_IT_number       1

loop_
  _space_group_symop_operation_xyz
  'x, y, z'

loop_
  _atom_site_type_symbol
  _atom_site_label
  _atom_site_symmetry_multiplicity
  _atom_site_fract_x
  _atom_site_fract_y
  _atom_site_fract_z
  _atom_site_occupancy
  Ir  Ir1       1.0  0.25001094736623686  0.24999356849220805  0.24998871100780104  1.0000
  Ir  Ir2       1.0  0.7500119574444317  0.7499914666480204  0.7499861961924225  1.0000
  N   N1        1.0  1.47323324497974e-06  0.9999996326978419  0.9999959609520069  1.0000
  O   O1        1.0  0.2424172200875661  0.24242609881435703  0.7575820773302626  1.0000
  O   O2        1.0  0.7575732177060986  0.7575812427675399  0.2424274344473466  1.0000
  O   O3        1.0  0.7575745093558074  0.24242366102225346  0.2424255731516413  1.0000
  O   O4        1.0  0.2424196623326524  0.7575788300873537  0.7575815914914914  1.0000
  O   O5        1.0  0.24241730736132033  0.7575802194467683  0.24242894641782448  1.0000
  O   O6        1.0  0.7575737416107973  0.24242525175968324  0.7575835239761306  1.0000
