data_image0
_chemical_formula_structural       Ir2NCl6
_chemical_formula_sum              "Ir2 N1 Cl6"
_cell_length_a       6.23630748764158
_cell_length_b       6.236307536511591
_cell_length_c       6.236307397533008
_cell_angle_alpha    59.99999975920001
_cell_angle_beta     59.99999929189093
_cell_angle_gamma    59.999998840268105

_space_group_name_H-M_alt    "P 1"
_space_group_IT_number       1

loop_
  _space_group_symop_operation_xyz
  'x, y, z'

loop_
  _atom_site_type_symbol
  _atom_site_label
  _atom_site_symmetry_multiplicity
  _atom_site_fract_x
  _atom_site_fract_y
  _atom_site_fract_z
  _atom_site_occupancy
  Ir  Ir1       1.0  0.25000001978177  0.24999999781465815  0.24999997929326787  1.0000
  Ir  Ir2       1.0  0.7500000627307818  0.7499999777328183  0.7500001957941872  1.0000
  N   N1        1.0  9.108350786859222e-08  0.9999999489387454  2.6541418736402187e-07  1.0000
  Cl  Cl1       1.0  0.24757234315495844  0.24757224412872378  0.7524277091187556  1.0000
  Cl  Cl2       1.0  0.752427632713789  0.7524277569493815  0.2475722371351035  1.0000
  Cl  Cl3       1.0  0.7524276953203075  0.2475723281565999  0.2475721554660209  1.0000
  Cl  Cl4       1.0  0.24757223358510638  0.7524277082716042  0.7524276378466686  1.0000
  Cl  Cl5       1.0  0.24757221877550162  0.7524277430284309  0.2475721903034671  1.0000
  Cl  Cl6       1.0  0.752427705772126  0.2475722953636678  0.7524276074131941  1.0000
