data_image0
_chemical_formula_structural       Ir2NF6
_chemical_formula_sum              "Ir2 N1 F6"
_cell_length_a       4.18125783870678
_cell_length_b       4.181250814857276
_cell_length_c       4.175600578018093
_cell_angle_alpha    59.954956997974556
_cell_angle_beta     59.95490489103348
_cell_angle_gamma    60.000017411438755

_space_group_name_H-M_alt    "P 1"
_space_group_IT_number       1

loop_
  _space_group_symop_operation_xyz
  'x, y, z'

loop_
  _atom_site_type_symbol
  _atom_site_label
  _atom_site_symmetry_multiplicity
  _atom_site_fract_x
  _atom_site_fract_y
  _atom_site_fract_z
  _atom_site_occupancy
  Ir  Ir1       1.0  0.22408482802297505  0.22408066707760338  0.32774813648408774  1.0000
  Ir  Ir2       1.0  0.7168343757302723  0.7168356657667413  0.8494949909127648  1.0000
  N   N1        1.0  0.003760517794497534  0.003760123141567007  0.9887188415527572  1.0000
  F   F1        1.0  0.26725692365004156  0.2672574357490523  0.711175089357383  1.0000
  F   F2        1.0  0.7524271521289709  0.752426722492752  0.23350541602677632  1.0000
  F   F3        1.0  0.7524235167284459  0.26164231158382745  0.2335036667470834  1.0000
  F   F4        1.0  0.26725914946941576  0.7543103665029042  0.7111730469742429  1.0000
  F   F5        1.0  0.26164024663809693  0.752427893284107  0.23350599383640583  1.0000
  F   F6        1.0  0.7543156040340452  0.2672567385545154  0.7111687116182075  1.0000
