data_image0
_chemical_formula_structural       Ir2PI6
_chemical_formula_sum              "Ir2 P1 I6"
_cell_length_a       7.175211910145949
_cell_length_b       7.175211754864723
_cell_length_c       7.175212070709099
_cell_angle_alpha    60.00000019623007
_cell_angle_beta     60.00000175628173
_cell_angle_gamma    59.999999860418264

_space_group_name_H-M_alt    "P 1"
_space_group_IT_number       1

loop_
  _space_group_symop_operation_xyz
  'x, y, z'

loop_
  _atom_site_type_symbol
  _atom_site_label
  _atom_site_symmetry_multiplicity
  _atom_site_fract_x
  _atom_site_fract_y
  _atom_site_fract_z
  _atom_site_occupancy
  Ir  Ir1       1.0  0.24999976508932262  0.24999935529130593  0.25000039254841677  1.0000
  Ir  Ir2       1.0  0.7500009200959636  0.7500001773229847  0.7500004997154996  1.0000
  P   P1        1.0  0.999999971699349  0.9999999931723554  3.627276900629521e-09  1.0000
  I   I1        1.0  0.26007314682966715  0.26007340428154135  0.7399267422560217  1.0000
  I   I2        1.0  0.7399265684602271  0.7399268896150988  0.26007280766727003  1.0000
  I   I3        1.0  0.7399268709734779  0.2600733345430412  0.2600731828434554  1.0000
  I   I4        1.0  0.2600727622928162  0.7399268723011326  0.7399265268769668  1.0000
  I   I5        1.0  0.260073174332897  0.7399269565989144  0.260073338325233  1.0000
  I   I6        1.0  0.7399268131114548  0.2600730181053476  0.7399265166418003  1.0000
