data_image0
_chemical_formula_structural       Ir2PF6
_chemical_formula_sum              "Ir2 P1 F6"
_cell_length_a       4.649569908463075
_cell_length_b       4.649569918338631
_cell_length_c       4.6495698778553844
_cell_angle_alpha    59.99999980019895
_cell_angle_beta     59.99999984173781
_cell_angle_gamma    59.999999899107

_space_group_name_H-M_alt    "P 1"
_space_group_IT_number       1

loop_
  _space_group_symop_operation_xyz
  'x, y, z'

loop_
  _atom_site_type_symbol
  _atom_site_label
  _atom_site_symmetry_multiplicity
  _atom_site_fract_x
  _atom_site_fract_y
  _atom_site_fract_z
  _atom_site_occupancy
  Ir  Ir1       1.0  0.25000000655498633  0.24999999171881918  0.25000000591380506  1.0000
  Ir  Ir2       1.0  0.7500000094298387  0.7499999909610789  0.7499999999015085  1.0000
  P   P1        1.0  1.650616211447442e-08  2.634103483144035e-09  1.1937232906784675e-08  1.0000
  F   F1        1.0  0.24709470625268862  0.24709471039653744  0.7529052883727407  1.0000
  F   F2        1.0  0.7529052753898365  0.7529052933561894  0.2470947111728887  1.0000
  F   F3        1.0  0.7529052804977638  0.24709471401399194  0.24709471624876098  1.0000
  F   F4        1.0  0.2470947234958713  0.7529052897387348  0.75290528072426  1.0000
  F   F5        1.0  0.24709469476746815  0.7529052997195109  0.24709470938156883  1.0000
  F   F6        1.0  0.752905285269635  0.2470947013991123  0.7529052729271944  1.0000
