data_image0
_chemical_formula_structural       Ir2PCl6
_chemical_formula_sum              "Ir2 P1 Cl6"
_cell_length_a       6.4734858565545945
_cell_length_b       6.473486095982439
_cell_length_c       6.473485922120935
_cell_angle_alpha    60.00000016014372
_cell_angle_beta     59.99999815143106
_cell_angle_gamma    59.999997475020265

_space_group_name_H-M_alt    "P 1"
_space_group_IT_number       1

loop_
  _space_group_symop_operation_xyz
  'x, y, z'

loop_
  _atom_site_type_symbol
  _atom_site_label
  _atom_site_symmetry_multiplicity
  _atom_site_fract_x
  _atom_site_fract_y
  _atom_site_fract_z
  _atom_site_occupancy
  Ir  Ir1       1.0  0.25000003128096987  0.2499999917984297  0.24999999178466445  1.0000
  Ir  Ir2       1.0  0.7499999735935827  0.7499999829630536  0.7500000934852862  1.0000
  P   P1        1.0  0.9999999785765732  3.216298447704084e-08  1.625689989869574e-08  1.0000
  Cl  Cl1       1.0  0.24498305158475267  0.24498302685204454  0.7550169732957254  1.0000
  Cl  Cl2       1.0  0.7550169360830631  0.7550169460174992  0.2449830597330531  1.0000
  Cl  Cl3       1.0  0.7550169692492213  0.24498306554754465  0.24498299691310818  1.0000
  Cl  Cl4       1.0  0.2449830345618792  0.755016933809162  0.7550169159356294  1.0000
  Cl  Cl5       1.0  0.24498306425078453  0.7550169483466488  0.24498302185283863  1.0000
  Cl  Cl6       1.0  0.7550169478297957  0.2449830850649814  0.755016940892784  1.0000
