data_image0
_chemical_formula_structural       Ir2RuBr6
_chemical_formula_sum              "Ir2 Ru1 Br6"
_cell_length_a       6.894472519522988
_cell_length_b       6.894472327176883
_cell_length_c       6.894472392481447
_cell_angle_alpha    59.99999971518641
_cell_angle_beta     59.999999228153925
_cell_angle_gamma    59.999998897592874

_space_group_name_H-M_alt    "P 1"
_space_group_IT_number       1

loop_
  _space_group_symop_operation_xyz
  'x, y, z'

loop_
  _atom_site_type_symbol
  _atom_site_label
  _atom_site_symmetry_multiplicity
  _atom_site_fract_x
  _atom_site_fract_y
  _atom_site_fract_z
  _atom_site_occupancy
  Ir  Ir1       1.0  0.25000017767806376  0.24999998741251814  0.24999996330831195  1.0000
  Ir  Ir2       1.0  0.7499998948259011  0.7499999675668033  0.7500000482667961  1.0000
  Ru  Ru1       1.0  0.9999999995268878  0.999999966248102  1.1310755891328624e-08  1.0000
  Br  Br1       1.0  0.25078552934875165  0.2507855318564948  0.7492144824281515  1.0000
  Br  Br2       1.0  0.7492144360159875  0.74921450839078  0.2507855415330312  1.0000
  Br  Br3       1.0  0.7492144191332909  0.2507855301612931  0.250785505629773  1.0000
  Br  Br4       1.0  0.2507855404465207  0.749214462122758  0.7492145031428034  1.0000
  Br  Br5       1.0  0.2507855560874988  0.7492144611362691  0.2507854726248259  1.0000
  Br  Br6       1.0  0.7492144477981179  0.25078557911100535  0.7492144784097373  1.0000
