data_image0
_chemical_formula_structural       Ir2RhI6
_chemical_formula_sum              "Ir2 Rh1 I6"
_cell_length_a       7.148613283357963
_cell_length_b       7.148613346507713
_cell_length_c       7.148613297313226
_cell_angle_alpha    60.00000032948227
_cell_angle_beta     59.9999996292977
_cell_angle_gamma    59.999999935787265

_space_group_name_H-M_alt    "P 1"
_space_group_IT_number       1

loop_
  _space_group_symop_operation_xyz
  'x, y, z'

loop_
  _atom_site_type_symbol
  _atom_site_label
  _atom_site_symmetry_multiplicity
  _atom_site_fract_x
  _atom_site_fract_y
  _atom_site_fract_z
  _atom_site_occupancy
  Ir  Ir1       1.0  0.2499998065553449  0.2500002564064552  0.2499999613266845  1.0000
  Ir  Ir2       1.0  0.7500002202094993  0.7499997292692384  0.7500000624360358  1.0000
  Rh  Rh1       1.0  0.9999999850873672  0.9999999914336892  0.9999999963518721  1.0000
  I   I1        1.0  0.2552530064993826  0.25525315184380887  0.7447469110180556  1.0000
  I   I2        1.0  0.7447469895583482  0.7447468629573415  0.2552530715693122  1.0000
  I   I3        1.0  0.7447469677684753  0.2552531546795253  0.2552529891985873  1.0000
  I   I4        1.0  0.2552530124136028  0.7447468738277223  0.7447470014679216  1.0000
  I   I5        1.0  0.2552530500327717  0.7447468624168152  0.2552531250833193  1.0000
  I   I6        1.0  0.7447469650499979  0.25525311469256773  0.7447468780283945  1.0000
