data_image0
_chemical_formula_structural       Ir2RhBr6
_chemical_formula_sum              "Ir2 Rh1 Br6"
_cell_length_a       6.824486325216578
_cell_length_b       6.824486196488129
_cell_length_c       6.824486178828268
_cell_angle_alpha    59.99999946571234
_cell_angle_beta     59.99999940573792
_cell_angle_gamma    59.999999793348735

_space_group_name_H-M_alt    "P 1"
_space_group_IT_number       1

loop_
  _space_group_symop_operation_xyz
  'x, y, z'

loop_
  _atom_site_type_symbol
  _atom_site_label
  _atom_site_symmetry_multiplicity
  _atom_site_fract_x
  _atom_site_fract_y
  _atom_site_fract_z
  _atom_site_occupancy
  Ir  Ir1       1.0  0.24999997754569264  0.24999986509499536  0.25000013813927224  1.0000
  Ir  Ir2       1.0  0.7500001290696389  0.750000178540744  0.7499996831560076  1.0000
  Rh  Rh1       1.0  3.1787192172161325e-09  1.0767798631305768e-08  0.999999972512376  1.0000
  Br  Br1       1.0  0.2507253484178791  0.2507253355042747  0.7492746428429398  1.0000
  Br  Br2       1.0  0.7492746094220252  0.7492746722388015  0.25072541878287663  1.0000
  Br  Br3       1.0  0.7492746310130441  0.2507252812644743  0.25072545927666384  1.0000
  Br  Br4       1.0  0.25072533749202186  0.7492746995591055  0.7492746031497611  1.0000
  Br  Br5       1.0  0.2507252942674744  0.7492746306155367  0.250725449689642  1.0000
  Br  Br6       1.0  0.7492746491655576  0.2507253340563453  0.7492746392098962  1.0000
