data_image0
_chemical_formula_structural       Ir2RuI6
_chemical_formula_sum              "Ir2 Ru1 I6"
_cell_length_a       7.227667513546379
_cell_length_b       7.227667463942286
_cell_length_c       7.227667415805077
_cell_angle_alpha    59.99999994358286
_cell_angle_beta     60.00000001689463
_cell_angle_gamma    60.00000076045829

_space_group_name_H-M_alt    "P 1"
_space_group_IT_number       1

loop_
  _space_group_symop_operation_xyz
  'x, y, z'

loop_
  _atom_site_type_symbol
  _atom_site_label
  _atom_site_symmetry_multiplicity
  _atom_site_fract_x
  _atom_site_fract_y
  _atom_site_fract_z
  _atom_site_occupancy
  Ir  Ir1       1.0  0.25000006820109305  0.2500001634729136  0.24999983054131852  1.0000
  Ir  Ir2       1.0  0.7499999059886323  0.7499999244480582  0.7500002130832207  1.0000
  Ru  Ru1       1.0  2.441547619254686e-08  3.219593707048858e-08  0.9999999799957267  1.0000
  I   I1        1.0  0.255448177409042  0.2554481829738618  0.744551849462286  1.0000
  I   I2        1.0  0.744551852489491  0.7445517761633634  0.25544812416466034  1.0000
  I   I3        1.0  0.7445517956396203  0.2554482289984408  0.255448137756674  1.0000
  I   I4        1.0  0.25544817824559574  0.744551735222353  0.744551886239447  1.0000
  I   I5        1.0  0.25544823479399625  0.744551773240673  0.2554481383251361  1.0000
  I   I6        1.0  0.7445517621195346  0.2554481842020289  0.7445518429565673  1.0000
