data_image0
_chemical_formula_structural       Ir2RuCl6
_chemical_formula_sum              "Ir2 Ru1 Cl6"
_cell_length_a       6.559306821809053
_cell_length_b       6.559306618769234
_cell_length_c       6.559306978202024
_cell_angle_alpha    59.99999704891068
_cell_angle_beta     59.99999872252271
_cell_angle_gamma    59.999997717397974

_space_group_name_H-M_alt    "P 1"
_space_group_IT_number       1

loop_
  _space_group_symop_operation_xyz
  'x, y, z'

loop_
  _atom_site_type_symbol
  _atom_site_label
  _atom_site_symmetry_multiplicity
  _atom_site_fract_x
  _atom_site_fract_y
  _atom_site_fract_z
  _atom_site_occupancy
  Ir  Ir1       1.0  0.24999992697003634  0.2500000393051052  0.2500000444161838  1.0000
  Ir  Ir2       1.0  0.7500000435850752  0.7500000058841209  0.7500001737925648  1.0000
  Ru  Ru1       1.0  6.846350769576863e-09  0.9999999794609481  0.9999999794044272  1.0000
  Cl  Cl1       1.0  0.24964403547006891  0.24964405839315107  0.7503559411252434  1.0000
  Cl  Cl2       1.0  0.7503559447413349  0.7503559419836012  0.2496439546866558  1.0000
  Cl  Cl3       1.0  0.7503559654464926  0.2496440252187668  0.24964403780567887  1.0000
  Cl  Cl4       1.0  0.2496439963249401  0.7503559882282907  0.7503559384431697  1.0000
  Cl  Cl5       1.0  0.24964407267915414  0.750355930281  0.24964400938071898  1.0000
  Cl  Cl6       1.0  0.7503559970289492  0.24964402341608743  0.7503559290538176  1.0000
