data_image0
_chemical_formula_structural       Ir2RhF6
_chemical_formula_sum              "Ir2 Rh1 F6"
_cell_length_a       5.361159716508341
_cell_length_b       5.36116042241002
_cell_length_c       5.361159526971109
_cell_angle_alpha    59.999999563312485
_cell_angle_beta     60.000000289979624
_cell_angle_gamma    60.000000730058424

_space_group_name_H-M_alt    "P 1"
_space_group_IT_number       1

loop_
  _space_group_symop_operation_xyz
  'x, y, z'

loop_
  _atom_site_type_symbol
  _atom_site_label
  _atom_site_symmetry_multiplicity
  _atom_site_fract_x
  _atom_site_fract_y
  _atom_site_fract_z
  _atom_site_occupancy
  Ir  Ir1       1.0  0.25000028307929056  0.2500000406445539  0.2499997499514442  1.0000
  Ir  Ir2       1.0  0.7500000954660062  0.7500000054253161  0.7500000020900305  1.0000
  Rh  Rh1       1.0  0.9999999896228237  0.9999999794397045  3.0390881887884945e-08  1.0000
  F   F1        1.0  0.2614505328581671  0.26145061210418846  0.7385493045151867  1.0000
  F   F2        1.0  0.7385492930459809  0.7385494248277814  0.26145071908947587  1.0000
  F   F3        1.0  0.7385494090495289  0.2614507210399337  0.2614505838289463  1.0000
  F   F4        1.0  0.26145047542229183  0.7385492564956245  0.7385495036092043  1.0000
  F   F5        1.0  0.2614507045900379  0.7385492665940214  0.26145058340283706  1.0000
  F   F6        1.0  0.7385491724423391  0.26145064926065664  0.7385494845027027  1.0000
