data_image0
_chemical_formula_structural       Ir2RhCl6
_chemical_formula_sum              "Ir2 Rh1 Cl6"
_cell_length_a       6.487120796369284
_cell_length_b       6.487120300428732
_cell_length_c       6.487120494999073
_cell_angle_alpha    59.999998972935344
_cell_angle_beta     59.99999889024122
_cell_angle_gamma    59.999999327676825

_space_group_name_H-M_alt    "P 1"
_space_group_IT_number       1

loop_
  _space_group_symop_operation_xyz
  'x, y, z'

loop_
  _atom_site_type_symbol
  _atom_site_label
  _atom_site_symmetry_multiplicity
  _atom_site_fract_x
  _atom_site_fract_y
  _atom_site_fract_z
  _atom_site_occupancy
  Ir  Ir1       1.0  0.24999993592725686  0.24999999211445728  0.25000014999510645  1.0000
  Ir  Ir2       1.0  0.7500001428855433  0.7500000764054566  0.7499995787996021  1.0000
  Rh  Rh1       1.0  6.293213206904409e-09  0.999999981120361  0.9999999893365369  1.0000
  Cl  Cl1       1.0  0.25094431528851313  0.2509442752876143  0.7490556603180654  1.0000
  Cl  Cl2       1.0  0.7490557229640268  0.7490556799544681  0.25094442441008497  1.0000
  Cl  Cl3       1.0  0.7490557350892711  0.2509442273203272  0.25094435320923375  1.0000
  Cl  Cl4       1.0  0.2509442423197095  0.7490557449134293  0.7490557580694082  1.0000
  Cl  Cl5       1.0  0.2509442025769828  0.7490556797142095  0.25094436610351384  1.0000
  Cl  Cl6       1.0  0.749055717961791  0.2509443189510403  0.7490557141490063  1.0000
