data_image0
_chemical_formula_structural       Ir2SF6
_chemical_formula_sum              "Ir2 S1 F6"
_cell_length_a       4.717348921344653
_cell_length_b       4.717349043241696
_cell_length_c       4.717348967440934
_cell_angle_alpha    59.99999964194343
_cell_angle_beta     59.999999075090486
_cell_angle_gamma    59.999999883545854

_space_group_name_H-M_alt    "P 1"
_space_group_IT_number       1

loop_
  _space_group_symop_operation_xyz
  'x, y, z'

loop_
  _atom_site_type_symbol
  _atom_site_label
  _atom_site_symmetry_multiplicity
  _atom_site_fract_x
  _atom_site_fract_y
  _atom_site_fract_z
  _atom_site_occupancy
  Ir  Ir1       1.0  0.2500000288649748  0.25000001866393307  0.24999997050947678  1.0000
  Ir  Ir2       1.0  0.7499999911826762  0.7499999677190735  0.7500000860444713  1.0000
  S   S1        1.0  1.1793424635245661e-08  2.3366309838034673e-08  0.9999999548622815  1.0000
  F   F1        1.0  0.24576362757117104  0.24576365869239045  0.7542363482813826  1.0000
  F   F2        1.0  0.7542363096721257  0.75423634846067  0.24576366085583223  1.0000
  F   F3        1.0  0.754236350906263  0.24576365427143784  0.24576363506194754  1.0000
  F   F4        1.0  0.24576365430626013  0.754236339900339  0.7542363656598082  1.0000
  F   F5        1.0  0.2457636737679744  0.7542363568533859  0.24576361487415146  1.0000
  F   F6        1.0  0.7542363517436798  0.2457636425109044  0.7542363646224428  1.0000
