data_image0
_chemical_formula_structural       Ir2SBr6
_chemical_formula_sum              "Ir2 S1 Br6"
_cell_length_a       6.789942408517426
_cell_length_b       6.789942362718485
_cell_length_c       6.789942507906698
_cell_angle_alpha    60.00000035040142
_cell_angle_beta     60.00000055280087
_cell_angle_gamma    60.0000013827357

_space_group_name_H-M_alt    "P 1"
_space_group_IT_number       1

loop_
  _space_group_symop_operation_xyz
  'x, y, z'

loop_
  _atom_site_type_symbol
  _atom_site_label
  _atom_site_symmetry_multiplicity
  _atom_site_fract_x
  _atom_site_fract_y
  _atom_site_fract_z
  _atom_site_occupancy
  Ir  Ir1       1.0  0.25000002807036087  0.24999994604802067  0.2499999500418518  1.0000
  Ir  Ir2       1.0  0.7500001018507447  0.7499999535849132  0.7499999897726128  1.0000
  S   S1        1.0  0.9999999615905146  0.9999999927849467  6.110419848908845e-08  1.0000
  Br  Br1       1.0  0.25374327135249425  0.25374344074029326  0.7462566571155335  1.0000
  Br  Br2       1.0  0.7462566571721568  0.74625667534423  0.25374328989902883  1.0000
  Br  Br3       1.0  0.7462566374019773  0.2537433409846488  0.2537433889758755  1.0000
  Br  Br4       1.0  0.25374335543919596  0.7462566127611818  0.7462566674331987  1.0000
  Br  Br5       1.0  0.25374334747681565  0.7462566773285263  0.25374337026196797  1.0000
  Br  Br6       1.0  0.7462566454144195  0.2537433629979408  0.7462566192674934  1.0000
