data_image0
_chemical_formula_structural       Ir2SI6
_chemical_formula_sum              "Ir2 S1 I6"
_cell_length_a       7.179284278772655
_cell_length_b       7.179283470329923
_cell_length_c       7.179284005807265
_cell_angle_alpha    59.99999652724477
_cell_angle_beta     60.00000099516599
_cell_angle_gamma    59.99999643637614

_space_group_name_H-M_alt    "P 1"
_space_group_IT_number       1

loop_
  _space_group_symop_operation_xyz
  'x, y, z'

loop_
  _atom_site_type_symbol
  _atom_site_label
  _atom_site_symmetry_multiplicity
  _atom_site_fract_x
  _atom_site_fract_y
  _atom_site_fract_z
  _atom_site_occupancy
  Ir  Ir1       1.0  0.2500009521381626  0.24999922489673126  0.2499996732828238  1.0000
  Ir  Ir2       1.0  0.7499993391093841  0.7500010661051506  0.7500002054681536  1.0000
  S   S1        1.0  0.9999999007989675  8.529715838903408e-08  0.9999998899486255  1.0000
  I   I1        1.0  0.2634682667789979  0.263467482115316  0.7365322935453981  1.0000
  I   I2        1.0  0.7365319838774779  0.7365323226927737  0.26346759369794415  1.0000
  I   I3        1.0  0.7365318254798003  0.2634676885894963  0.26346819613456657  1.0000
  I   I4        1.0  0.26346779964278694  0.736532390875439  0.7365319487281933  1.0000
  I   I5        1.0  0.2634681205920449  0.7365321603779463  0.2634678406719806  1.0000
  I   I6        1.0  0.7365317999092722  0.26346758301618955  0.7365323649308165  1.0000
