data_image0
_chemical_formula_structural       K2AsBr6
_chemical_formula_sum              "K2 As1 Br6"
_cell_length_a       7.580474669537764
_cell_length_b       7.580475062397175
_cell_length_c       7.580474608134853
_cell_angle_alpha    59.99999954443308
_cell_angle_beta     60.00000504014332
_cell_angle_gamma    59.999999939034424

_space_group_name_H-M_alt    "P 1"
_space_group_IT_number       1

loop_
  _space_group_symop_operation_xyz
  'x, y, z'

loop_
  _atom_site_type_symbol
  _atom_site_label
  _atom_site_symmetry_multiplicity
  _atom_site_fract_x
  _atom_site_fract_y
  _atom_site_fract_z
  _atom_site_occupancy
  K   K1        1.0  0.2500000200206473  0.24999999289055236  0.25000000401411876  1.0000
  K   K2        1.0  0.7499999921305104  0.7499999996752036  0.7499999880158659  1.0000
  As  As1       1.0  0.9999999738459904  0.9999998271247044  0.9999996509939255  1.0000
  Br  Br1       1.0  0.24471987410139812  0.24471988297461078  0.7552802249636797  1.0000
  Br  Br2       1.0  0.7552802006087986  0.7552802372280574  0.24471973133136674  1.0000
  Br  Br3       1.0  0.7552800681750084  0.2447199083946532  0.2447199565921994  1.0000
  Br  Br4       1.0  0.24471979714160005  0.7552801956514408  0.7552802457149613  1.0000
  Br  Br5       1.0  0.24471986981399002  0.7552802512815328  0.24471984199782296  1.0000
  Br  Br6       1.0  0.7552802158230847  0.24471972189632432  0.7552803775846284  1.0000
