data_image0
_chemical_formula_structural       K2AsCl6
_chemical_formula_sum              "K2 As1 Cl6"
_cell_length_a       7.158162041788207
_cell_length_b       7.15816212230699
_cell_length_c       7.158162191080022
_cell_angle_alpha    59.99999625874983
_cell_angle_beta     59.999999839977725
_cell_angle_gamma    60.00000059020896

_space_group_name_H-M_alt    "P 1"
_space_group_IT_number       1

loop_
  _space_group_symop_operation_xyz
  'x, y, z'

loop_
  _atom_site_type_symbol
  _atom_site_label
  _atom_site_symmetry_multiplicity
  _atom_site_fract_x
  _atom_site_fract_y
  _atom_site_fract_z
  _atom_site_occupancy
  K   K1        1.0  0.25000000642223275  0.25000001216929846  0.24999999144834928  1.0000
  K   K2        1.0  0.7499999972700713  0.7500000057103143  0.7499999686110003  1.0000
  As  As1       1.0  8.142224463092722e-08  0.9999999880231685  0.9999998744718636  1.0000
  Cl  Cl1       1.0  0.24112259763553762  0.24112263989024538  0.758877417723582  1.0000
  Cl  Cl2       1.0  0.7588774168286774  0.7588772924405263  0.2411226523685795  1.0000
  Cl  Cl3       1.0  0.7588772811940432  0.2411227563562385  0.24112269337978912  1.0000
  Cl  Cl4       1.0  0.24112268034453854  0.758877300875832  0.758877437117993  1.0000
  Cl  Cl5       1.0  0.24112259867841088  0.7588773682024078  0.24112256795674944  1.0000
  Cl  Cl6       1.0  0.7588773599442639  0.24112264454427476  0.7588773892637473  1.0000
