data_image0
_chemical_formula_structural       K2AsI6
_chemical_formula_sum              "K2 As1 I6"
_cell_length_a       8.179574972844609
_cell_length_b       8.179575205323228
_cell_length_c       8.179575224949588
_cell_angle_alpha    60.00000012209215
_cell_angle_beta     60.00000134752145
_cell_angle_gamma    60.00000216130499

_space_group_name_H-M_alt    "P 1"
_space_group_IT_number       1

loop_
  _space_group_symop_operation_xyz
  'x, y, z'

loop_
  _atom_site_type_symbol
  _atom_site_label
  _atom_site_symmetry_multiplicity
  _atom_site_fract_x
  _atom_site_fract_y
  _atom_site_fract_z
  _atom_site_occupancy
  K   K1        1.0  0.2500001075656017  0.25000001241851033  0.2499998870981342  1.0000
  K   K2        1.0  0.7499998830356461  0.7499999713734046  0.7500001194556759  1.0000
  As  As1       1.0  0.9999999719081312  4.192498321631394e-08  7.010455685124222e-08  1.0000
  I   I1        1.0  0.24601163381814312  0.24601172421017398  0.7539882982599851  1.0000
  I   I2        1.0  0.7539883562546138  0.7539883119879711  0.24601166401659463  1.0000
  I   I3        1.0  0.7539884279094738  0.24601155282019677  0.24601152191752776  1.0000
  I   I4        1.0  0.24601164950447835  0.7539883695815641  0.7539884462513038  1.0000
  I   I5        1.0  0.24601159646138523  0.7539884118954113  0.24601152424123945  1.0000
  I   I6        1.0  0.753988374689384  0.24601160483756218  0.7539884621191493  1.0000
