data_image0
_chemical_formula_structural       K2AsF6
_chemical_formula_sum              "K2 As1 F6"
_cell_length_a       5.942296557748723
_cell_length_b       5.942296561394871
_cell_length_c       5.942296609360612
_cell_angle_alpha    60.00000010199073
_cell_angle_beta     60.0000007555865
_cell_angle_gamma    60.000000219897984

_space_group_name_H-M_alt    "P 1"
_space_group_IT_number       1

loop_
  _space_group_symop_operation_xyz
  'x, y, z'

loop_
  _atom_site_type_symbol
  _atom_site_label
  _atom_site_symmetry_multiplicity
  _atom_site_fract_x
  _atom_site_fract_y
  _atom_site_fract_z
  _atom_site_occupancy
  K   K1        1.0  0.2499999827365968  0.2500000668275618  0.25000001916919296  1.0000
  K   K2        1.0  0.7500000480231438  0.7499999593382922  0.7500000524448022  1.0000
  As  As1       1.0  0.9999999884385161  2.8854884660062754e-08  0.9999999879875976  1.0000
  F   F1        1.0  0.22931288730263505  0.22931287478405096  0.7706871417053492  1.0000
  F   F2        1.0  0.7706870996865276  0.7706871369543608  0.22931290515642241  1.0000
  F   F3        1.0  0.7706870795241083  0.2293128893473401  0.22931283092741653  1.0000
  F   F4        1.0  0.22931286644255983  0.7706870997193764  0.77068711820192  1.0000
  F   F5        1.0  0.2293128677648661  0.7706871078324476  0.2293128062959288  1.0000
  F   F6        1.0  0.7706871599538382  0.2293128400130051  0.770687124250873  1.0000
