data_image0
_chemical_formula_structural       K2BiF6
_chemical_formula_sum              "K2 Bi1 F6"
_cell_length_a       6.432841416515029
_cell_length_b       6.432841582428927
_cell_length_c       6.432841801913983
_cell_angle_alpha    59.999997982687056
_cell_angle_beta     59.999998390762386
_cell_angle_gamma    60.000000187957816

_space_group_name_H-M_alt    "P 1"
_space_group_IT_number       1

loop_
  _space_group_symop_operation_xyz
  'x, y, z'

loop_
  _atom_site_type_symbol
  _atom_site_label
  _atom_site_symmetry_multiplicity
  _atom_site_fract_x
  _atom_site_fract_y
  _atom_site_fract_z
  _atom_site_occupancy
  K   K1        1.0  0.24999990253023124  0.24999992267476756  0.2500000411925688  1.0000
  K   K2        1.0  0.7499998911667523  0.7500000250500007  0.7500000991467142  1.0000
  Bi  Bi1       1.0  0.9999999565557756  8.186744405926712e-08  0.9999999838974354  1.0000
  F   F1        1.0  0.23762382381590377  0.2376237676807729  0.7623761890366888  1.0000
  F   F2        1.0  0.7623763002528624  0.762376206698516  0.23762377745301186  1.0000
  F   F3        1.0  0.7623764071645046  0.2376237387916233  0.23762370352028192  1.0000
  F   F4        1.0  0.23762369309624692  0.762376323166791  0.7623763476730818  1.0000
  F   F5        1.0  0.23762376211567554  0.7623762663634681  0.23762372150283045  1.0000
  F   F6        1.0  0.7623762129113345  0.2376238051144175  0.7623761714689825  1.0000
