data_image0
_chemical_formula_structural       K2BiBr6
_chemical_formula_sum              "K2 Bi1 Br6"
_cell_length_a       7.824700387715436
_cell_length_b       7.824699859446022
_cell_length_c       7.824700178507894
_cell_angle_alpha    59.99999981031837
_cell_angle_beta     59.99999960096114
_cell_angle_gamma    60.00000189711657

_space_group_name_H-M_alt    "P 1"
_space_group_IT_number       1

loop_
  _space_group_symop_operation_xyz
  'x, y, z'

loop_
  _atom_site_type_symbol
  _atom_site_label
  _atom_site_symmetry_multiplicity
  _atom_site_fract_x
  _atom_site_fract_y
  _atom_site_fract_z
  _atom_site_occupancy
  K   K1        1.0  0.25000003362340584  0.25000000178461523  0.2499999974925373  1.0000
  K   K2        1.0  0.7499999846623866  0.7499999599621933  0.7499999940410915  1.0000
  Bi  Bi1       1.0  0.999999637869985  0.9999999530431105  1.764273620706853e-07  1.0000
  Br  Br1       1.0  0.2561017820244919  0.2561018332027083  0.7438981642204184  1.0000
  Br  Br2       1.0  0.7438983240111021  0.7438982991540855  0.25610166490520736  1.0000
  Br  Br3       1.0  0.7438982275669983  0.256101804111325  0.2561017728714697  1.0000
  Br  Br4       1.0  0.25610186450440064  0.7438981576354865  0.743898193271392  1.0000
  Br  Br5       1.0  0.2561019065622045  0.7438981300769018  0.2561019071964575  1.0000
  Br  Br6       1.0  0.7438982535556258  0.2561018488874353  0.7438981275007939  1.0000
