data_image0
_chemical_formula_structural       K2BiI6
_chemical_formula_sum              "K2 Bi1 I6"
_cell_length_a       8.429118909835415
_cell_length_b       8.429119414177686
_cell_length_c       8.429119205100578
_cell_angle_alpha    59.99999844563352
_cell_angle_beta     60.00000250593839
_cell_angle_gamma    60.0000009461951

_space_group_name_H-M_alt    "P 1"
_space_group_IT_number       1

loop_
  _space_group_symop_operation_xyz
  'x, y, z'

loop_
  _atom_site_type_symbol
  _atom_site_label
  _atom_site_symmetry_multiplicity
  _atom_site_fract_x
  _atom_site_fract_y
  _atom_site_fract_z
  _atom_site_occupancy
  K   K1        1.0  0.25000008176378663  0.24999989992022933  0.24999984164238703  1.0000
  K   K2        1.0  0.7499999188764095  0.7500000789917508  0.7500001676281457  1.0000
  Bi  Bi1       1.0  1.6896466699989313e-07  1.6709416496633962e-07  0.9999996990978652  1.0000
  I   I1        1.0  0.2573182574997412  0.2573181896201629  0.7426817878341202  1.0000
  I   I2        1.0  0.7426816501277458  0.7426816861293344  0.25731836223309645  1.0000
  I   I3        1.0  0.7426817859612017  0.2573181533047576  0.25731829329880707  1.0000
  I   I4        1.0  0.2573180975731657  0.7426818604790447  0.7426818009841772  1.0000
  I   I5        1.0  0.2573181735830028  0.7426818047117906  0.2573182884076894  1.0000
  I   I6        1.0  0.7426818680020969  0.2573181582172681  0.742681754650033  1.0000
