data_image0
_chemical_formula_structural       K2GaCl6
_chemical_formula_sum              "K2 Ga1 Cl6"
_cell_length_a       7.168969396712863
_cell_length_b       7.16896961963637
_cell_length_c       7.168969634991646
_cell_angle_alpha    60.00000634375423
_cell_angle_beta     60.00000031836562
_cell_angle_gamma    60.00000342142685

_space_group_name_H-M_alt    "P 1"
_space_group_IT_number       1

loop_
  _space_group_symop_operation_xyz
  'x, y, z'

loop_
  _atom_site_type_symbol
  _atom_site_label
  _atom_site_symmetry_multiplicity
  _atom_site_fract_x
  _atom_site_fract_y
  _atom_site_fract_z
  _atom_site_occupancy
  K   K1        1.0  0.2500000573565963  0.2500000730320475  0.24999987044410873  1.0000
  K   K2        1.0  0.7499998791359215  0.7500001798030199  0.749999962967595  1.0000
  Ga  Ga1       1.0  1.0836610603288994e-08  0.99999993849771  1.7458720040266584e-07  1.0000
  Cl  Cl1       1.0  0.23373632878018763  0.23373610710191395  0.7662636850012512  1.0000
  Cl  Cl2       1.0  0.7662637819995031  0.7662637340094242  0.23373630479102883  1.0000
  Cl  Cl3       1.0  0.7662637114671516  0.23373603428742182  0.2337363120859302  1.0000
  Cl  Cl4       1.0  0.23373629045261815  0.7662637999903289  0.7662637495021085  1.0000
  Cl  Cl5       1.0  0.23373627688823534  0.7662637743697338  0.2337362366349812  1.0000
  Cl  Cl6       1.0  0.7662637074394051  0.23373633495996757  0.7662636599557445  1.0000
