data_image0
_chemical_formula_structural       K2GaBr6
_chemical_formula_sum              "K2 Ga1 Br6"
_cell_length_a       7.5133178285614
_cell_length_b       7.513317563973823
_cell_length_c       7.513318056295184
_cell_angle_alpha    60.00000069056862
_cell_angle_beta     59.99999700124736
_cell_angle_gamma    60.00000039175474

_space_group_name_H-M_alt    "P 1"
_space_group_IT_number       1

loop_
  _space_group_symop_operation_xyz
  'x, y, z'

loop_
  _atom_site_type_symbol
  _atom_site_label
  _atom_site_symmetry_multiplicity
  _atom_site_fract_x
  _atom_site_fract_y
  _atom_site_fract_z
  _atom_site_occupancy
  K   K1        1.0  0.24999992732062618  0.2499999981989669  0.2500000577491351  1.0000
  K   K2        1.0  0.7500000355457136  0.749999994596902  0.749999997209598  1.0000
  Ga  Ga1       1.0  1.1035039889332198e-08  1.4670887629596564e-07  0.9999999357687135  1.0000
  Br  Br1       1.0  0.24014901761101376  0.2401490240108554  0.7598509373247812  1.0000
  Br  Br2       1.0  0.759850958125659  0.759850911731558  0.24014903457889156  1.0000
  Br  Br3       1.0  0.75985093382501  0.24014911156686308  0.24014903411025443  1.0000
  Br  Br4       1.0  0.24014907828246249  0.7598509317620628  0.7598509470039263  1.0000
  Br  Br5       1.0  0.24014917934690228  0.759850793636213  0.24014920650575342  1.0000
  Br  Br6       1.0  0.7598508624912454  0.2401491143945292  0.759850859335455  1.0000
