data_image0
_chemical_formula_structural       K2GaI6
_chemical_formula_sum              "K2 Ga1 I6"
_cell_length_a       8.091707362776715
_cell_length_b       8.0917080533035
_cell_length_c       8.09170824701423
_cell_angle_alpha    59.999996009768594
_cell_angle_beta     60.00000087678112
_cell_angle_gamma    60.0000040769548

_space_group_name_H-M_alt    "P 1"
_space_group_IT_number       1

loop_
  _space_group_symop_operation_xyz
  'x, y, z'

loop_
  _atom_site_type_symbol
  _atom_site_label
  _atom_site_symmetry_multiplicity
  _atom_site_fract_x
  _atom_site_fract_y
  _atom_site_fract_z
  _atom_site_occupancy
  K   K1        1.0  0.2499999461619482  0.24999987279643202  0.25000011971926933  1.0000
  K   K2        1.0  0.7500000057706289  0.7500000754905248  0.749999944390658  1.0000
  Ga  Ga1       1.0  1.0238412899785214e-07  4.3893833455957973e-08  0.9999998712485366  1.0000
  I   I1        1.0  0.24476285697895317  0.24476295232843243  0.7552370684476696  1.0000
  I   I2        1.0  0.7552370681717002  0.7552370035264232  0.24476301762759894  1.0000
  I   I3        1.0  0.7552369355217002  0.24476294965897968  0.24476300308279472  1.0000
  I   I4        1.0  0.24476300427253744  0.7552370864156266  0.7552370318533062  1.0000
  I   I5        1.0  0.24476303717720668  0.7552370939114842  0.24476282080166595  1.0000
  I   I6        1.0  0.7552370546450605  0.24476292702733  0.7552371098491648  1.0000
