data_image0
_chemical_formula_structural       K2GaF6
_chemical_formula_sum              "K2 Ga1 F6"
_cell_length_a       6.194962857868275
_cell_length_b       6.194962093423386
_cell_length_c       6.1949615882683995
_cell_angle_alpha    59.9999879184328
_cell_angle_beta     60.0000038948317
_cell_angle_gamma    59.99999163338488

_space_group_name_H-M_alt    "P 1"
_space_group_IT_number       1

loop_
  _space_group_symop_operation_xyz
  'x, y, z'

loop_
  _atom_site_type_symbol
  _atom_site_label
  _atom_site_symmetry_multiplicity
  _atom_site_fract_x
  _atom_site_fract_y
  _atom_site_fract_z
  _atom_site_occupancy
  K   K1        1.0  0.249999985028539  0.2499999232446928  0.24999991174168051  1.0000
  K   K2        1.0  0.7500000364718452  0.7500000959393113  0.7499998462012004  1.0000
  Ga  Ga1       1.0  0.9999997808083813  2.5701112354966745e-08  0.9999995366126456  1.0000
  F   F1        1.0  0.21912065576708947  0.21912042084715025  0.7808795053612209  1.0000
  F   F2        1.0  0.7808794344760908  0.7808794144756739  0.21912043604964215  1.0000
  F   F3        1.0  0.780879284258899  0.21912094326109485  0.21912094929269124  1.0000
  F   F4        1.0  0.21912036794628534  0.7808796749543047  0.7808795121890447  1.0000
  F   F5        1.0  0.21912062000382015  0.7808794822129435  0.21912069025849898  1.0000
  F   F6        1.0  0.7808794964669202  0.21912031356979905  0.7808795580526209  1.0000
