data_image0
_chemical_formula_structural       K2NCl6
_chemical_formula_sum              "K2 N1 Cl6"
_cell_length_a       7.077941476199411
_cell_length_b       7.07793821041001
_cell_length_c       7.077942394160159
_cell_angle_alpha    59.999988662200835
_cell_angle_beta     60.00002334892002
_cell_angle_gamma    59.99997826187967

_space_group_name_H-M_alt    "P 1"
_space_group_IT_number       1

loop_
  _space_group_symop_operation_xyz
  'x, y, z'

loop_
  _atom_site_type_symbol
  _atom_site_label
  _atom_site_symmetry_multiplicity
  _atom_site_fract_x
  _atom_site_fract_y
  _atom_site_fract_z
  _atom_site_occupancy
  K   K1        1.0  0.24999962181342544  0.25000062760759467  0.25000027687511583  1.0000
  K   K2        1.0  0.7499996410158429  0.7500000797771547  0.7499998834838882  1.0000
  N   N1        1.0  0.9999991348580988  0.9999972019918834  0.9999975195870315  1.0000
  Cl  Cl1       1.0  0.21613206001955998  0.21613303950320556  0.7838671578322588  1.0000
  Cl  Cl2       1.0  0.7838699843844459  0.783869948508824  0.2161294019065932  1.0000
  Cl  Cl3       1.0  0.7838685728546124  0.21613130739863384  0.21613219003616158  1.0000
  Cl  Cl4       1.0  0.216130059466374  0.7838690989018019  0.7838703773611242  1.0000
  Cl  Cl5       1.0  0.21613090119720557  0.7838694029452946  0.21613135504630893  1.0000
  Cl  Cl6       1.0  0.7838700048743574  0.2161292574114887  0.7838715644461133  1.0000
