data_image0
_chemical_formula_structural       K2NF6
_chemical_formula_sum              "K2 N1 F6"
_cell_length_a       5.584891552782646
_cell_length_b       5.584891651146359
_cell_length_c       5.584891653307149
_cell_angle_alpha    59.99999876854962
_cell_angle_beta     59.9999974648753
_cell_angle_gamma    60.00000096375104

_space_group_name_H-M_alt    "P 1"
_space_group_IT_number       1

loop_
  _space_group_symop_operation_xyz
  'x, y, z'

loop_
  _atom_site_type_symbol
  _atom_site_label
  _atom_site_symmetry_multiplicity
  _atom_site_fract_x
  _atom_site_fract_y
  _atom_site_fract_z
  _atom_site_occupancy
  K   K1        1.0  0.2499999786548778  0.2500000603532284  0.24999998228998924  1.0000
  K   K2        1.0  0.7500000748484604  0.7499999815002506  0.7499999897415867  1.0000
  N   N1        1.0  1.1444587074051948e-07  0.9999999978070404  8.890769029028112e-08  1.0000
  F   F1        1.0  0.21274056554599774  0.2127406077057134  0.7872594846974479  1.0000
  F   F2        1.0  0.787259408516455  0.7872592630968176  0.21274065376258325  1.0000
  F   F3        1.0  0.787259338645912  0.21274064483275815  0.21274056469501218  1.0000
  F   F4        1.0  0.21274068012847427  0.7872593027234036  0.787259491545695  1.0000
  F   F5        1.0  0.2127406599376787  0.7872593349577974  0.21274054242139515  1.0000
  F   F6        1.0  0.7872590612106797  0.21274086040293652  0.787259255823927  1.0000
