data_image0
_chemical_formula_structural       K2SbBr6
_chemical_formula_sum              "K2 Sb1 Br6"
_cell_length_a       7.633282209008488
_cell_length_b       7.633282380293567
_cell_length_c       7.633281917239725
_cell_angle_alpha    60.000001859727774
_cell_angle_beta     60.00000302925618
_cell_angle_gamma    59.99999452715636

_space_group_name_H-M_alt    "P 1"
_space_group_IT_number       1

loop_
  _space_group_symop_operation_xyz
  'x, y, z'

loop_
  _atom_site_type_symbol
  _atom_site_label
  _atom_site_symmetry_multiplicity
  _atom_site_fract_x
  _atom_site_fract_y
  _atom_site_fract_z
  _atom_site_occupancy
  K   K1        1.0  0.24999996203774819  0.2500000282145702  0.24999998846062021  1.0000
  K   K2        1.0  0.7500000468914134  0.7499999562852978  0.7500000172947144  1.0000
  Sb  Sb1       1.0  0.9999997002086553  7.813817864135706e-07  0.9999987268834104  1.0000
  Br  Br1       1.0  0.252003621950117  0.25200368725662337  0.7479963763506031  1.0000
  Br  Br2       1.0  0.7479962614261451  0.7479961383997356  0.2520038698568712  1.0000
  Br  Br3       1.0  0.7479964621652196  0.25200358421840646  0.2520037081328948  1.0000
  Br  Br4       1.0  0.2520034830750353  0.7479965141995433  0.747996564649557  1.0000
  Br  Br5       1.0  0.2520037315121363  0.7479961236315384  0.25200399178433025  1.0000
  Br  Br6       1.0  0.7479967390062313  0.2520031885911721  0.7479967494502361  1.0000
