data_image0
_chemical_formula_structural       K2SbI6
_chemical_formula_sum              "K2 Sb1 I6"
_cell_length_a       8.333347729315005
_cell_length_b       8.333347639053676
_cell_length_c       8.333348295214096
_cell_angle_alpha    59.99999804899595
_cell_angle_beta     59.999997733593396
_cell_angle_gamma    60.000003691370985

_space_group_name_H-M_alt    "P 1"
_space_group_IT_number       1

loop_
  _space_group_symop_operation_xyz
  'x, y, z'

loop_
  _atom_site_type_symbol
  _atom_site_label
  _atom_site_symmetry_multiplicity
  _atom_site_fract_x
  _atom_site_fract_y
  _atom_site_fract_z
  _atom_site_occupancy
  K   K1        1.0  0.2500000543186666  0.2500000373225835  0.24999991606376112  1.0000
  K   K2        1.0  0.7499999638179813  0.7499999943924337  0.7500000349477203  1.0000
  Sb  Sb1       1.0  0.999999890085473  7.201487144628362e-08  4.305490891774849e-07  1.0000
  I   I1        1.0  0.2540769588036257  0.25407693858513763  0.745923030296651  1.0000
  I   I2        1.0  0.7459230628463543  0.7459230784329663  0.2540768999066682  1.0000
  I   I3        1.0  0.7459231457226515  0.2540769070825962  0.25407686285056486  1.0000
  I   I4        1.0  0.25407698811128065  0.7459229188756411  0.7459229699909563  1.0000
  I   I5        1.0  0.2540769215799185  0.7459231312383928  0.25407691814816935  1.0000
  I   I6        1.0  0.7459230089253084  0.25407691811291405  0.7459229430611019  1.0000
