data_image0
_chemical_formula_structural       K2SbF6
_chemical_formula_sum              "K2 Sb1 F6"
_cell_length_a       6.134573983957941
_cell_length_b       6.134573720932963
_cell_length_c       6.13457383661473
_cell_angle_alpha    59.99999809436763
_cell_angle_beta     59.99999768366834
_cell_angle_gamma    60.00000170955305

_space_group_name_H-M_alt    "P 1"
_space_group_IT_number       1

loop_
  _space_group_symop_operation_xyz
  'x, y, z'

loop_
  _atom_site_type_symbol
  _atom_site_label
  _atom_site_symmetry_multiplicity
  _atom_site_fract_x
  _atom_site_fract_y
  _atom_site_fract_z
  _atom_site_occupancy
  K   K1        1.0  0.2499999316903876  0.25000006819300347  0.25000008332066453  1.0000
  K   K2        1.0  0.7500000159867399  0.7499999709928616  0.7499998667021612  1.0000
  Sb  Sb1       1.0  0.9999999478669683  0.9999999700530543  2.799914950820722e-08  1.0000
  F   F1        1.0  0.235951398215965  0.23595117639779872  0.7640487673558878  1.0000
  F   F2        1.0  0.7640488219942712  0.7640487849260247  0.23595121736991106  1.0000
  F   F3        1.0  0.7640484663692262  0.2359514172405797  0.23595152214776713  1.0000
  F   F4        1.0  0.23595143115173972  0.7640486199488202  0.7640485533877834  1.0000
  F   F5        1.0  0.23595151013195043  0.7640485794891395  0.23595137264844804  1.0000
  F   F6        1.0  0.7640485049094218  0.23595138183467557  0.7640485907738053  1.0000
