data_image0
_chemical_formula_structural       K2SbCl6
_chemical_formula_sum              "K2 Sb1 Cl6"
_cell_length_a       7.2482215538518115
_cell_length_b       7.2482211094869236
_cell_length_c       7.248221360821582
_cell_angle_alpha    60.00000128777969
_cell_angle_beta     59.99999979166903
_cell_angle_gamma    60.00000136483875

_space_group_name_H-M_alt    "P 1"
_space_group_IT_number       1

loop_
  _space_group_symop_operation_xyz
  'x, y, z'

loop_
  _atom_site_type_symbol
  _atom_site_label
  _atom_site_symmetry_multiplicity
  _atom_site_fract_x
  _atom_site_fract_y
  _atom_site_fract_z
  _atom_site_occupancy
  K   K1        1.0  0.24999999044795645  0.2500000311868602  0.24999996269552202  1.0000
  K   K2        1.0  0.7500000085342373  0.7499999533140039  0.750000054125519  1.0000
  Sb  Sb1       1.0  1.1064183409453876e-06  4.055322865313005e-08  0.9999987394490978  1.0000
  Cl  Cl1       1.0  0.2462830232887984  0.24628310028289724  0.7537169709575102  1.0000
  Cl  Cl2       1.0  0.7537164421438419  0.7537166544163295  0.24628342615947751  1.0000
  Cl  Cl3       1.0  0.7537164701070336  0.24628342008234103  0.24628355241444924  1.0000
  Cl  Cl4       1.0  0.24628303755716377  0.7537168770163285  0.7537169966339662  1.0000
  Cl  Cl5       1.0  0.2462834351331141  0.7537165517031986  0.24628353692080548  1.0000
  Cl  Cl6       1.0  0.7537164730766084  0.24628337534726344  0.7537167568200472  1.0000
