data_image0
_chemical_formula_structural       K2YBr6
_chemical_formula_sum              "K2 Y1 Br6"
_cell_length_a       7.839123837654209
_cell_length_b       7.839123543408
_cell_length_c       7.839123427104518
_cell_angle_alpha    60.00000259080877
_cell_angle_beta     60.000000882565075
_cell_angle_gamma    59.99999996688038

_space_group_name_H-M_alt    "P 1"
_space_group_IT_number       1

loop_
  _space_group_symop_operation_xyz
  'x, y, z'

loop_
  _atom_site_type_symbol
  _atom_site_label
  _atom_site_symmetry_multiplicity
  _atom_site_fract_x
  _atom_site_fract_y
  _atom_site_fract_z
  _atom_site_occupancy
  K   K1        1.0  0.2500000084007413  0.24999998683768546  0.24999996346874492  1.0000
  K   K2        1.0  0.7499999808029476  0.7500000230070288  0.7500000204050469  1.0000
  Y   Y1        1.0  4.396784479800365e-08  0.9999999343813307  0.999999934286241  1.0000
  Br  Br1       1.0  0.25050842679862034  0.2505083825248346  0.7494916554788101  1.0000
  Br  Br2       1.0  0.7494916236608015  0.7494916335692798  0.2505084375155319  1.0000
  Br  Br3       1.0  0.7494916549995125  0.25050833970193176  0.2505083583523329  1.0000
  Br  Br4       1.0  0.25050840642701844  0.7494915904629722  0.7494916266986353  1.0000
  Br  Br5       1.0  0.2505083256374081  0.7494916644730357  0.25050835646430886  1.0000
  Br  Br6       1.0  0.7494915351014984  0.2505084391126325  0.7494916447713995  1.0000
