data_image0
_chemical_formula_structural       K2YCl6
_chemical_formula_sum              "K2 Y1 Cl6"
_cell_length_a       7.50589916498679
_cell_length_b       7.50589913910629
_cell_length_c       7.505898991695752
_cell_angle_alpha    59.999998886604835
_cell_angle_beta     59.99999966042297
_cell_angle_gamma    59.999995479872375

_space_group_name_H-M_alt    "P 1"
_space_group_IT_number       1

loop_
  _space_group_symop_operation_xyz
  'x, y, z'

loop_
  _atom_site_type_symbol
  _atom_site_label
  _atom_site_symmetry_multiplicity
  _atom_site_fract_x
  _atom_site_fract_y
  _atom_site_fract_z
  _atom_site_occupancy
  K   K1        1.0  0.25000000126672184  0.24999998536846973  0.25000001780739256  1.0000
  K   K2        1.0  0.7499999539024158  0.750000018110384  0.749999984751149  1.0000
  Y   Y1        1.0  0.9999999359767756  7.669036298266968e-08  0.9999999656884357  1.0000
  Cl  Cl1       1.0  0.24615989153028087  0.24615977802661607  0.7538401943026198  1.0000
  Cl  Cl2       1.0  0.7538401177492317  0.7538400769666439  0.24615994337437233  1.0000
  Cl  Cl3       1.0  0.7538402149196207  0.2461598153634845  0.24615987248792182  1.0000
  Cl  Cl4       1.0  0.24615983768001096  0.7538402419617881  0.7538400384447365  1.0000
  Cl  Cl5       1.0  0.2461597954289368  0.7538402010406606  0.24615989219245904  1.0000
  Cl  Cl6       1.0  0.753840269136568  0.2461598203869958  0.7538400533549238  1.0000
