data_image0
_chemical_formula_structural       K2YF6
_chemical_formula_sum              "K2 Y1 F6"
_cell_length_a       6.583334659484247
_cell_length_b       6.583334452348125
_cell_length_c       6.583334034225873
_cell_angle_alpha    60.00000757586399
_cell_angle_beta     60.00000631458348
_cell_angle_gamma    60.00000618565827

_space_group_name_H-M_alt    "P 1"
_space_group_IT_number       1

loop_
  _space_group_symop_operation_xyz
  'x, y, z'

loop_
  _atom_site_type_symbol
  _atom_site_label
  _atom_site_symmetry_multiplicity
  _atom_site_fract_x
  _atom_site_fract_y
  _atom_site_fract_z
  _atom_site_occupancy
  K   K1        1.0  0.24999990157144455  0.25000000488071555  0.24999994658919267  1.0000
  K   K2        1.0  0.7499998942834147  0.7500001299851929  0.749999884779857  1.0000
  Y   Y1        1.0  8.546755732364988e-08  0.9999999330266282  0.9999999907529066  1.0000
  F   F1        1.0  0.23359835225508135  0.23359820200147682  0.7664018787624355  1.0000
  F   F2        1.0  0.7664018503853429  0.7664016333446487  0.23359826201165657  1.0000
  F   F3        1.0  0.7664017884747296  0.23359816458302213  0.233598213917772  1.0000
  F   F4        1.0  0.2335984777161207  0.7664016800649427  0.7664015030884584  1.0000
  F   F5        1.0  0.23359812348873993  0.7664018970931853  0.23359818638745775  1.0000
  F   F6        1.0  0.7664017291499591  0.23359817265974395  0.7664020820575066  1.0000
