data_image0
_chemical_formula_structural       K2YI6
_chemical_formula_sum              "K2 Y1 I6"
_cell_length_a       8.43445729358093
_cell_length_b       8.434457245836224
_cell_length_c       8.43445756944591
_cell_angle_alpha    60.00000113320343
_cell_angle_beta     59.99999935828081
_cell_angle_gamma    60.000003029628374

_space_group_name_H-M_alt    "P 1"
_space_group_IT_number       1

loop_
  _space_group_symop_operation_xyz
  'x, y, z'

loop_
  _atom_site_type_symbol
  _atom_site_label
  _atom_site_symmetry_multiplicity
  _atom_site_fract_x
  _atom_site_fract_y
  _atom_site_fract_z
  _atom_site_occupancy
  K   K1        1.0  0.25000001446836045  0.24999994694332975  0.2499999494113467  1.0000
  K   K2        1.0  0.7499999968129576  0.7500000586409595  0.7500000637702458  1.0000
  Y   Y1        1.0  0.9999999746813315  0.9999999157797614  1.1997815031309e-07  1.0000
  I   I1        1.0  0.25276374745860963  0.25276378201317623  0.7472362360174765  1.0000
  I   I2        1.0  0.7472362788535177  0.7472362729415982  0.25276372480805376  1.0000
  I   I3        1.0  0.7472361994885861  0.25276379643022484  0.2527637924087521  1.0000
  I   I4        1.0  0.2527638163150416  0.7472361873729665  0.7472361606366977  1.0000
  I   I5        1.0  0.2527638184738574  0.7472362153870364  0.25276379736889104  1.0000
  I   I6        1.0  0.7472361547783726  0.2527638221428583  0.7472361583881956  1.0000
