data_image0
_chemical_formula_structural       Li2AsI6
_chemical_formula_sum              "Li2 As1 I6"
_cell_length_a       7.902819282726348
_cell_length_b       7.9028192334512015
_cell_length_c       7.902819341100996
_cell_angle_alpha    60.00000005188236
_cell_angle_beta     59.99999907736547
_cell_angle_gamma    60.00000013349861

_space_group_name_H-M_alt    "P 1"
_space_group_IT_number       1

loop_
  _space_group_symop_operation_xyz
  'x, y, z'

loop_
  _atom_site_type_symbol
  _atom_site_label
  _atom_site_symmetry_multiplicity
  _atom_site_fract_x
  _atom_site_fract_y
  _atom_site_fract_z
  _atom_site_occupancy
  Li  Li1       1.0  0.249999937900987  0.2500000214755504  0.2500000097869438  1.0000
  Li  Li2       1.0  0.7500000722208249  0.7499999419958571  0.7500000081360292  1.0000
  As  As1       1.0  0.9999999976677615  2.0146839613648173e-08  0.9999999721121315  1.0000
  I   I1        1.0  0.2541388349884304  0.2541388126149482  0.7458611744559637  1.0000
  I   I2        1.0  0.7458611843128775  0.7458611803018402  0.2541388013778893  1.0000
  I   I3        1.0  0.7458611891405839  0.25413881726515464  0.25413883006330995  1.0000
  I   I4        1.0  0.2541387731616486  0.7458612019975013  0.7458611977929123  1.0000
  I   I5        1.0  0.2541388306692557  0.745861162291776  0.25413884370438433  1.0000
  I   I6        1.0  0.7458611811491639  0.25413883992355407  0.7458611603251798  1.0000
