data_image0
_chemical_formula_structural       Li2AsF6
_chemical_formula_sum              "Li2 As1 F6"
_cell_length_a       5.607554810231933
_cell_length_b       5.607555244818658
_cell_length_c       5.607554743507016
_cell_angle_alpha    59.99999980382448
_cell_angle_beta     60.000002717139466
_cell_angle_gamma    60.000005292000886

_space_group_name_H-M_alt    "P 1"
_space_group_IT_number       1

loop_
  _space_group_symop_operation_xyz
  'x, y, z'

loop_
  _atom_site_type_symbol
  _atom_site_label
  _atom_site_symmetry_multiplicity
  _atom_site_fract_x
  _atom_site_fract_y
  _atom_site_fract_z
  _atom_site_occupancy
  Li  Li1       1.0  0.24999990692224502  0.25000023454323583  0.24999982038792992  1.0000
  Li  Li2       1.0  0.7499998311888574  0.7499997360744158  0.7500002588752575  1.0000
  As  As1       1.0  1.200182103153343e-08  0.9999999825272192  0.9999999956022465  1.0000
  F   F1        1.0  0.2393382595872674  0.23933840788400473  0.7606616873207289  1.0000
  F   F2        1.0  0.7606615864116577  0.7606616282565762  0.23933844255183714  1.0000
  F   F3        1.0  0.7606616490271889  0.23933858524415233  0.2393383222645368  1.0000
  F   F4        1.0  0.2393387021614268  0.7606613067460062  0.7606615218732061  1.0000
  F   F5        1.0  0.23933835022433733  0.7606617143609918  0.23933839087863862  1.0000
  F   F6        1.0  0.7606616246467711  0.23933854674165872  0.7606615299772447  1.0000
