data_image0
_chemical_formula_structural       Li2AsBr6
_chemical_formula_sum              "Li2 As1 Br6"
_cell_length_a       7.228176540788189
_cell_length_b       7.228176418394161
_cell_length_c       7.228176575477772
_cell_angle_alpha    60.00000048280572
_cell_angle_beta     60.00000083127722
_cell_angle_gamma    59.999999971360715

_space_group_name_H-M_alt    "P 1"
_space_group_IT_number       1

loop_
  _space_group_symop_operation_xyz
  'x, y, z'

loop_
  _atom_site_type_symbol
  _atom_site_label
  _atom_site_symmetry_multiplicity
  _atom_site_fract_x
  _atom_site_fract_y
  _atom_site_fract_z
  _atom_site_occupancy
  Li  Li1       1.0  0.2500000050837244  0.2500000307244035  0.2499999962340826  1.0000
  Li  Li2       1.0  0.7500000114609751  0.7499999837313749  0.750000029600041  1.0000
  As  As1       1.0  0.9999999629501809  4.405449530646104e-08  0.9999999646777421  1.0000
  Br  Br1       1.0  0.2536699128667348  0.25366990899849945  0.746330046856671  1.0000
  Br  Br2       1.0  0.7463300514117652  0.7463301376509482  0.25366992814082706  1.0000
  Br  Br3       1.0  0.746330129589373  0.2536698499312532  0.25366983832568735  1.0000
  Br  Br4       1.0  0.2536698819053673  0.7463301221644322  0.7463300880842065  1.0000
  Br  Br5       1.0  0.2536699039157615  0.746330074936041  0.2536699266070974  1.0000
  Br  Br6       1.0  0.7463301394653098  0.25366984463313214  0.746330185824184  1.0000
