data_image0
_chemical_formula_structural       Li2AsCl6
_chemical_formula_sum              "Li2 As1 Cl6"
_cell_length_a       6.721883150472015
_cell_length_b       6.721883120204624
_cell_length_c       6.721883063760254
_cell_angle_alpha    60.0000009786547
_cell_angle_beta     59.99999987619683
_cell_angle_gamma    59.9999993507279

_space_group_name_H-M_alt    "P 1"
_space_group_IT_number       1

loop_
  _space_group_symop_operation_xyz
  'x, y, z'

loop_
  _atom_site_type_symbol
  _atom_site_label
  _atom_site_symmetry_multiplicity
  _atom_site_fract_x
  _atom_site_fract_y
  _atom_site_fract_z
  _atom_site_occupancy
  Li  Li1       1.0  0.24999999097367936  0.25000001562696955  0.24999999819172314  1.0000
  Li  Li2       1.0  0.7500000492704321  0.7499999466694544  0.7499999856787016  1.0000
  As  As1       1.0  2.6791501342549606e-08  0.9999999763136559  0.9999999642308187  1.0000
  Cl  Cl1       1.0  0.25049856317479285  0.2504985234181254  0.7495014698178791  1.0000
  Cl  Cl2       1.0  0.7495014651308822  0.7495014643866689  0.25049852809507617  1.0000
  Cl  Cl3       1.0  0.7495014916854219  0.25049848768347877  0.25049849713919925  1.0000
  Cl  Cl4       1.0  0.25049846112236557  0.7495015256296869  0.7495015689111875  1.0000
  Cl  Cl5       1.0  0.2504984949695958  0.7495015096946904  0.25049849813691016  1.0000
  Cl  Cl6       1.0  0.7495014570045644  0.2504985473471085  0.7495014839834823  1.0000
