data_image0
_chemical_formula_structural       Li2BiCl6
_chemical_formula_sum              "Li2 Bi1 Cl6"
_cell_length_a       7.043206158714595
_cell_length_b       7.0432062515900755
_cell_length_c       7.043206140747725
_cell_angle_alpha    60.00000019250626
_cell_angle_beta     60.000000442865684
_cell_angle_gamma    60.000002071917145

_space_group_name_H-M_alt    "P 1"
_space_group_IT_number       1

loop_
  _space_group_symop_operation_xyz
  'x, y, z'

loop_
  _atom_site_type_symbol
  _atom_site_label
  _atom_site_symmetry_multiplicity
  _atom_site_fract_x
  _atom_site_fract_y
  _atom_site_fract_z
  _atom_site_occupancy
  Li  Li1       1.0  0.2500000193135255  0.2500000266403226  0.2499999429520322  1.0000
  Li  Li2       1.0  0.74999997522352  0.7500000329705999  0.7499999817179012  1.0000
  Bi  Bi1       1.0  7.336344950867097e-09  0.9999999878276828  3.933299260163346e-08  1.0000
  Cl  Cl1       1.0  0.2594005754101257  0.2594005709139593  0.7405994168527269  1.0000
  Cl  Cl2       1.0  0.7405993772967377  0.7405994469633033  0.2594005850943258  1.0000
  Cl  Cl3       1.0  0.7405994526523756  0.2594005639305396  0.2594005917645135  1.0000
  Cl  Cl4       1.0  0.25940066107041393  0.7405993496125789  0.740599425855695  1.0000
  Cl  Cl5       1.0  0.25940055634088127  0.7405994372603363  0.2594006064377861  1.0000
  Cl  Cl6       1.0  0.7405993975252505  0.2594005771391215  0.7405993881496874  1.0000
