data_image0
_chemical_formula_structural       Li2BiI6
_chemical_formula_sum              "Li2 Bi1 I6"
_cell_length_a       8.150769980425036
_cell_length_b       8.150770000097305
_cell_length_c       8.15076998461368
_cell_angle_alpha    59.9999998861517
_cell_angle_beta     60.00000041818102
_cell_angle_gamma    60.00000080258489

_space_group_name_H-M_alt    "P 1"
_space_group_IT_number       1

loop_
  _space_group_symop_operation_xyz
  'x, y, z'

loop_
  _atom_site_type_symbol
  _atom_site_label
  _atom_site_symmetry_multiplicity
  _atom_site_fract_x
  _atom_site_fract_y
  _atom_site_fract_z
  _atom_site_occupancy
  Li  Li1       1.0  0.24999999940950382  0.24999998806353774  0.24999997947753191  1.0000
  Li  Li2       1.0  0.750000013281596  0.7500000167820496  0.7500000064412051  1.0000
  Bi  Bi1       1.0  4.239961902615058e-08  3.005224978033575e-08  0.9999999956728924  1.0000
  I   I1        1.0  0.26414270291674585  0.2641427147347723  0.7358572911242158  1.0000
  I   I2        1.0  0.7358572752879882  0.7358572660690152  0.2641427289661158  1.0000
  I   I3        1.0  0.735857268264541  0.2641427120920112  0.2641427372705998  1.0000
  I   I4        1.0  0.2641427329507623  0.7358572506804268  0.7358572840107559  1.0000
  I   I5        1.0  0.26414273321324633  0.7358572734375425  0.26414270967340087  1.0000
  I   I6        1.0  0.7358572377214888  0.26414274192633197  0.7358572710074496  1.0000
