data_image0
_chemical_formula_structural       Li2GaBr6
_chemical_formula_sum              "Li2 Ga1 Br6"
_cell_length_a       7.09349388170431
_cell_length_b       7.093493712091782
_cell_length_c       7.093493537768352
_cell_angle_alpha    59.99999782299951
_cell_angle_beta     59.99999974322973
_cell_angle_gamma    59.99999895380442

_space_group_name_H-M_alt    "P 1"
_space_group_IT_number       1

loop_
  _space_group_symop_operation_xyz
  'x, y, z'

loop_
  _atom_site_type_symbol
  _atom_site_label
  _atom_site_symmetry_multiplicity
  _atom_site_fract_x
  _atom_site_fract_y
  _atom_site_fract_z
  _atom_site_occupancy
  Li  Li1       1.0  0.24999995636586553  0.2499999717478908  0.25000001988708176  1.0000
  Li  Li2       1.0  0.7499999620305944  0.7499999929395463  0.7500000603411048  1.0000
  Ga  Ga1       1.0  8.532145387024262e-08  0.9999999930937019  0.9999999058124598  1.0000
  Br  Br1       1.0  0.2519830930294763  0.251983111024276  0.7480168777724596  1.0000
  Br  Br2       1.0  0.7480168988168435  0.7480168433037127  0.2519831201597867  1.0000
  Br  Br3       1.0  0.7480168497796131  0.2519831773662926  0.2519831336019787  1.0000
  Br  Br4       1.0  0.25198311746579316  0.7480169289002945  0.7480169148505724  1.0000
  Br  Br5       1.0  0.251983111242745  0.7480168973346244  0.2519830639365483  1.0000
  Br  Br6       1.0  0.7480169144748388  0.25198310188431483  0.7480169002535597  1.0000
