data_image0
_chemical_formula_structural       Li2NF6
_chemical_formula_sum              "Li2 N1 F6"
_cell_length_a       4.9884896451897305
_cell_length_b       4.988490233439175
_cell_length_c       4.9884901067865055
_cell_angle_alpha    60.0000029315232
_cell_angle_beta     60.000002749052946
_cell_angle_gamma    60.00000433085149

_space_group_name_H-M_alt    "P 1"
_space_group_IT_number       1

loop_
  _space_group_symop_operation_xyz
  'x, y, z'

loop_
  _atom_site_type_symbol
  _atom_site_label
  _atom_site_symmetry_multiplicity
  _atom_site_fract_x
  _atom_site_fract_y
  _atom_site_fract_z
  _atom_site_occupancy
  Li  Li1       1.0  0.2499999694797674  0.2500000164174432  0.24999998922654065  1.0000
  Li  Li2       1.0  0.7499999642736406  0.7500000345214823  0.7499999972432432  1.0000
  N   N1        1.0  1.7178349952805594e-07  0.9999998526915259  2.585016949319763e-08  1.0000
  F   F1        1.0  0.24073289011348603  0.2407328582715248  0.7592671729013044  1.0000
  F   F2        1.0  0.7592672836057278  0.759266868588757  0.24073286765259108  1.0000
  F   F3        1.0  0.7592670260054284  0.24073310355843283  0.2407331663547183  1.0000
  F   F4        1.0  0.24073289993725291  0.759267033310437  0.7592671298583944  1.0000
  F   F5        1.0  0.2407329234950022  0.759267093777862  0.24073292527806803  1.0000
  F   F6        1.0  0.7592669178295859  0.24073315111722143  0.759266803952744  1.0000
