data_image0
_chemical_formula_structural       Li2NCl6
_chemical_formula_sum              "Li2 N1 Cl6"
_cell_length_a       6.4477245812305926
_cell_length_b       6.447724590410082
_cell_length_c       6.447724469908689
_cell_angle_alpha    60.000001929282675
_cell_angle_beta     60.000000539036826
_cell_angle_gamma    60.000001057581954

_space_group_name_H-M_alt    "P 1"
_space_group_IT_number       1

loop_
  _space_group_symop_operation_xyz
  'x, y, z'

loop_
  _atom_site_type_symbol
  _atom_site_label
  _atom_site_symmetry_multiplicity
  _atom_site_fract_x
  _atom_site_fract_y
  _atom_site_fract_z
  _atom_site_occupancy
  Li  Li1       1.0  0.24999996938684715  0.24999998298123477  0.25000003166774803  1.0000
  Li  Li2       1.0  0.7499999780570015  0.750000040119671  0.7499999834483364  1.0000
  N   N1        1.0  0.9999999575251304  3.609048570071456e-08  0.999999914788911  1.0000
  Cl  Cl1       1.0  0.2378229395321657  0.23782284741297627  0.7621770871272395  1.0000
  Cl  Cl2       1.0  0.7621771985751862  0.7621771946829226  0.23782280920118393  1.0000
  Cl  Cl3       1.0  0.7621771235524086  0.23782273889058617  0.2378228907994497  1.0000
  Cl  Cl4       1.0  0.23782283870881338  0.7621771645418628  0.762177186047784  1.0000
  Cl  Cl5       1.0  0.23782288078771985  0.7621771623835764  0.23782286934627306  1.0000
  Cl  Cl6       1.0  0.7621771234579197  0.23782282462684354  0.7621772083080921  1.0000
