data_image0
_chemical_formula_structural       Li2SbF6
_chemical_formula_sum              "Li2 Sb1 F6"
_cell_length_a       5.896445697196181
_cell_length_b       5.896444028426134
_cell_length_c       5.896444271730601
_cell_angle_alpha    60.000000426183334
_cell_angle_beta     60.00000520639288
_cell_angle_gamma    60.000000358839

_space_group_name_H-M_alt    "P 1"
_space_group_IT_number       1

loop_
  _space_group_symop_operation_xyz
  'x, y, z'

loop_
  _atom_site_type_symbol
  _atom_site_label
  _atom_site_symmetry_multiplicity
  _atom_site_fract_x
  _atom_site_fract_y
  _atom_site_fract_z
  _atom_site_occupancy
  Li  Li1       1.0  0.25000020111668403  0.24999984582213086  0.2499999973905974  1.0000
  Li  Li2       1.0  0.749999998561057  0.7500001709790313  0.7500001694509109  1.0000
  Sb  Sb1       1.0  0.9999999844524019  0.9999999937687241  0.9999999091331969  1.0000
  F   F1        1.0  0.24281809782227856  0.24281791068338107  0.7571820750245166  1.0000
  F   F2        1.0  0.7571818488208698  0.7571820251112242  0.2428179823997844  1.0000
  F   F3        1.0  0.7571818919791206  0.24281810861812042  0.24281803263341165  1.0000
  F   F4        1.0  0.24281820136003907  0.7571817337074064  0.7571818625024317  1.0000
  F   F5        1.0  0.2428180776381737  0.7571820190174215  0.2428179176181422  1.0000
  F   F6        1.0  0.7571817553181956  0.2428182989618612  0.7571818681862927  1.0000
