data_image0
_chemical_formula_structural       Li2SbCl6
_chemical_formula_sum              "Li2 Sb1 Cl6"
_cell_length_a       6.944788125848842
_cell_length_b       6.944788063933994
_cell_length_c       6.944788139193968
_cell_angle_alpha    59.99999979757483
_cell_angle_beta     59.999999510644734
_cell_angle_gamma    59.99999983346515

_space_group_name_H-M_alt    "P 1"
_space_group_IT_number       1

loop_
  _space_group_symop_operation_xyz
  'x, y, z'

loop_
  _atom_site_type_symbol
  _atom_site_label
  _atom_site_symmetry_multiplicity
  _atom_site_fract_x
  _atom_site_fract_y
  _atom_site_fract_z
  _atom_site_occupancy
  Li  Li1       1.0  0.25000002791329795  0.2500000172691244  0.24999997983705066  1.0000
  Li  Li2       1.0  0.750000007492642  0.7499999812655588  0.7499999797873244  1.0000
  Sb  Sb1       1.0  0.9999999896204455  2.1162544329138573e-08  1.6207436165859084e-08  1.0000
  Cl  Cl1       1.0  0.24856774700608922  0.24856776793920132  0.7514322349370667  1.0000
  Cl  Cl2       1.0  0.7514322624682693  0.7514322535215716  0.24856774490912778  1.0000
  Cl  Cl3       1.0  0.7514322247804495  0.24856778389491685  0.24856775770877113  1.0000
  Cl  Cl4       1.0  0.24856777288799528  0.7514321881865863  0.7514322685692313  1.0000
  Cl  Cl5       1.0  0.24856777551092665  0.7514321917785204  0.2485677690935443  1.0000
  Cl  Cl6       1.0  0.7514321817487479  0.2485678067561627  0.7514322396834648  1.0000
