data_image0
_chemical_formula_structural       Li2SbBr6
_chemical_formula_sum              "Li2 Sb1 Br6"
_cell_length_a       7.335375780808767
_cell_length_b       7.335375726099193
_cell_length_c       7.335375793387875
_cell_angle_alpha    60.000000342307324
_cell_angle_beta     59.99999993702869
_cell_angle_gamma    59.99999993335373

_space_group_name_H-M_alt    "P 1"
_space_group_IT_number       1

loop_
  _space_group_symop_operation_xyz
  'x, y, z'

loop_
  _atom_site_type_symbol
  _atom_site_label
  _atom_site_symmetry_multiplicity
  _atom_site_fract_x
  _atom_site_fract_y
  _atom_site_fract_z
  _atom_site_occupancy
  Li  Li1       1.0  0.2499999874202896  0.24999997098802512  0.2500000210915606  1.0000
  Li  Li2       1.0  0.7499999999586298  0.7500000548836133  0.7499999189357662  1.0000
  Sb  Sb1       1.0  0.999999980253577  0.9999998797858026  6.725379625962951e-08  1.0000
  Br  Br1       1.0  0.2558291656236165  0.2558291510641857  0.7441708342511509  1.0000
  Br  Br2       1.0  0.7441709304345967  0.7441709265663434  0.2558290950831741  1.0000
  Br  Br3       1.0  0.7441708805769515  0.2558290902580996  0.25582913977854077  1.0000
  Br  Br4       1.0  0.2558290943997188  0.7441709255956898  0.7441709191561123  1.0000
  Br  Br5       1.0  0.255829076847944  0.744170888616469  0.2558291448701506  1.0000
  Br  Br6       1.0  0.744170878968806  0.255829113880187  0.7441708594336821  1.0000
