data_image0
_chemical_formula_structural       Li2YBr6
_chemical_formula_sum              "Li2 Y1 Br6"
_cell_length_a       7.564035378261994
_cell_length_b       7.564035348355872
_cell_length_c       7.5640354866282395
_cell_angle_alpha    59.99999949920167
_cell_angle_beta     59.99999930406859
_cell_angle_gamma    60.000000551895646

_space_group_name_H-M_alt    "P 1"
_space_group_IT_number       1

loop_
  _space_group_symop_operation_xyz
  'x, y, z'

loop_
  _atom_site_type_symbol
  _atom_site_label
  _atom_site_symmetry_multiplicity
  _atom_site_fract_x
  _atom_site_fract_y
  _atom_site_fract_z
  _atom_site_occupancy
  Li  Li1       1.0  0.2499999707206327  0.2500000252419179  0.25000000664561695  1.0000
  Li  Li2       1.0  0.7499999943055379  0.7499999575264448  0.7499999969812711  1.0000
  Y   Y1        1.0  0.9999999845650163  0.9999999821891448  0.9999999174694979  1.0000
  Br  Br1       1.0  0.2572964590581853  0.25729640657847824  0.7427035554993583  1.0000
  Br  Br2       1.0  0.7427035593052219  0.742703581047391  0.25729642828447735  1.0000
  Br  Br3       1.0  0.7427035219279386  0.25729648274527656  0.25729646622553604  1.0000
  Br  Br4       1.0  0.2572964333514447  0.7427035842198549  0.7427035940416004  1.0000
  Br  Br5       1.0  0.2572964973688386  0.7427035557149941  0.25729642999540064  1.0000
  Br  Br6       1.0  0.7427035887958332  0.25729642543420156  0.7427035984827399  1.0000
