data_image0
_chemical_formula_structural       Li2YF6
_chemical_formula_sum              "Li2 Y1 F6"
_cell_length_a       5.799177170735385
_cell_length_b       5.799177366064628
_cell_length_c       5.799177332975372
_cell_angle_alpha    59.999999481832496
_cell_angle_beta     59.999999139680625
_cell_angle_gamma    59.99999982497752

_space_group_name_H-M_alt    "P 1"
_space_group_IT_number       1

loop_
  _space_group_symop_operation_xyz
  'x, y, z'

loop_
  _atom_site_type_symbol
  _atom_site_label
  _atom_site_symmetry_multiplicity
  _atom_site_fract_x
  _atom_site_fract_y
  _atom_site_fract_z
  _atom_site_occupancy
  Li  Li1       1.0  0.24999995346386003  0.25000000322829585  0.24999998828374137  1.0000
  Li  Li2       1.0  0.7500000879653601  0.7500000139087427  0.7499999920761556  1.0000
  Y   Y1        1.0  3.968140397705183e-08  4.223857254288745e-08  0.9999999590400115  1.0000
  F   F1        1.0  0.25995975755077905  0.2599597932557826  0.7400401831619753  1.0000
  F   F2        1.0  0.7400403288500281  0.7400402323289705  0.25995972565432535  1.0000
  F   F3        1.0  0.7400403026192749  0.25995965194520193  0.2599597051020905  1.0000
  F   F4        1.0  0.2599596673323815  0.7400402152449039  0.7400403635530828  1.0000
  F   F5        1.0  0.2599597162160012  0.7400403543737464  0.25995974430249164  1.0000
  F   F6        1.0  0.7400401588818171  0.2599596838825791  0.7400403069390803  1.0000
