data_image0
_chemical_formula_structural       Li2YCl6
_chemical_formula_sum              "Li2 Y1 Cl6"
_cell_length_a       7.083332540817491
_cell_length_b       7.083332728953978
_cell_length_c       7.083332263655942
_cell_angle_alpha    60.00000369019788
_cell_angle_beta     60.00000280085983
_cell_angle_gamma    60.000001163074174

_space_group_name_H-M_alt    "P 1"
_space_group_IT_number       1

loop_
  _space_group_symop_operation_xyz
  'x, y, z'

loop_
  _atom_site_type_symbol
  _atom_site_label
  _atom_site_symmetry_multiplicity
  _atom_site_fract_x
  _atom_site_fract_y
  _atom_site_fract_z
  _atom_site_occupancy
  Li  Li1       1.0  0.2500000492225125  0.25000016029090694  0.24999992893344772  1.0000
  Li  Li2       1.0  0.7500000373533725  0.7499998826208436  0.7499999928480396  1.0000
  Y   Y1        1.0  0.999999932471006  3.631008543784547e-08  0.999999943609443  1.0000
  Cl  Cl1       1.0  0.25729402844538307  0.2572939317699061  0.742706049255829  1.0000
  Cl  Cl2       1.0  0.7427060473805254  0.7427059624434016  0.25729399177928386  1.0000
  Cl  Cl3       1.0  0.7427058947116707  0.2572939807547802  0.25729400262262075  1.0000
  Cl  Cl4       1.0  0.2572939785272579  0.7427060223887858  0.7427060485349642  1.0000
  Cl  Cl5       1.0  0.25729403241549187  0.7427059510992295  0.2572939316966541  1.0000
  Cl  Cl6       1.0  0.7427060067047855  0.2572940727929542  0.7427060953224306  1.0000
