data_image0
_chemical_formula_structural       Li2YI6
_chemical_formula_sum              "Li2 Y1 I6"
_cell_length_a       8.205903541452464
_cell_length_b       8.205903484784233
_cell_length_c       8.20590349177935
_cell_angle_alpha    59.99999964806361
_cell_angle_beta     59.999999314254126
_cell_angle_gamma    59.99999976857816

_space_group_name_H-M_alt    "P 1"
_space_group_IT_number       1

loop_
  _space_group_symop_operation_xyz
  'x, y, z'

loop_
  _atom_site_type_symbol
  _atom_site_label
  _atom_site_symmetry_multiplicity
  _atom_site_fract_x
  _atom_site_fract_y
  _atom_site_fract_z
  _atom_site_occupancy
  Li  Li1       1.0  0.2500000089082861  0.24999998106091828  0.25000001297974994  1.0000
  Li  Li2       1.0  0.750000011714332  0.749999992435809  0.7499999986639235  1.0000
  Y   Y1        1.0  0.9999999971563933  5.074557097720634e-08  0.9999999370527024  1.0000
  I   I1        1.0  0.25795371617280743  0.25795373872571387  0.7420462699755594  1.0000
  I   I2        1.0  0.7420462190960138  0.7420462586512818  0.2579537529067212  1.0000
  I   I3        1.0  0.7420463029852223  0.25795369647038363  0.25795371862628225  1.0000
  I   I4        1.0  0.25795367762480836  0.7420463337419817  0.742046282228596  1.0000
  I   I5        1.0  0.2579537611370306  0.7420462861373442  0.2579537455193055  1.0000
  I   I6        1.0  0.7420463049414457  0.25795366497163114  0.7420462801816463  1.0000
