data_image0
_chemical_formula_structural       Mg2AsBr6
_chemical_formula_sum              "Mg2 As1 Br6"
_cell_length_a       7.199227866143707
_cell_length_b       7.199227730972322
_cell_length_c       7.199227888314105
_cell_angle_alpha    59.99999946044366
_cell_angle_beta     59.999999481154276
_cell_angle_gamma    59.99999983201533

_space_group_name_H-M_alt    "P 1"
_space_group_IT_number       1

loop_
  _space_group_symop_operation_xyz
  'x, y, z'

loop_
  _atom_site_type_symbol
  _atom_site_label
  _atom_site_symmetry_multiplicity
  _atom_site_fract_x
  _atom_site_fract_y
  _atom_site_fract_z
  _atom_site_occupancy
  Mg  Mg1       1.0  0.2500001999793931  0.24999998823508413  0.24999984653445548  1.0000
  Mg  Mg2       1.0  0.7499999505273566  0.7499999834186365  0.7499999591299262  1.0000
  As  As1       1.0  0.9999999664149162  0.9999999948963488  4.01799352944672e-08  1.0000
  Br  Br1       1.0  0.25326716262406784  0.2532671926894441  0.7467328485220879  1.0000
  Br  Br2       1.0  0.7467328083711481  0.7467328844397317  0.25326715528872396  1.0000
  Br  Br3       1.0  0.7467327740475737  0.25326720138294595  0.2532671972823143  1.0000
  Br  Br4       1.0  0.25326714299803377  0.746732845124323  0.7467328738169364  1.0000
  Br  Br5       1.0  0.2532672229055802  0.7467327463514023  0.25326719010680887  1.0000
  Br  Br6       1.0  0.7467327732854859  0.253267158954854  0.7467328911846506  1.0000
