data_image0
_chemical_formula_structural       Mg2BF6
_chemical_formula_sum              "Mg2 B1 F6"
_cell_length_a       4.883764135377856
_cell_length_b       4.883764010607491
_cell_length_c       4.8837643177928225
_cell_angle_alpha    59.999997090319646
_cell_angle_beta     59.999998268368564
_cell_angle_gamma    59.99999735053806

_space_group_name_H-M_alt    "P 1"
_space_group_IT_number       1

loop_
  _space_group_symop_operation_xyz
  'x, y, z'

loop_
  _atom_site_type_symbol
  _atom_site_label
  _atom_site_symmetry_multiplicity
  _atom_site_fract_x
  _atom_site_fract_y
  _atom_site_fract_z
  _atom_site_occupancy
  Mg  Mg1       1.0  0.24999990893639853  0.2499999325580375  0.2500001629744765  1.0000
  Mg  Mg2       1.0  0.7500000079514957  0.7499999330947127  0.7500000861198962  1.0000
  B   B1        1.0  0.9999999499180461  2.2570099900122635e-08  7.108875106139227e-08  1.0000
  F   F1        1.0  0.22317231650027586  0.2231723606947036  0.7768276104771719  1.0000
  F   F2        1.0  0.7768276902292978  0.7768277532291482  0.22317228937193298  1.0000
  F   F3        1.0  0.7768278717153613  0.2231722218145741  0.22317227260377417  1.0000
  F   F4        1.0  0.22317224592639076  0.7768277792587767  0.7768276282144925  1.0000
  F   F5        1.0  0.22317230216540462  0.7768276755890744  0.2231722062423973  1.0000
  F   F6        1.0  0.7768277178202289  0.22317236310111083  0.776827659072284  1.0000
