data_image0
_chemical_formula_structural       Mg2BI6
_chemical_formula_sum              "Mg2 B1 I6"
_cell_length_a       7.361617868005628
_cell_length_b       7.361617913325915
_cell_length_c       7.3616179428673325
_cell_angle_alpha    59.999999833730406
_cell_angle_beta     60.00000158632219
_cell_angle_gamma    60.00000031745314

_space_group_name_H-M_alt    "P 1"
_space_group_IT_number       1

loop_
  _space_group_symop_operation_xyz
  'x, y, z'

loop_
  _atom_site_type_symbol
  _atom_site_label
  _atom_site_symmetry_multiplicity
  _atom_site_fract_x
  _atom_site_fract_y
  _atom_site_fract_z
  _atom_site_occupancy
  Mg  Mg1       1.0  0.2500000380512975  0.24999997970458976  0.24999997683753866  1.0000
  Mg  Mg2       1.0  0.750000007998641  0.7500000222982596  0.7499999909002883  1.0000
  B   B1        1.0  1.76835298420276e-08  0.9999998951875404  1.957049332664044e-07  1.0000
  I   I1        1.0  0.23637110852431406  0.23637115368195852  0.7636288542230092  1.0000
  I   I2        1.0  0.7636288426519326  0.7636288882494467  0.23637111110264958  1.0000
  I   I3        1.0  0.763628871744208  0.23637115923038554  0.23637106126732657  1.0000
  I   I4        1.0  0.23637110848947232  0.7636288943468486  0.7636288483883783  1.0000
  I   I5        1.0  0.23637112866547028  0.7636289066964463  0.23637108116327302  1.0000
  I   I6        1.0  0.7636288766023812  0.2363710953064033  0.76362888251445  1.0000
