data_image0
_chemical_formula_structural       Mg2GaCl6
_chemical_formula_sum              "Mg2 Ga1 Cl6"
_cell_length_a       6.721743316649826
_cell_length_b       6.721743402496348
_cell_length_c       6.721743173203897
_cell_angle_alpha    60.000000296155676
_cell_angle_beta     59.99999957567162
_cell_angle_gamma    59.99999983872357

_space_group_name_H-M_alt    "P 1"
_space_group_IT_number       1

loop_
  _space_group_symop_operation_xyz
  'x, y, z'

loop_
  _atom_site_type_symbol
  _atom_site_label
  _atom_site_symmetry_multiplicity
  _atom_site_fract_x
  _atom_site_fract_y
  _atom_site_fract_z
  _atom_site_occupancy
  Mg  Mg1       1.0  0.24999994887920496  0.24999997396852686  0.25000002644745445  1.0000
  Mg  Mg2       1.0  0.7500000477312924  0.7499999164393867  0.7499999547498519  1.0000
  Ga  Ga1       1.0  0.9999999615134257  0.9999999763131641  8.910736926998783e-08  1.0000
  Cl  Cl1       1.0  0.24720520899620851  0.2472053019365751  0.7527947433658758  1.0000
  Cl  Cl2       1.0  0.7527947904217048  0.7527948016528608  0.24720520571013566  1.0000
  Cl  Cl3       1.0  0.7527947736779157  0.24720521320441977  0.24720521760399178  1.0000
  Cl  Cl4       1.0  0.2472052907775282  0.7527947828832223  0.7527947393147676  1.0000
  Cl  Cl5       1.0  0.2472052239144952  0.752794794604269  0.24720525350657865  1.0000
  Cl  Cl6       1.0  0.7527947649372853  0.24720523245846637  0.7527947554806524  1.0000
