data_image0
_chemical_formula_structural       Mg2GaBr6
_chemical_formula_sum              "Mg2 Ga1 Br6"
_cell_length_a       7.054866479441679
_cell_length_b       7.054866389953759
_cell_length_c       7.054866492942008
_cell_angle_alpha    60.000000200319484
_cell_angle_beta     60.00000027870489
_cell_angle_gamma    59.999999935777865

_space_group_name_H-M_alt    "P 1"
_space_group_IT_number       1

loop_
  _space_group_symop_operation_xyz
  'x, y, z'

loop_
  _atom_site_type_symbol
  _atom_site_label
  _atom_site_symmetry_multiplicity
  _atom_site_fract_x
  _atom_site_fract_y
  _atom_site_fract_z
  _atom_site_occupancy
  Mg  Mg1       1.0  0.2499999045175583  0.2500000184917712  0.24999996722461515  1.0000
  Mg  Mg2       1.0  0.7499999305615711  0.7500000624194287  0.7499999612101539  1.0000
  Ga  Ga1       1.0  3.9778264635142e-08  0.9999999739595732  0.9999999690342395  1.0000
  Br  Br1       1.0  0.2510493336657207  0.2510493345976641  0.7489507056679185  1.0000
  Br  Br2       1.0  0.7489507022052615  0.7489506595121148  0.25104933870190926  1.0000
  Br  Br3       1.0  0.7489507263347505  0.25104926007221007  0.25104932687975495  1.0000
  Br  Br4       1.0  0.25104932805386826  0.7489506784846586  0.7489507104934067  1.0000
  Br  Br5       1.0  0.2510493459917667  0.7489506735357568  0.25104931302089567  1.0000
  Br  Br6       1.0  0.7489506935328077  0.25104932925416434  0.7489507195122198  1.0000
