data_image0
_chemical_formula_structural       Mg2GaI6
_chemical_formula_sum              "Mg2 Ga1 I6"
_cell_length_a       7.658587774923517
_cell_length_b       7.658587756612495
_cell_length_c       7.658587678339615
_cell_angle_alpha    60.00000035512727
_cell_angle_beta     60.000000644831964
_cell_angle_gamma    59.99999967968683

_space_group_name_H-M_alt    "P 1"
_space_group_IT_number       1

loop_
  _space_group_symop_operation_xyz
  'x, y, z'

loop_
  _atom_site_type_symbol
  _atom_site_label
  _atom_site_symmetry_multiplicity
  _atom_site_fract_x
  _atom_site_fract_y
  _atom_site_fract_z
  _atom_site_occupancy
  Mg  Mg1       1.0  0.2500000369583619  0.24999999634919526  0.2499999695539911  1.0000
  Mg  Mg2       1.0  0.749999989099915  0.7499999970434787  0.7500000177805631  1.0000
  Ga  Ga1       1.0  0.9999999926443175  0.9999999904049292  0.9999999836666249  1.0000
  I   I1        1.0  0.253612518726212  0.25361252098184317  0.7463874938890223  1.0000
  I   I2        1.0  0.7463874651002154  0.7463874995968653  0.25361253752870505  1.0000
  I   I3        1.0  0.7463875117460083  0.2536124923986403  0.253612473555352  1.0000
  I   I4        1.0  0.25361251254586525  0.746387488200606  0.7463875184476702  1.0000
  I   I5        1.0  0.2536124774958094  0.7463875221120622  0.25361248287372695  1.0000
  I   I6        1.0  0.7463874943603171  0.2536124936691109  0.7463875151447577  1.0000
