data_image0
_chemical_formula_structural       Mg2IrBr6
_chemical_formula_sum              "Mg2 Ir1 Br6"
_cell_length_a       7.105563172096428
_cell_length_b       7.105563110330893
_cell_length_c       7.105563127793797
_cell_angle_alpha    59.999999972538085
_cell_angle_beta     59.99999939990235
_cell_angle_gamma    60.00000070151644

_space_group_name_H-M_alt    "P 1"
_space_group_IT_number       1

loop_
  _space_group_symop_operation_xyz
  'x, y, z'

loop_
  _atom_site_type_symbol
  _atom_site_label
  _atom_site_symmetry_multiplicity
  _atom_site_fract_x
  _atom_site_fract_y
  _atom_site_fract_z
  _atom_site_occupancy
  Mg  Mg1       1.0  0.25000000545109236  0.24999995790263  0.25000002479702216  1.0000
  Mg  Mg2       1.0  0.7499999735410404  0.7500000167701947  0.749999973601505  1.0000
  Ir  Ir1       1.0  3.2501308373751324e-09  8.165870075200154e-17  1.1041066448765762e-08  1.0000
  Br  Br1       1.0  0.24622380295101895  0.24622376119165823  0.7537762224682432  1.0000
  Br  Br2       1.0  0.7537762165522609  0.7537762479540117  0.24622376799259546  1.0000
  Br  Br3       1.0  0.7537762168034227  0.24622377267614642  0.24622377847983992  1.0000
  Br  Br4       1.0  0.24622380347155792  0.7537762244040279  0.7537762176278963  1.0000
  Br  Br5       1.0  0.2462237744653423  0.7537762311659749  0.24622376103734647  1.0000
  Br  Br6       1.0  0.7537762025890814  0.24622378832154815  0.7537762482916895  1.0000
