data_image0
_chemical_formula_structural       Mg2IrCl6
_chemical_formula_sum              "Mg2 Ir1 Cl6"
_cell_length_a       6.859029427057006
_cell_length_b       6.859028976280145
_cell_length_c       6.859028758235056
_cell_angle_alpha    59.999999025067
_cell_angle_beta     60.00000067544527
_cell_angle_gamma    60.00000000288987

_space_group_name_H-M_alt    "P 1"
_space_group_IT_number       1

loop_
  _space_group_symop_operation_xyz
  'x, y, z'

loop_
  _atom_site_type_symbol
  _atom_site_label
  _atom_site_symmetry_multiplicity
  _atom_site_fract_x
  _atom_site_fract_y
  _atom_site_fract_z
  _atom_site_occupancy
  Mg  Mg1       1.0  0.24999984731015676  0.25000011417388796  0.24999996408575642  1.0000
  Mg  Mg2       1.0  0.7500000874845351  0.7499999836170443  0.7500000147065312  1.0000
  Ir  Ir1       1.0  7.431218342501997e-09  0.9999999928576193  1.7350769501944988e-08  1.0000
  Cl  Cl1       1.0  0.24076232219914168  0.2407624308227647  0.7592376256243578  1.0000
  Cl  Cl2       1.0  0.7592377080109967  0.7592375776884117  0.24076234426835455  1.0000
  Cl  Cl3       1.0  0.759237666738542  0.24076231254108096  0.24076245259991905  1.0000
  Cl  Cl4       1.0  0.24076238074986914  0.7592376138327179  0.7592376036658441  1.0000
  Cl  Cl5       1.0  0.2407624455548039  0.7592375957491702  0.24076232012631937  1.0000
  Cl  Cl6       1.0  0.7592375349505207  0.24076240026283963  0.7592376487938726  1.0000
