data_image0
_chemical_formula_structural       Mg2IrF6
_chemical_formula_sum              "Mg2 Ir1 F6"
_cell_length_a       5.241567446218555
_cell_length_b       5.241567240997636
_cell_length_c       5.241567355417718
_cell_angle_alpha    60.00000063756086
_cell_angle_beta     60.00000136907402
_cell_angle_gamma    59.99999994201214

_space_group_name_H-M_alt    "P 1"
_space_group_IT_number       1

loop_
  _space_group_symop_operation_xyz
  'x, y, z'

loop_
  _atom_site_type_symbol
  _atom_site_label
  _atom_site_symmetry_multiplicity
  _atom_site_fract_x
  _atom_site_fract_y
  _atom_site_fract_z
  _atom_site_occupancy
  Mg  Mg1       1.0  0.24999998308182253  0.250000024182643  0.24999999896996972  1.0000
  Mg  Mg2       1.0  0.7499999872533817  0.750000004786514  0.7499999927083965  1.0000
  Ir  Ir1       1.0  0.9999999916997299  1.1683002442883975e-08  0.9999999887695025  1.0000
  F   F1        1.0  0.26803266733691994  0.2680326513895621  0.7319673115368065  1.0000
  F   F2        1.0  0.731967355892444  0.7319673378573862  0.2680326792790629  1.0000
  F   F3        1.0  0.7319673531042369  0.26803266041908613  0.2680326053456074  1.0000
  F   F4        1.0  0.26803265250138325  0.7319673288278623  0.7319673961899602  1.0000
  F   F5        1.0  0.2680326343422839  0.7319673721410961  0.26803262992008176  1.0000
  F   F6        1.0  0.7319673952516474  0.2680325914032473  0.7319674277995948  1.0000
