data_image0
_chemical_formula_structural       Mg2MoCl6
_chemical_formula_sum              "Mg2 Mo1 Cl6"
_cell_length_a       6.885839378507959
_cell_length_b       6.885838957462947
_cell_length_c       6.8858391799224625
_cell_angle_alpha    59.99999995499375
_cell_angle_beta     60.000001293297174
_cell_angle_gamma    60.00000088448968

_space_group_name_H-M_alt    "P 1"
_space_group_IT_number       1

loop_
  _space_group_symop_operation_xyz
  'x, y, z'

loop_
  _atom_site_type_symbol
  _atom_site_label
  _atom_site_symmetry_multiplicity
  _atom_site_fract_x
  _atom_site_fract_y
  _atom_site_fract_z
  _atom_site_occupancy
  Mg  Mg1       1.0  0.24999966547245772  0.2500000781642155  0.25000011623991875  1.0000
  Mg  Mg2       1.0  0.7500000562690263  0.749999997933159  0.750000072133465  1.0000
  Mo  Mo1       1.0  0.9999999909207943  7.114571425924864e-09  0.9999999908165265  1.0000
  Cl  Cl1       1.0  0.24591106413583758  0.24591102228872685  0.7540889665933216  1.0000
  Cl  Cl2       1.0  0.7540889800859883  0.7540888510433593  0.2459110718826742  1.0000
  Cl  Cl3       1.0  0.7540889529827617  0.24591113797257752  0.24591105732457771  1.0000
  Cl  Cl4       1.0  0.24591118949722693  0.754088888322802  0.7540888221388076  1.0000
  Cl  Cl5       1.0  0.24591118771232742  0.7540889186498585  0.24591104208386394  1.0000
  Cl  Cl6       1.0  0.7540889135392523  0.24591110053094833  0.7540888557419887  1.0000
