data_image0
_chemical_formula_structural       Mg2MoF6
_chemical_formula_sum              "Mg2 Mo1 F6"
_cell_length_a       5.334734910771009
_cell_length_b       5.334734806475506
_cell_length_c       5.33473507479404
_cell_angle_alpha    59.99999787236065
_cell_angle_beta     59.999999631783886
_cell_angle_gamma    59.99999902859524

_space_group_name_H-M_alt    "P 1"
_space_group_IT_number       1

loop_
  _space_group_symop_operation_xyz
  'x, y, z'

loop_
  _atom_site_type_symbol
  _atom_site_label
  _atom_site_symmetry_multiplicity
  _atom_site_fract_x
  _atom_site_fract_y
  _atom_site_fract_z
  _atom_site_occupancy
  Mg  Mg1       1.0  0.2500001056892302  0.24999990889028098  0.24999997292816176  1.0000
  Mg  Mg2       1.0  0.7500001020998288  0.7500000274197778  0.7499999714938202  1.0000
  Mo  Mo1       1.0  0.9999999280464807  2.7549520267686963e-08  5.594313100001264e-08  1.0000
  F   F1        1.0  0.2664791531949383  0.26647906200789173  0.7335208543824013  1.0000
  F   F2        1.0  0.733520740085896  0.7335209087390672  0.2664791326008604  1.0000
  F   F3        1.0  0.7335208323283413  0.2664791604621324  0.2664791608408108  1.0000
  F   F4        1.0  0.2664790916267879  0.7335208286511733  0.7335208972220039  1.0000
  F   F5        1.0  0.26647914041223486  0.7335209263796587  0.2664791330341729  1.0000
  F   F6        1.0  0.7335208439723921  0.26647914767800335  0.7335208729612952  1.0000
