data_image0
_chemical_formula_structural       Mg2MoBr6
_chemical_formula_sum              "Mg2 Mo1 Br6"
_cell_length_a       7.190416221060887
_cell_length_b       7.190416094595247
_cell_length_c       7.190416538771595
_cell_angle_alpha    59.99999573403888
_cell_angle_beta     59.99999786059056
_cell_angle_gamma    59.999995680255076

_space_group_name_H-M_alt    "P 1"
_space_group_IT_number       1

loop_
  _space_group_symop_operation_xyz
  'x, y, z'

loop_
  _atom_site_type_symbol
  _atom_site_label
  _atom_site_symmetry_multiplicity
  _atom_site_fract_x
  _atom_site_fract_y
  _atom_site_fract_z
  _atom_site_occupancy
  Mg  Mg1       1.0  0.2499998875569901  0.24999983095830497  0.2500001854146916  1.0000
  Mg  Mg2       1.0  0.7499999694204565  0.7499999408433088  0.7500001552425453  1.0000
  Mo  Mo1       1.0  3.69354322471465e-08  0.9999999999999991  0.9999999940489442  1.0000
  Br  Br1       1.0  0.2510774605466047  0.25107744252360853  0.7489225069731513  1.0000
  Br  Br2       1.0  0.7489225932201982  0.7489226205426308  0.2510773824368265  1.0000
  Br  Br3       1.0  0.748922607221915  0.2510774582067092  0.25107740250407956  1.0000
  Br  Br4       1.0  0.2510774676329781  0.7489225656835865  0.7489224917776056  1.0000
  Br  Br5       1.0  0.251077459019351  0.7489226450838086  0.2510773481492342  1.0000
  Br  Br6       1.0  0.7489225145003041  0.2510774997409236  0.7489225293791502  1.0000
