data_image0
_chemical_formula_structural       Mg2NF6
_chemical_formula_sum              "Mg2 N1 F6"
_cell_length_a       4.973650344163605
_cell_length_b       4.973650500356363
_cell_length_c       4.973650522569684
_cell_angle_alpha    59.99999833237917
_cell_angle_beta     59.99999930158698
_cell_angle_gamma    59.99999528783136

_space_group_name_H-M_alt    "P 1"
_space_group_IT_number       1

loop_
  _space_group_symop_operation_xyz
  'x, y, z'

loop_
  _atom_site_type_symbol
  _atom_site_label
  _atom_site_symmetry_multiplicity
  _atom_site_fract_x
  _atom_site_fract_y
  _atom_site_fract_z
  _atom_site_occupancy
  Mg  Mg1       1.0  0.24999998447778096  0.2500000407948802  0.25000002536795646  1.0000
  Mg  Mg2       1.0  0.7499999976169189  0.7499999967988349  0.7500000082328218  1.0000
  N   N1        1.0  0.9999999613288445  3.939947288794673e-08  0.9999998588941467  1.0000
  F   F1        1.0  0.24854054964775432  0.2485405272736989  0.7514594349575511  1.0000
  F   F2        1.0  0.7514594229029026  0.7514594832328838  0.24854053050320304  1.0000
  F   F3        1.0  0.7514595478931682  0.24854048057397124  0.24854033509242202  1.0000
  F   F4        1.0  0.2485403272654449  0.7514595644071494  0.7514597422509095  1.0000
  F   F5        1.0  0.24854046100874447  0.7514596084745574  0.24854038938656395  1.0000
  F   F6        1.0  0.7514597271040617  0.2485402986084074  0.7514596888949593  1.0000
