data_image0
_chemical_formula_structural       Mg2PCl6
_chemical_formula_sum              "Mg2 P1 Cl6"
_cell_length_a       6.009803169431968
_cell_length_b       6.009803343450993
_cell_length_c       6.0098034281955
_cell_angle_alpha    60.000000051052375
_cell_angle_beta     60.000001167509026
_cell_angle_gamma    60.000000327555426

_space_group_name_H-M_alt    "P 1"
_space_group_IT_number       1

loop_
  _space_group_symop_operation_xyz
  'x, y, z'

loop_
  _atom_site_type_symbol
  _atom_site_label
  _atom_site_symmetry_multiplicity
  _atom_site_fract_x
  _atom_site_fract_y
  _atom_site_fract_z
  _atom_site_occupancy
  Mg  Mg1       1.0  0.2500000061232915  0.2499999089217535  0.24999999608793788  1.0000
  Mg  Mg2       1.0  0.750000004041074  0.750000075248165  0.7499999143678471  1.0000
  P   P1        1.0  0.9999999822615405  0.9999999898104416  0.999999977357154  1.0000
  Cl  Cl1       1.0  0.2615372660256999  0.26153729959043454  0.7384627286298384  1.0000
  Cl  Cl2       1.0  0.7384627765487205  0.7384627314514528  0.26153728195656184  1.0000
  Cl  Cl3       1.0  0.7384626894128471  0.2615372740635533  0.26153729277661614  1.0000
  Cl  Cl4       1.0  0.2615372638665332  0.7384627712437166  0.738462735357236  1.0000
  Cl  Cl5       1.0  0.2615373054203639  0.7384626956760544  0.2615372332110886  1.0000
  Cl  Cl6       1.0  0.7384627064522634  0.2615372660768346  0.7384628157230709  1.0000
