data_image0
_chemical_formula_structural       Mg2PI6
_chemical_formula_sum              "Mg2 P1 I6"
_cell_length_a       7.642782942614221
_cell_length_b       7.642783005036783
_cell_length_c       7.642782915815965
_cell_angle_alpha    59.999999976276975
_cell_angle_beta     60.000000337446
_cell_angle_gamma    59.99999921623911

_space_group_name_H-M_alt    "P 1"
_space_group_IT_number       1

loop_
  _space_group_symop_operation_xyz
  'x, y, z'

loop_
  _atom_site_type_symbol
  _atom_site_label
  _atom_site_symmetry_multiplicity
  _atom_site_fract_x
  _atom_site_fract_y
  _atom_site_fract_z
  _atom_site_occupancy
  Mg  Mg1       1.0  0.2500000358888035  0.25000000527660776  0.24999997933499635  1.0000
  Mg  Mg2       1.0  0.7499999890878802  0.750000054289476  0.749999988531819  1.0000
  P   P1        1.0  0.9999999881882407  0.999999985577631  0.9999999843317379  1.0000
  I   I1        1.0  0.2556969622366716  0.2556969617278352  0.7443030447431799  1.0000
  I   I2        1.0  0.7443030438480268  0.7443030321363444  0.25569695757003674  1.0000
  I   I3        1.0  0.7443030325376511  0.25569693850234426  0.2556969846915836  1.0000
  I   I4        1.0  0.25569695115942354  0.7443030409394661  0.744303046494021  1.0000
  I   I5        1.0  0.2556969707702355  0.7443030468236895  0.255696968242245  1.0000
  I   I6        1.0  0.7443030269668933  0.2556969358230918  0.7443030503955749  1.0000
