data_image0
_chemical_formula_structural       Mg2PBr6
_chemical_formula_sum              "Mg2 P1 Br6"
_cell_length_a       7.160962476578652
_cell_length_b       7.1609623910308615
_cell_length_c       7.160962463733506
_cell_angle_alpha    60.00000031462101
_cell_angle_beta     60.0000003054909
_cell_angle_gamma    59.99999977629549

_space_group_name_H-M_alt    "P 1"
_space_group_IT_number       1

loop_
  _space_group_symop_operation_xyz
  'x, y, z'

loop_
  _atom_site_type_symbol
  _atom_site_label
  _atom_site_symmetry_multiplicity
  _atom_site_fract_x
  _atom_site_fract_y
  _atom_site_fract_z
  _atom_site_occupancy
  Mg  Mg1       1.0  0.25000026418482485  0.24999988997142428  0.24999989921895724  1.0000
  Mg  Mg2       1.0  0.750000233826671  0.7500000786778004  0.7499997181770579  1.0000
  P   P1        1.0  0.9999999692815921  0.999999976055693  1.4763214347333424e-08  1.0000
  Br  Br1       1.0  0.254602154772513  0.2546022814477408  0.745397820798171  1.0000
  Br  Br2       1.0  0.7453976640689994  0.745397731669486  0.2546023373824865  1.0000
  Br  Br3       1.0  0.7453976849717725  0.2546022477771257  0.25460230200208633  1.0000
  Br  Br4       1.0  0.2546021544408988  0.7453977858637926  0.7453978244594633  1.0000
  Br  Br5       1.0  0.2546021695558805  0.7453977707290964  0.25460230113018395  1.0000
  Br  Br6       1.0  0.7453977003153212  0.2546022440984378  0.7453978027512687  1.0000
