data_image0
_chemical_formula_structural       Mg2PF6
_chemical_formula_sum              "Mg2 P1 F6"
_cell_length_a       5.20247870507542
_cell_length_b       5.2024784058966365
_cell_length_c       5.202479040389127
_cell_angle_alpha    59.99999855007339
_cell_angle_beta     59.999999981815584
_cell_angle_gamma    60.00000263113755

_space_group_name_H-M_alt    "P 1"
_space_group_IT_number       1

loop_
  _space_group_symop_operation_xyz
  'x, y, z'

loop_
  _atom_site_type_symbol
  _atom_site_label
  _atom_site_symmetry_multiplicity
  _atom_site_fract_x
  _atom_site_fract_y
  _atom_site_fract_z
  _atom_site_occupancy
  Mg  Mg1       1.0  0.2499997501175151  0.25000070088588733  0.24999981217027875  1.0000
  Mg  Mg2       1.0  0.7499999582572942  0.750000052187311  0.7500001635362645  1.0000
  P   P1        1.0  1.4124936845931724e-08  0.9999999576251812  0.9999999718374082  1.0000
  F   F1        1.0  0.25695019984963496  0.25694986431179445  0.7430499731239081  1.0000
  F   F2        1.0  0.7430500490729764  0.7430499329738522  0.256950019908605  1.0000
  F   F3        1.0  0.7430500170557784  0.25694984050956643  0.2569501054788702  1.0000
  F   F4        1.0  0.2569499472528342  0.7430499450052818  0.743049960781775  1.0000
  F   F5        1.0  0.25695010598843504  0.7430497839803399  0.2569499160892883  1.0000
  F   F6        1.0  0.743049989183414  0.256949928555658  0.7430500078216918  1.0000
