data_image0
_chemical_formula_structural       Mg2RuCl6
_chemical_formula_sum              "Mg2 Ru1 Cl6"
_cell_length_a       6.807675575895863
_cell_length_b       6.80767520894852
_cell_length_c       6.8076753550396445
_cell_angle_alpha    59.999999494787545
_cell_angle_beta     60.000000411665766
_cell_angle_gamma    60.00000008471619

_space_group_name_H-M_alt    "P 1"
_space_group_IT_number       1

loop_
  _space_group_symop_operation_xyz
  'x, y, z'

loop_
  _atom_site_type_symbol
  _atom_site_label
  _atom_site_symmetry_multiplicity
  _atom_site_fract_x
  _atom_site_fract_y
  _atom_site_fract_z
  _atom_site_occupancy
  Mg  Mg1       1.0  0.24999993722556135  0.250000084660244  0.2499999459592937  1.0000
  Mg  Mg2       1.0  0.7500001308222783  0.7499997952192141  0.7500001647486275  1.0000
  Ru  Ru1       1.0  0.9999999828501289  0.9999999802102868  0.9999999788086765  1.0000
  Cl  Cl1       1.0  0.24431450841166025  0.2443145187083844  0.7556854657600774  1.0000
  Cl  Cl2       1.0  0.7556854942025788  0.7556855014981264  0.24431448557991092  1.0000
  Cl  Cl3       1.0  0.7556855504982755  0.24431457457578515  0.2443144093777296  1.0000
  Cl  Cl4       1.0  0.2443144140975472  0.7556854528269844  0.7556855838140817  1.0000
  Cl  Cl5       1.0  0.2443145315246797  0.7556855331192114  0.24431445616072192  1.0000
  Cl  Cl6       1.0  0.7556854561825899  0.2443145572508264  0.7556854969295922  1.0000
