data_image0
_chemical_formula_structural       Mg2RhI6
_chemical_formula_sum              "Mg2 Rh1 I6"
_cell_length_a       7.536318956317156
_cell_length_b       7.5363188573796265
_cell_length_c       7.53631893417482
_cell_angle_alpha    60.000000329559505
_cell_angle_beta     59.99999981588041
_cell_angle_gamma    59.99999947670654

_space_group_name_H-M_alt    "P 1"
_space_group_IT_number       1

loop_
  _space_group_symop_operation_xyz
  'x, y, z'

loop_
  _atom_site_type_symbol
  _atom_site_label
  _atom_site_symmetry_multiplicity
  _atom_site_fract_x
  _atom_site_fract_y
  _atom_site_fract_z
  _atom_site_occupancy
  Mg  Mg1       1.0  0.24999996446511344  0.2499999955903831  0.2500000277213009  1.0000
  Mg  Mg2       1.0  0.750000011357338  0.7500000143982478  0.7500000116962623  1.0000
  Rh  Rh1       1.0  2.4344959195674124e-08  0.9999999821236418  1.5342407864470007e-08  1.0000
  I   I1        1.0  0.2500972158484258  0.250097219661777  0.7499027718039961  1.0000
  I   I2        1.0  0.7499028107988827  0.7499028033278409  0.250097177316704  1.0000
  I   I3        1.0  0.749902784160746  0.2500972166382644  0.2500971925213522  1.0000
  I   I4        1.0  0.25009717841378365  0.7499027917252428  0.7499028118716857  1.0000
  I   I5        1.0  0.2500972177761793  0.7499027744158195  0.25009720173245037  1.0000
  I   I6        1.0  0.7499027939370344  0.25009720144521763  0.7499027877079415  1.0000
