data_image0
_chemical_formula_structural       Mg2RhCl6
_chemical_formula_sum              "Mg2 Rh1 Cl6"
_cell_length_a       6.770155601314194
_cell_length_b       6.770155529231953
_cell_length_c       6.7701555529549955
_cell_angle_alpha    59.99999972113961
_cell_angle_beta     59.99999874703924
_cell_angle_gamma    59.99999936168175

_space_group_name_H-M_alt    "P 1"
_space_group_IT_number       1

loop_
  _space_group_symop_operation_xyz
  'x, y, z'

loop_
  _atom_site_type_symbol
  _atom_site_label
  _atom_site_symmetry_multiplicity
  _atom_site_fract_x
  _atom_site_fract_y
  _atom_site_fract_z
  _atom_site_occupancy
  Mg  Mg1       1.0  0.25000019338240975  0.25000001316856857  0.2499999059397569  1.0000
  Mg  Mg2       1.0  0.7500000267133702  0.7500000829225482  0.7499999772589981  1.0000
  Rh  Rh1       1.0  0.9999999878718085  0.9999999801006141  0.9999999717016608  1.0000
  Cl  Cl1       1.0  0.24393903587085236  0.24393883945973216  0.7560610160172394  1.0000
  Cl  Cl2       1.0  0.7560609756128188  0.756061135426035  0.243938927218211  1.0000
  Cl  Cl3       1.0  0.7560610728965381  0.2439389427541793  0.2439389624036891  1.0000
  Cl  Cl4       1.0  0.24393882551965562  0.7560610285135182  0.7560611292758629  1.0000
  Cl  Cl5       1.0  0.2439389352033478  0.7560609885878095  0.24393900460431253  1.0000
  Cl  Cl6       1.0  0.7560609571827291  0.2439390007702388  0.7560610869534066  1.0000
