data_image0
_chemical_formula_structural       Mg2RhBr6
_chemical_formula_sum              "Mg2 Rh1 Br6"
_cell_length_a       7.044063036965492
_cell_length_b       7.044062989198673
_cell_length_c       7.044063026327221
_cell_angle_alpha    59.99999932790107
_cell_angle_beta     59.99999888641845
_cell_angle_gamma    59.99999948321793

_space_group_name_H-M_alt    "P 1"
_space_group_IT_number       1

loop_
  _space_group_symop_operation_xyz
  'x, y, z'

loop_
  _atom_site_type_symbol
  _atom_site_label
  _atom_site_symmetry_multiplicity
  _atom_site_fract_x
  _atom_site_fract_y
  _atom_site_fract_z
  _atom_site_occupancy
  Mg  Mg1       1.0  0.25000001236915176  0.25000000890492957  0.24999995454308876  1.0000
  Mg  Mg2       1.0  0.7500000032626934  0.7500000249760976  0.7499999339474964  1.0000
  Rh  Rh1       1.0  0.9999999916219185  0.9999999808743992  0.9999999754216902  1.0000
  Br  Br1       1.0  0.24723811787109323  0.24723815155310955  0.7527618754819138  1.0000
  Br  Br2       1.0  0.7527618727912583  0.7527618736344626  0.24723813205388215  1.0000
  Br  Br3       1.0  0.752761872863444  0.2472381195034944  0.24723814140116657  1.0000
  Br  Br4       1.0  0.24723810402293828  0.7527618830810948  0.7527619141364454  1.0000
  Br  Br5       1.0  0.2472381652105131  0.7527618402435838  0.2472381430798166  1.0000
  Br  Br6       1.0  0.7527618660866099  0.24723811713504004  0.7527619291499358  1.0000
