data_image0
_chemical_formula_structural       Mg2RuBr6
_chemical_formula_sum              "Mg2 Ru1 Br6"
_cell_length_a       7.0844296028498395
_cell_length_b       7.084429540131668
_cell_length_c       7.084429658588183
_cell_angle_alpha    59.99999921360284
_cell_angle_beta     59.99999987039032
_cell_angle_gamma    60.000000486830224

_space_group_name_H-M_alt    "P 1"
_space_group_IT_number       1

loop_
  _space_group_symop_operation_xyz
  'x, y, z'

loop_
  _atom_site_type_symbol
  _atom_site_label
  _atom_site_symmetry_multiplicity
  _atom_site_fract_x
  _atom_site_fract_y
  _atom_site_fract_z
  _atom_site_occupancy
  Mg  Mg1       1.0  0.2500000365900721  0.2499999018566497  0.2500000645594874  1.0000
  Mg  Mg2       1.0  0.7500000413589326  0.7499999597012039  0.749999954017668  1.0000
  Ru  Ru1       1.0  8.626956522856917e-09  3.4575682583396853e-09  0.9999999756076365  1.0000
  Br  Br1       1.0  0.24748149023000202  0.24748152521215228  0.7525184993439882  1.0000
  Br  Br2       1.0  0.7525184721899975  0.7525184971226165  0.24748152342859023  1.0000
  Br  Br3       1.0  0.7525184575736923  0.24748152163227247  0.24748151665397827  1.0000
  Br  Br4       1.0  0.2474815002192532  0.7525185439220974  0.7525184797645952  1.0000
  Br  Br5       1.0  0.24748149989891519  0.7525185282191847  0.24748148798575054  1.0000
  Br  Br6       1.0  0.7525184957775172  0.24748151658977696  0.752518495629145  1.0000
