data_image0
_chemical_formula_structural       Mg2RuF6
_chemical_formula_sum              "Mg2 Ru1 F6"
_cell_length_a       5.206765552715472
_cell_length_b       5.206765674345983
_cell_length_c       5.206765630583118
_cell_angle_alpha    60.00000071267169
_cell_angle_beta     59.99999978442321
_cell_angle_gamma    60.000001567185784

_space_group_name_H-M_alt    "P 1"
_space_group_IT_number       1

loop_
  _space_group_symop_operation_xyz
  'x, y, z'

loop_
  _atom_site_type_symbol
  _atom_site_label
  _atom_site_symmetry_multiplicity
  _atom_site_fract_x
  _atom_site_fract_y
  _atom_site_fract_z
  _atom_site_occupancy
  Mg  Mg1       1.0  0.24999997456464193  0.25000004480149424  0.24999998488749087  1.0000
  Mg  Mg2       1.0  0.7499999954019562  0.7499999791580879  0.7500000060345451  1.0000
  Ru  Ru1       1.0  0.9999999920478277  0.9999999905911274  0.9999999856335853  1.0000
  F   F1        1.0  0.26543982688061246  0.2654397760731035  0.734560217128218  1.0000
  F   F2        1.0  0.7345602310326966  0.7345602102509897  0.2654397582410975  1.0000
  F   F3        1.0  0.734560187891034  0.265439822080422  0.26543977190736734  1.0000
  F   F4        1.0  0.2654398452471602  0.734560145425926  0.7345602367818466  1.0000
  F   F5        1.0  0.2654397213493639  0.734560207119204  0.265439843939376  1.0000
  F   F6        1.0  0.7345602372828005  0.26543979096597886  0.7345602039986381  1.0000
