data_image0
_chemical_formula_structural       Mg2SbF6
_chemical_formula_sum              "Mg2 Sb1 F6"
_cell_length_a       5.446318977989391
_cell_length_b       5.446318815335118
_cell_length_c       5.44631837206245
_cell_angle_alpha    59.9999997078503
_cell_angle_beta     59.99999953175181
_cell_angle_gamma    59.999998008822175

_space_group_name_H-M_alt    "P 1"
_space_group_IT_number       1

loop_
  _space_group_symop_operation_xyz
  'x, y, z'

loop_
  _atom_site_type_symbol
  _atom_site_label
  _atom_site_symmetry_multiplicity
  _atom_site_fract_x
  _atom_site_fract_y
  _atom_site_fract_z
  _atom_site_occupancy
  Mg  Mg1       1.0  0.2499999323548301  0.25000019637690996  0.24999986229453186  1.0000
  Mg  Mg2       1.0  0.7499999255670676  0.750000076414074  0.7500000066673802  1.0000
  Sb  Sb1       1.0  0.9999999483447801  4.047763034772103e-08  4.2310849974096574e-08  1.0000
  F   F1        1.0  0.2708640070787075  0.2708640104746365  0.7291360019484361  1.0000
  F   F2        1.0  0.7291360841515911  0.7291358867738845  0.2708639895413846  1.0000
  F   F3        1.0  0.7291359741039612  0.27086398553356683  0.2708640709790371  1.0000
  F   F4        1.0  0.27086402810216  0.7291358734860807  0.7291360814507571  1.0000
  F   F5        1.0  0.27086412699886975  0.7291359650108128  0.27086393170811096  1.0000
  F   F6        1.0  0.7291359507388856  0.2708639727153389  0.7291360352725493  1.0000
