data_image0
_chemical_formula_structural       Mg2SbCl6
_chemical_formula_sum              "Mg2 Sb1 Cl6"
_cell_length_a       7.0459222887004875
_cell_length_b       7.045922508633372
_cell_length_c       7.045922615470509
_cell_angle_alpha    59.99999709655238
_cell_angle_beta     59.9999982927965
_cell_angle_gamma    59.99999910868977

_space_group_name_H-M_alt    "P 1"
_space_group_IT_number       1

loop_
  _space_group_symop_operation_xyz
  'x, y, z'

loop_
  _atom_site_type_symbol
  _atom_site_label
  _atom_site_symmetry_multiplicity
  _atom_site_fract_x
  _atom_site_fract_y
  _atom_site_fract_z
  _atom_site_occupancy
  Mg  Mg1       1.0  0.25000004119768127  0.2500000532457498  0.24999994539620282  1.0000
  Mg  Mg2       1.0  0.7499999873408894  0.750000057181553  0.7499999215302829  1.0000
  Sb  Sb1       1.0  0.9999999940582385  0.9999999391618747  3.480920505567014e-08  1.0000
  Cl  Cl1       1.0  0.25527052701904224  0.25527043112325026  0.7447295080885951  1.0000
  Cl  Cl2       1.0  0.7447294689107432  0.7447295558895681  0.25527051065107637  1.0000
  Cl  Cl3       1.0  0.7447295464931625  0.25527047942972386  0.25527050743912166  1.0000
  Cl  Cl4       1.0  0.2552704801936343  0.7447294988919327  0.7447295343298782  1.0000
  Cl  Cl5       1.0  0.255270480966225  0.7447294893018674  0.2552705185064291  1.0000
  Cl  Cl6       1.0  0.7447294831471393  0.25527050466387896  0.7447295240190732  1.0000
