data_image0
_chemical_formula_structural       Mg2SbBr6
_chemical_formula_sum              "Mg2 Sb1 Br6"
_cell_length_a       7.322464901822799
_cell_length_b       7.322464919046739
_cell_length_c       7.322464745782459
_cell_angle_alpha    59.999999315494364
_cell_angle_beta     59.9999981856413
_cell_angle_gamma    59.99999958713859

_space_group_name_H-M_alt    "P 1"
_space_group_IT_number       1

loop_
  _space_group_symop_operation_xyz
  'x, y, z'

loop_
  _atom_site_type_symbol
  _atom_site_label
  _atom_site_symmetry_multiplicity
  _atom_site_fract_x
  _atom_site_fract_y
  _atom_site_fract_z
  _atom_site_occupancy
  Mg  Mg1       1.0  0.250000090188564  0.2500000511922213  0.2499999145544295  1.0000
  Mg  Mg2       1.0  0.7499999438408665  0.7500000314779198  0.7500000636713078  1.0000
  Sb  Sb1       1.0  0.9999999767286957  0.9999999799289738  9.38022249317159e-09  1.0000
  Br  Br1       1.0  0.2584308248294065  0.2584307417111518  0.7415692122509807  1.0000
  Br  Br2       1.0  0.7415692064780303  0.7415692355861022  0.2584307626644619  1.0000
  Br  Br3       1.0  0.7415691705555587  0.2584308281151646  0.2584307802499716  1.0000
  Br  Br4       1.0  0.25843077206124  0.7415691692531152  0.7415692399005619  1.0000
  Br  Br5       1.0  0.2584308246426259  0.7415691760349695  0.25843081176674493  1.0000
  Br  Br6       1.0  0.7415691912781495  0.25843078119125795  0.7415692136533915  1.0000
