data_image0
_chemical_formula_structural       Mg2TaF6
_chemical_formula_sum              "Mg2 Ta1 F6"
_cell_length_a       5.3306408642169085
_cell_length_b       5.330640155643238
_cell_length_c       5.3306408671565135
_cell_angle_alpha    60.000000057661595
_cell_angle_beta     60.00000034571276
_cell_angle_gamma    59.99999780731341

_space_group_name_H-M_alt    "P 1"
_space_group_IT_number       1

loop_
  _space_group_symop_operation_xyz
  'x, y, z'

loop_
  _atom_site_type_symbol
  _atom_site_label
  _atom_site_symmetry_multiplicity
  _atom_site_fract_x
  _atom_site_fract_y
  _atom_site_fract_z
  _atom_site_occupancy
  Mg  Mg1       1.0  0.25000005506306205  0.24999995387132293  0.2500001747115749  1.0000
  Mg  Mg2       1.0  0.7499999469290483  0.7500000615013944  0.7500000774659542  1.0000
  Ta  Ta1       1.0  0.999999908319315  1.1258027188194153e-07  0.9999996875227354  1.0000
  F   F1        1.0  0.2596684381700795  0.25966825177954184  0.7403316669268365  1.0000
  F   F2        1.0  0.7403316937276957  0.7403316533104408  0.2596684778899776  1.0000
  F   F3        1.0  0.7403317868851189  0.2596681498797291  0.25966843145252533  1.0000
  F   F4        1.0  0.25966847986254105  0.7403316885810995  0.7403315873325159  1.0000
  F   F5        1.0  0.25966812876044887  0.740331807317573  0.2596683397935921  1.0000
  F   F6        1.0  0.7403315515441296  0.2596683413134244  0.7403316257813155  1.0000
