data_image0
_chemical_formula_structural       Mg2TaBr6
_chemical_formula_sum              "Mg2 Ta1 Br6"
_cell_length_a       7.378537543817982
_cell_length_b       7.3785373606251206
_cell_length_c       7.378537146552625
_cell_angle_alpha    59.99999878869137
_cell_angle_beta     60.000000444649274
_cell_angle_gamma    60.00000165464793

_space_group_name_H-M_alt    "P 1"
_space_group_IT_number       1

loop_
  _space_group_symop_operation_xyz
  'x, y, z'

loop_
  _atom_site_type_symbol
  _atom_site_label
  _atom_site_symmetry_multiplicity
  _atom_site_fract_x
  _atom_site_fract_y
  _atom_site_fract_z
  _atom_site_occupancy
  Mg  Mg1       1.0  0.24999980531036353  0.25000016184343266  0.25000001341806344  1.0000
  Mg  Mg2       1.0  0.7500002769439912  0.7499999776086134  0.7499997200486694  1.0000
  Ta  Ta1       1.0  0.9999999978194072  0.9999999502037522  9.646309514851694e-08  1.0000
  Br  Br1       1.0  0.24447224314118865  0.24447222079495348  0.7555277511765633  1.0000
  Br  Br2       1.0  0.755527696689678  0.7555277825473455  0.24447226386142112  1.0000
  Br  Br3       1.0  0.7555276675364977  0.24447230391342156  0.24447220910117431  1.0000
  Br  Br4       1.0  0.24447231179771234  0.7555276795103802  0.7555277853021293  1.0000
  Br  Br5       1.0  0.24447221166500563  0.7555277376438398  0.24447227522513557  1.0000
  Br  Br6       1.0  0.7555278150298455  0.2444721694257158  0.7555278908877057  1.0000
