data_image0
_chemical_formula_structural       Mg2TaCl6
_chemical_formula_sum              "Mg2 Ta1 Cl6"
_cell_length_a       7.202945397319287
_cell_length_b       7.20294610933665
_cell_length_c       7.202945907055639
_cell_angle_alpha    59.999998472155376
_cell_angle_beta     59.999998795796586
_cell_angle_gamma    60.00000285501244

_space_group_name_H-M_alt    "P 1"
_space_group_IT_number       1

loop_
  _space_group_symop_operation_xyz
  'x, y, z'

loop_
  _atom_site_type_symbol
  _atom_site_label
  _atom_site_symmetry_multiplicity
  _atom_site_fract_x
  _atom_site_fract_y
  _atom_site_fract_z
  _atom_site_occupancy
  Mg  Mg1       1.0  0.25000015662037683  0.25000006071787634  0.2499998453090817  1.0000
  Mg  Mg2       1.0  0.7500003323062367  0.749999969611268  0.7499999941933293  1.0000
  Ta  Ta1       1.0  0.9999999200063757  4.7609481930727595e-08  8.283147048565205e-08  1.0000
  Cl  Cl1       1.0  0.23515971676542316  0.2351596522712492  0.7648403024378501  1.0000
  Cl  Cl2       1.0  0.7648402754296036  0.7648403100443363  0.23515966811015776  1.0000
  Cl  Cl3       1.0  0.7648403227268092  0.23515972491312934  0.23515970307625655  1.0000
  Cl  Cl4       1.0  0.23515956410012293  0.7648402986146471  0.764840372848952  1.0000
  Cl  Cl5       1.0  0.23515961172140093  0.7648402289248915  0.2351597047234664  1.0000
  Cl  Cl6       1.0  0.764840138033995  0.23515972488899473  0.7648403718587125  1.0000
