data_image0
_chemical_formula_structural       Mg2TaI6
_chemical_formula_sum              "Mg2 Ta1 I6"
_cell_length_a       7.906084079528241
_cell_length_b       7.906083864737369
_cell_length_c       7.906084030826278
_cell_angle_alpha    59.99999950503884
_cell_angle_beta     59.99999976647557
_cell_angle_gamma    59.99999988339301

_space_group_name_H-M_alt    "P 1"
_space_group_IT_number       1

loop_
  _space_group_symop_operation_xyz
  'x, y, z'

loop_
  _atom_site_type_symbol
  _atom_site_label
  _atom_site_symmetry_multiplicity
  _atom_site_fract_x
  _atom_site_fract_y
  _atom_site_fract_z
  _atom_site_occupancy
  Mg  Mg1       1.0  0.24999999148815666  0.24999999275649978  0.25000002318762227  1.0000
  Mg  Mg2       1.0  0.7499999961065055  0.7499999922115522  0.7500000049714212  1.0000
  Ta  Ta1       1.0  8.674533177178873e-09  4.647351027824665e-09  0.9999999971336039  1.0000
  I   I1        1.0  0.24855394242837248  0.24855395131876204  0.7514460538409611  1.0000
  I   I2        1.0  0.7514460632823143  0.7514460537878107  0.2485539412774738  1.0000
  I   I3        1.0  0.7514460803567687  0.2485539011929776  0.24855395707850006  1.0000
  I   I4        1.0  0.24855394323455746  0.7514460853241917  0.7514460485131066  1.0000
  I   I5        1.0  0.24855391354830472  0.7514460802549537  0.24855393440101348  1.0000
  I   I6        1.0  0.7514460670677311  0.24855393879367177  0.7514460384670499  1.0000
