data_image0
_chemical_formula_structural       Mn2AsO6
_chemical_formula_sum              "Mn2 As1 O6"
_cell_length_a       5.2518652501032195
_cell_length_b       5.2518649874621675
_cell_length_c       5.251865270773787
_cell_angle_alpha    59.99999665880066
_cell_angle_beta     59.999997667882
_cell_angle_gamma    59.99999710573882

_space_group_name_H-M_alt    "P 1"
_space_group_IT_number       1

loop_
  _space_group_symop_operation_xyz
  'x, y, z'

loop_
  _atom_site_type_symbol
  _atom_site_label
  _atom_site_symmetry_multiplicity
  _atom_site_fract_x
  _atom_site_fract_y
  _atom_site_fract_z
  _atom_site_occupancy
  Mn  Mn1       1.0  0.24999997457772094  0.2500000216078864  0.24999996521873527  1.0000
  Mn  Mn2       1.0  0.7499999670392763  0.7500000998039432  0.7500000545378879  1.0000
  As  As1       1.0  5.818605379909181e-09  2.3320188401767157e-09  1.8773712600315855e-08  1.0000
  O   O1        1.0  0.24313891606637889  0.24313888574210807  0.7568610977541032  1.0000
  O   O2        1.0  0.7568611383067099  0.7568610491081978  0.24313889416633294  1.0000
  O   O3        1.0  0.7568611382168514  0.24313891840844074  0.2431388599884844  1.0000
  O   O4        1.0  0.24313893578781987  0.7568610630822462  0.7568610949877981  1.0000
  O   O5        1.0  0.24313887276702742  0.7568610818657426  0.2431388887366226  1.0000
  O   O6        1.0  0.7568611133145884  0.2431388599806208  0.7568610862293871  1.0000
