data_image0
_chemical_formula_structural       Mn2AsI6
_chemical_formula_sum              "Mn2 As1 I6"
_cell_length_a       7.772762767233159
_cell_length_b       7.772762787450537
_cell_length_c       7.772762840999574
_cell_angle_alpha    59.99999992432799
_cell_angle_beta     59.99999989571864
_cell_angle_gamma    60.000000084928644

_space_group_name_H-M_alt    "P 1"
_space_group_IT_number       1

loop_
  _space_group_symop_operation_xyz
  'x, y, z'

loop_
  _atom_site_type_symbol
  _atom_site_label
  _atom_site_symmetry_multiplicity
  _atom_site_fract_x
  _atom_site_fract_y
  _atom_site_fract_z
  _atom_site_occupancy
  Mn  Mn1       1.0  0.25000000330827227  0.24999994243766066  0.2500000341791837  1.0000
  Mn  Mn2       1.0  0.7500000024479161  0.7500000636661754  0.7499999134798634  1.0000
  As  As1       1.0  1.9657446326346715e-08  7.87843983387732e-09  1.7109108648084468e-08  1.0000
  I   I1        1.0  0.2576235816066451  0.25762360340770596  0.7423764260804193  1.0000
  I   I2        1.0  0.7423763914824016  0.742376375909435  0.2576236362174383  1.0000
  I   I3        1.0  0.7423764121261353  0.2576235643229924  0.2576236331194999  1.0000
  I   I4        1.0  0.2576236371777024  0.7423763913588294  0.7423763514268691  1.0000
  I   I5        1.0  0.2576235562327867  0.7423764350256175  0.2576236216448252  1.0000
  I   I6        1.0  0.7423763926957113  0.2576236167731693  0.7423763676038186  1.0000
