data_image0
_chemical_formula_structural       Mn2AsBr6
_chemical_formula_sum              "Mn2 As1 Br6"
_cell_length_a       7.07148706245624
_cell_length_b       7.071487033281583
_cell_length_c       7.071486992868188
_cell_angle_alpha    60.00000023699451
_cell_angle_beta     60.00000105547041
_cell_angle_gamma    60.00000036033776

_space_group_name_H-M_alt    "P 1"
_space_group_IT_number       1

loop_
  _space_group_symop_operation_xyz
  'x, y, z'

loop_
  _atom_site_type_symbol
  _atom_site_label
  _atom_site_symmetry_multiplicity
  _atom_site_fract_x
  _atom_site_fract_y
  _atom_site_fract_z
  _atom_site_occupancy
  Mn  Mn1       1.0  0.25000012431907986  0.24999996668906901  0.24999983485475843  1.0000
  Mn  Mn2       1.0  0.7500000095457932  0.7499999762729244  0.749999522309592  1.0000
  As  As1       1.0  0.9999999900045189  1.0391688594046053e-08  5.9195344890029086e-08  1.0000
  Br  Br1       1.0  0.25793344996050716  0.25793330638471773  0.7420667063718063  1.0000
  Br  Br2       1.0  0.7420664581514781  0.7420666868037687  0.2579336379422493  1.0000
  Br  Br3       1.0  0.7420665925551457  0.2579333457600412  0.2579334860003563  1.0000
  Br  Br4       1.0  0.25793350175800334  0.7420665590990917  0.742066635439838  1.0000
  Br  Br5       1.0  0.2579332960198227  0.7420665826866604  0.2579334920974388  1.0000
  Br  Br6       1.0  0.7420665714649403  0.257933571573002  0.7420666279555911  1.0000
