data_image0
_chemical_formula_structural       Mn2AsCl6
_chemical_formula_sum              "Mn2 As1 Cl6"
_cell_length_a       6.671203218731894
_cell_length_b       6.671203318075866
_cell_length_c       6.671203383239694
_cell_angle_alpha    60.000001235303785
_cell_angle_beta     60.00000120100093
_cell_angle_gamma    59.99999836748974

_space_group_name_H-M_alt    "P 1"
_space_group_IT_number       1

loop_
  _space_group_symop_operation_xyz
  'x, y, z'

loop_
  _atom_site_type_symbol
  _atom_site_label
  _atom_site_symmetry_multiplicity
  _atom_site_fract_x
  _atom_site_fract_y
  _atom_site_fract_z
  _atom_site_occupancy
  Mn  Mn1       1.0  0.24999994171020798  0.24999997706871666  0.24999987024289197  1.0000
  Mn  Mn2       1.0  0.7499999832551218  0.749999747619349  0.749999974221132  1.0000
  As  As1       1.0  1.494788615010209e-08  3.30456237627018e-08  5.982844319316131e-09  1.0000
  Cl  Cl1       1.0  0.2539462985309871  0.2539463215891671  0.7460537008126646  1.0000
  Cl  Cl2       1.0  0.7460536377403384  0.7460537482420851  0.25394635066461535  1.0000
  Cl  Cl3       1.0  0.746053872424882  0.25394634079110534  0.25394617367587785  1.0000
  Cl  Cl4       1.0  0.2539463088444904  0.746053679471704  0.746053816062122  1.0000
  Cl  Cl5       1.0  0.2539462411501195  0.7460538213974468  0.25394627878419096  1.0000
  Cl  Cl6       1.0  0.7460537032145664  0.25394633839133807  0.746053824099299  1.0000
