data_image0
_chemical_formula_structural       Mn2AsBr6
_chemical_formula_sum              "Mn2 As1 Br6"
_cell_length_a       7.0717181448841755
_cell_length_b       7.0717181452968605
_cell_length_c       7.071718129748668
_cell_angle_alpha    60.00000114703198
_cell_angle_beta     59.999999527525645
_cell_angle_gamma    59.99999955269303

_space_group_name_H-M_alt    "P 1"
_space_group_IT_number       1

loop_
  _space_group_symop_operation_xyz
  'x, y, z'

loop_
  _atom_site_type_symbol
  _atom_site_label
  _atom_site_symmetry_multiplicity
  _atom_site_fract_x
  _atom_site_fract_y
  _atom_site_fract_z
  _atom_site_occupancy
  Mn  Mn1       1.0  0.25000026801301234  0.2499993140720724  0.25000028563199816  1.0000
  Mn  Mn2       1.0  0.750000187907076  0.750000226581118  0.7499998361205221  1.0000
  As  As1       1.0  1.3705100668799518e-08  5.195674606942788e-08  3.928733604506925e-08  1.0000
  Br  Br1       1.0  0.2579341782146901  0.25793409114834087  0.7420657886145821  1.0000
  Br  Br2       1.0  0.7420655970472824  0.7420660366160746  0.25793416921294815  1.0000
  Br  Br3       1.0  0.7420659195477421  0.2579340374985773  0.25793420733133193  1.0000
  Br  Br4       1.0  0.25793406994779816  0.7420660157945004  0.7420656268799084  1.0000
  Br  Br5       1.0  0.2579339940590688  0.7420661093543222  0.25793420511406906  1.0000
  Br  Br6       1.0  0.7420657743234023  0.2579341223235856  0.7420658399484837  1.0000
