data_image0
_chemical_formula_structural       Mn2AsCl6
_chemical_formula_sum              "Mn2 As1 Cl6"
_cell_length_a       6.6708839259682975
_cell_length_b       6.6708838885372845
_cell_length_c       6.670883868434564
_cell_angle_alpha    59.999999735068315
_cell_angle_beta     59.99999918646501
_cell_angle_gamma    59.99999823077351

_space_group_name_H-M_alt    "P 1"
_space_group_IT_number       1

loop_
  _space_group_symop_operation_xyz
  'x, y, z'

loop_
  _atom_site_type_symbol
  _atom_site_label
  _atom_site_symmetry_multiplicity
  _atom_site_fract_x
  _atom_site_fract_y
  _atom_site_fract_z
  _atom_site_occupancy
  Mn  Mn1       1.0  0.24999989390039445  0.25000022903881675  0.25000002507629715  1.0000
  Mn  Mn2       1.0  0.7499998520163593  0.7499996828485556  0.7500003767782693  1.0000
  As  As1       1.0  0.9999999397135295  1.4687648377696548e-08  7.976337721987592e-08  1.0000
  Cl  Cl1       1.0  0.2539479244027322  0.25394795282569216  0.7460519883563504  1.0000
  Cl  Cl2       1.0  0.7460521840697516  0.7460520086324843  0.25394786415209963  1.0000
  Cl  Cl3       1.0  0.7460521677107759  0.2539479559800726  0.2539477467501941  1.0000
  Cl  Cl4       1.0  0.2539479452015584  0.746052075244429  0.7460521091295648  1.0000
  Cl  Cl5       1.0  0.2539479503565292  0.7460520605475174  0.25394779088368746  1.0000
  Cl  Cl6       1.0  0.7460521408393337  0.2539480202477947  0.7460520180897637  1.0000
