data_image0
_chemical_formula_structural       Mn2AsI6
_chemical_formula_sum              "Mn2 As1 I6"
_cell_length_a       7.772638438478195
_cell_length_b       7.772638465739555
_cell_length_c       7.772638534041514
_cell_angle_alpha    59.99999933949692
_cell_angle_beta     59.99999944195687
_cell_angle_gamma    60.00000046696229

_space_group_name_H-M_alt    "P 1"
_space_group_IT_number       1

loop_
  _space_group_symop_operation_xyz
  'x, y, z'

loop_
  _atom_site_type_symbol
  _atom_site_label
  _atom_site_symmetry_multiplicity
  _atom_site_fract_x
  _atom_site_fract_y
  _atom_site_fract_z
  _atom_site_occupancy
  Mn  Mn1       1.0  0.24999993541894863  0.24999997723777684  0.25000003792403414  1.0000
  Mn  Mn2       1.0  0.7500000476135082  0.7499999474704647  0.7499999105944689  1.0000
  As  As1       1.0  0.9999999727185618  2.8362836600597474e-08  2.7763717460502983e-08  1.0000
  I   I1        1.0  0.2576260694254761  0.25762612940573115  0.7423738874706695  1.0000
  I   I2        1.0  0.7423739413363502  0.7423738992995791  0.257626121267925  1.0000
  I   I3        1.0  0.7423739143754616  0.2576260923121611  0.25762610933508306  1.0000
  I   I4        1.0  0.2576261385392303  0.7423738812431888  0.7423738904632861  1.0000
  I   I5        1.0  0.25762606352789796  0.7423739034824748  0.2576261296598689  1.0000
  I   I6        1.0  0.7423739162011709  0.25762614255568006  0.7423738885018107  1.0000
