data_image0
_chemical_formula_structural       Mn2BCl6
_chemical_formula_sum              "Mn2 B1 Cl6"
_cell_length_a       6.463568855418833
_cell_length_b       6.463568728211066
_cell_length_c       6.463568291610897
_cell_angle_alpha    60.000002035911656
_cell_angle_beta     60.00000171928475
_cell_angle_gamma    59.999999211709444

_space_group_name_H-M_alt    "P 1"
_space_group_IT_number       1

loop_
  _space_group_symop_operation_xyz
  'x, y, z'

loop_
  _atom_site_type_symbol
  _atom_site_label
  _atom_site_symmetry_multiplicity
  _atom_site_fract_x
  _atom_site_fract_y
  _atom_site_fract_z
  _atom_site_occupancy
  Mn  Mn1       1.0  0.25000001717476916  0.25000006668441926  0.24999995304653758  1.0000
  Mn  Mn2       1.0  0.7499999521505017  0.7500001337337512  0.749999796555765  1.0000
  B   B1        1.0  1.4063008010794528e-07  0.9999997764085121  9.40832260055013e-08  1.0000
  Cl  Cl1       1.0  0.2250035022060624  0.2250034516444443  0.7749965854843714  1.0000
  Cl  Cl2       1.0  0.7749966801990049  0.7749966293986074  0.22500331839288482  1.0000
  Cl  Cl3       1.0  0.7749964932442935  0.22500338887207463  0.22500343822846808  1.0000
  Cl  Cl4       1.0  0.22500331928923256  0.7749966334308488  0.7749967604055437  1.0000
  Cl  Cl5       1.0  0.22500338910786338  0.7749966095069565  0.22500329117341009  1.0000
  Cl  Cl6       1.0  0.774996501454739  0.22500331805381035  0.7749967688395034  1.0000
