data_image0
_chemical_formula_structural       Mn2BiCl6
_chemical_formula_sum              "Mn2 Bi1 Cl6"
_cell_length_a       6.8236394087859855
_cell_length_b       6.823639377221351
_cell_length_c       6.823639287880568
_cell_angle_alpha    59.99999880425966
_cell_angle_beta     59.99999994877027
_cell_angle_gamma    60.000001163191044

_space_group_name_H-M_alt    "P 1"
_space_group_IT_number       1

loop_
  _space_group_symop_operation_xyz
  'x, y, z'

loop_
  _atom_site_type_symbol
  _atom_site_label
  _atom_site_symmetry_multiplicity
  _atom_site_fract_x
  _atom_site_fract_y
  _atom_site_fract_z
  _atom_site_occupancy
  Mn  Mn1       1.0  0.2499998273899944  0.24999977906287185  0.2500001391566447  1.0000
  Mn  Mn2       1.0  0.7499998833310509  0.7500000120544084  0.7499999600586439  1.0000
  Bi  Bi1       1.0  0.9999999833858858  0.9999999838462975  3.194465834662223e-09  1.0000
  Cl  Cl1       1.0  0.2648096920386736  0.2648097387019066  0.7351903111803255  1.0000
  Cl  Cl2       1.0  0.7351904131158751  0.7351903108746148  0.264809710722505  1.0000
  Cl  Cl3       1.0  0.7351903788188285  0.2648097020664063  0.26480966203694684  1.0000
  Cl  Cl4       1.0  0.2648097348817893  0.7351903726380983  0.7351902521682512  1.0000
  Cl  Cl5       1.0  0.26480973945293823  0.7351904035239418  0.26480965824183855  1.0000
  Cl  Cl6       1.0  0.7351903455652113  0.26480969630854284  0.7351903075673873  1.0000
