data_image0
_chemical_formula_structural       Mn2BBr6
_chemical_formula_sum              "Mn2 B1 Br6"
_cell_length_a       6.871983363443015
_cell_length_b       6.871983197334137
_cell_length_c       6.871982982210451
_cell_angle_alpha    60.000001376687514
_cell_angle_beta     60.00000161397043
_cell_angle_gamma    59.999999231508966

_space_group_name_H-M_alt    "P 1"
_space_group_IT_number       1

loop_
  _space_group_symop_operation_xyz
  'x, y, z'

loop_
  _atom_site_type_symbol
  _atom_site_label
  _atom_site_symmetry_multiplicity
  _atom_site_fract_x
  _atom_site_fract_y
  _atom_site_fract_z
  _atom_site_occupancy
  Mn  Mn1       1.0  0.24999979367432099  0.25000044700642055  0.24999974439335673  1.0000
  Mn  Mn2       1.0  0.7500004361250732  0.7499998492934633  0.749999621748442  1.0000
  B   B1        1.0  2.972270326726853e-07  0.9999999803954751  0.9999998626439296  1.0000
  Br  Br1       1.0  0.23240293897840394  0.23240315760556846  0.7675970243562732  1.0000
  Br  Br2       1.0  0.767596967157826  0.7675967234349349  0.23240323656823783  1.0000
  Br  Br3       1.0  0.7675969523323294  0.23240306097267283  0.23240309858359015  1.0000
  Br  Br4       1.0  0.232402921420997  0.7675967559075824  0.7675971902399199  1.0000
  Br  Br5       1.0  0.23240284254198917  0.7675968549775972  0.23240321800556138  1.0000
  Br  Br6       1.0  0.767596871867966  0.232403152601177  0.7675969823811734  1.0000
