data_image0
_chemical_formula_structural       Mn2BiBr6
_chemical_formula_sum              "Mn2 Bi1 Br6"
_cell_length_a       7.234219268974031
_cell_length_b       7.234219160905258
_cell_length_c       7.234219122958793
_cell_angle_alpha    59.999999897744985
_cell_angle_beta     59.99999927052876
_cell_angle_gamma    59.99999966655011

_space_group_name_H-M_alt    "P 1"
_space_group_IT_number       1

loop_
  _space_group_symop_operation_xyz
  'x, y, z'

loop_
  _atom_site_type_symbol
  _atom_site_label
  _atom_site_symmetry_multiplicity
  _atom_site_fract_x
  _atom_site_fract_y
  _atom_site_fract_z
  _atom_site_occupancy
  Mn  Mn1       1.0  0.24999988720559727  0.25000001824957163  0.2500000757004793  1.0000
  Mn  Mn2       1.0  0.7499999615021073  0.7500000649066456  0.7500001868123051  1.0000
  Bi  Bi1       1.0  3.369364535512801e-09  1.8622871782503647e-08  0.9999999737983706  1.0000
  Br  Br1       1.0  0.2681576232540075  0.268157508975321  0.7318424148804771  1.0000
  Br  Br2       1.0  0.7318424540954002  0.7318423862591892  0.2681575065742528  1.0000
  Br  Br3       1.0  0.7318424514857557  0.2681576155881994  0.26815752785323843  1.0000
  Br  Br4       1.0  0.268157498812165  0.7318424692610056  0.7318423968778682  1.0000
  Br  Br5       1.0  0.26815765321455165  0.7318424039290109  0.2681575408950392  1.0000
  Br  Br6       1.0  0.7318424656185253  0.2681575200863013  0.7318423716915193  1.0000
