data_image0
_chemical_formula_structural       Mn2BF6
_chemical_formula_sum              "Mn2 B1 F6"
_cell_length_a       5.1298864390721866
_cell_length_b       5.129886260112112
_cell_length_c       5.129886272676102
_cell_angle_alpha    59.99999766808697
_cell_angle_beta     60.000000475707594
_cell_angle_gamma    59.99999810985624

_space_group_name_H-M_alt    "P 1"
_space_group_IT_number       1

loop_
  _space_group_symop_operation_xyz
  'x, y, z'

loop_
  _atom_site_type_symbol
  _atom_site_label
  _atom_site_symmetry_multiplicity
  _atom_site_fract_x
  _atom_site_fract_y
  _atom_site_fract_z
  _atom_site_occupancy
  Mn  Mn1       1.0  0.2500001268747554  0.2500000034351374  0.24999994187378294  1.0000
  Mn  Mn2       1.0  0.7499998783473688  0.7500001058042116  0.74999997052957  1.0000
  B   B1        1.0  9.187109852288983e-09  0.9999999116636145  0.9999999849925326  1.0000
  F   F1        1.0  0.22125157289776115  0.22125126574573345  0.7787486007358134  1.0000
  F   F2        1.0  0.7787484642938377  0.7787487408324066  0.22125145812698277  1.0000
  F   F3        1.0  0.7787485351319803  0.2212513233224373  0.2212514506263663  1.0000
  F   F4        1.0  0.22125138273700337  0.7787487238426924  0.778748612515745  1.0000
  F   F5        1.0  0.22125145741602445  0.7787486651858149  0.2212513369272232  1.0000
  F   F6        1.0  0.7787486010131478  0.22125125066847026  0.778748676754916  1.0000
