data_image0
_chemical_formula_structural       Mn2BiI6
_chemical_formula_sum              "Mn2 Bi1 I6"
_cell_length_a       7.972204354965179
_cell_length_b       7.9722044117157775
_cell_length_c       7.972204656079915
_cell_angle_alpha    60.00000010091045
_cell_angle_beta     59.999999161539165
_cell_angle_gamma    60.000000768919776

_space_group_name_H-M_alt    "P 1"
_space_group_IT_number       1

loop_
  _space_group_symop_operation_xyz
  'x, y, z'

loop_
  _atom_site_type_symbol
  _atom_site_label
  _atom_site_symmetry_multiplicity
  _atom_site_fract_x
  _atom_site_fract_y
  _atom_site_fract_z
  _atom_site_occupancy
  Mn  Mn1       1.0  0.25000001508154646  0.24999985543739398  0.2500000841759479  1.0000
  Mn  Mn2       1.0  0.7499999811554877  0.7500000410192298  0.7500000045707215  1.0000
  Bi  Bi1       1.0  0.999999946993776  1.9971494235131796e-08  8.048963128319658e-08  1.0000
  I   I1        1.0  0.2675901992914422  0.26759015848134315  0.7324098359802965  1.0000
  I   I2        1.0  0.7324098281352496  0.7324098747032006  0.267590119887617  1.0000
  I   I3        1.0  0.7324098232453345  0.26759019974971665  0.2675901533438836  1.0000
  I   I4        1.0  0.2675901937061319  0.7324098257534828  0.732409776480286  1.0000
  I   I5        1.0  0.26759021616119205  0.7324098221370132  0.267590189558808  1.0000
  I   I6        1.0  0.7324097871546514  0.26759020951126117  0.7324097578085754  1.0000
