data_image0
_chemical_formula_structural       Mn2CrBr6
_chemical_formula_sum              "Mn2 Cr1 Br6"
_cell_length_a       6.93986843112692
_cell_length_b       6.93986850555314
_cell_length_c       6.939868663247854
_cell_angle_alpha    59.99999931345696
_cell_angle_beta     59.999998768220735
_cell_angle_gamma    59.99999971450239

_space_group_name_H-M_alt    "P 1"
_space_group_IT_number       1

loop_
  _space_group_symop_operation_xyz
  'x, y, z'

loop_
  _atom_site_type_symbol
  _atom_site_label
  _atom_site_symmetry_multiplicity
  _atom_site_fract_x
  _atom_site_fract_y
  _atom_site_fract_z
  _atom_site_occupancy
  Mn  Mn1       1.0  0.25000024463415665  0.249999829619804  0.2500001253525341  1.0000
  Mn  Mn2       1.0  0.7499999339147974  0.7499997624027144  0.7500002185225458  1.0000
  Cr  Cr1       1.0  9.965874543270319e-09  3.000152359539837e-08  0.9999999281421204  1.0000
  Br  Br1       1.0  0.2499857362612882  0.2499857648055653  0.7500141869239791  1.0000
  Br  Br2       1.0  0.7500141582451438  0.7500143548908095  0.2499857022761091  1.0000
  Br  Br3       1.0  0.7500141046568262  0.24998592558467508  0.24998570197023406  1.0000
  Br  Br4       1.0  0.249985761713808  0.7500142735274974  0.7500141731174498  1.0000
  Br  Br5       1.0  0.24998585743965182  0.7500141829169118  0.24998575094762865  1.0000
  Br  Br6       1.0  0.7500141996728674  0.24998587324682492  0.7500142126373883  1.0000
