data_image0
_chemical_formula_structural       Mn2CF6
_chemical_formula_sum              "Mn2 C1 F6"
_cell_length_a       5.034393000418878
_cell_length_b       5.034393204210383
_cell_length_c       5.03439301373003
_cell_angle_alpha    59.99999737093782
_cell_angle_beta     59.99999672477124
_cell_angle_gamma    59.999993040181074

_space_group_name_H-M_alt    "P 1"
_space_group_IT_number       1

loop_
  _space_group_symop_operation_xyz
  'x, y, z'

loop_
  _atom_site_type_symbol
  _atom_site_label
  _atom_site_symmetry_multiplicity
  _atom_site_fract_x
  _atom_site_fract_y
  _atom_site_fract_z
  _atom_site_occupancy
  Mn  Mn1       1.0  0.25000015202586423  0.2500000927255975  0.24999974372553319  1.0000
  Mn  Mn2       1.0  0.7499999274786919  0.750000253849259  0.7499998274400514  1.0000
  C   C1        1.0  0.9999998774244552  0.9999996521159266  3.3057398767940914e-07  1.0000
  F   F1        1.0  0.21878426749320282  0.21878416066803114  0.7812157933544769  1.0000
  F   F2        1.0  0.7812157291469533  0.7812157601745623  0.21878417711203854  1.0000
  F   F3        1.0  0.7812161766246917  0.21878382390981835  0.21878441586337352  1.0000
  F   F4        1.0  0.21878401434948233  0.7812160093535455  0.7812157614358637  1.0000
  F   F5        1.0  0.21878404032758722  0.7812160200229139  0.21878436314679528  1.0000
  F   F6        1.0  0.7812158194541744  0.218784221943449  0.7812156482715908  1.0000
