data_image0
_chemical_formula_structural       Mn2CoBr6
_chemical_formula_sum              "Mn2 Co1 Br6"
_cell_length_a       6.790822115786395
_cell_length_b       6.790821823116491
_cell_length_c       6.790821849607644
_cell_angle_alpha    59.99999940019948
_cell_angle_beta     60.00000162435894
_cell_angle_gamma    60.000000756635025

_space_group_name_H-M_alt    "P 1"
_space_group_IT_number       1

loop_
  _space_group_symop_operation_xyz
  'x, y, z'

loop_
  _atom_site_type_symbol
  _atom_site_label
  _atom_site_symmetry_multiplicity
  _atom_site_fract_x
  _atom_site_fract_y
  _atom_site_fract_z
  _atom_site_occupancy
  Mn  Mn1       1.0  0.2499997480203419  0.2500000986773234  0.2500001478297672  1.0000
  Mn  Mn2       1.0  0.7500001305005771  0.749999881220158  0.7499997791558746  1.0000
  Co  Co1       1.0  0.9999999895914047  1.082117827083525e-08  0.9999999585615857  1.0000
  Br  Br1       1.0  0.25260331177054046  0.252603434640926  0.747396613325833  1.0000
  Br  Br2       1.0  0.7473967444655324  0.7473965885412697  0.25260344613488417  1.0000
  Br  Br3       1.0  0.7473968108729845  0.2526032480888645  0.25260335044188187  1.0000
  Br  Br4       1.0  0.2526033186358365  0.7473966777027292  0.7473966592295785  1.0000
  Br  Br5       1.0  0.2526032239080198  0.7473966611171879  0.2526033711035553  1.0000
  Br  Br6       1.0  0.7473967240869575  0.25260339092148143  0.7473966765093191  1.0000
