data_image0
_chemical_formula_structural       Mn2CrCl6
_chemical_formula_sum              "Mn2 Cr1 Cl6"
_cell_length_a       6.564659293709525
_cell_length_b       6.564659010676218
_cell_length_c       6.564659200679669
_cell_angle_alpha    59.999999804938476
_cell_angle_beta     60.00000195777374
_cell_angle_gamma    60.00000032381255

_space_group_name_H-M_alt    "P 1"
_space_group_IT_number       1

loop_
  _space_group_symop_operation_xyz
  'x, y, z'

loop_
  _atom_site_type_symbol
  _atom_site_label
  _atom_site_symmetry_multiplicity
  _atom_site_fract_x
  _atom_site_fract_y
  _atom_site_fract_z
  _atom_site_occupancy
  Mn  Mn1       1.0  0.2499999001421161  0.2500001157575636  0.2499998119317631  1.0000
  Mn  Mn2       1.0  0.7500001311321685  0.7499998677970164  0.7499999643952735  1.0000
  Cr  Cr1       1.0  0.99999998786403  5.223859534926716e-08  0.9999999799486875  1.0000
  Cl  Cl1       1.0  0.24964147651774207  0.2496414974387703  0.7503585491552619  1.0000
  Cl  Cl2       1.0  0.7503584621532958  0.7503584842501455  0.24964154860172721  1.0000
  Cl  Cl3       1.0  0.7503585146881752  0.2496415273903059  0.24964145377845443  1.0000
  Cl  Cl4       1.0  0.24964152868546877  0.7503584673582596  0.7503585668177084  1.0000
  Cl  Cl5       1.0  0.24964147189155367  0.7503584938330685  0.24964151814861943  1.0000
  Cl  Cl6       1.0  0.7503585247186269  0.2496414934528404  0.7503586087726354  1.0000
