data_image0
_chemical_formula_structural       Mn2CoI6
_chemical_formula_sum              "Mn2 Co1 I6"
_cell_length_a       7.474296255468892
_cell_length_b       7.474296061386343
_cell_length_c       7.47429601393621
_cell_angle_alpha    59.99999939184358
_cell_angle_beta     59.99999992001408
_cell_angle_gamma    59.999999216893414

_space_group_name_H-M_alt    "P 1"
_space_group_IT_number       1

loop_
  _space_group_symop_operation_xyz
  'x, y, z'

loop_
  _atom_site_type_symbol
  _atom_site_label
  _atom_site_symmetry_multiplicity
  _atom_site_fract_x
  _atom_site_fract_y
  _atom_site_fract_z
  _atom_site_occupancy
  Mn  Mn1       1.0  0.24999989831395522  0.25000004835621015  0.2500000032851505  1.0000
  Mn  Mn2       1.0  0.750000038926162  0.749999956628595  0.7499998705390615  1.0000
  Co  Co1       1.0  4.754905855960252e-08  0.9999999639506018  7.629356093583544e-09  1.0000
  I   I1        1.0  0.24958683210169702  0.24958682966371024  0.7504131675560125  1.0000
  I   I2        1.0  0.7504131748461355  0.7504131654894398  0.24958687701796547  1.0000
  I   I3        1.0  0.7504132280434077  0.24958682577763597  0.24958682907109989  1.0000
  I   I4        1.0  0.24958684169893047  0.750413171014123  0.7504131886379949  1.0000
  I   I5        1.0  0.24958676033098792  0.7504131915095188  0.24958688398928194  1.0000
  I   I6        1.0  0.7504131808878175  0.24958684788607444  0.7504131740038257  1.0000
