data_image0
_chemical_formula_structural       Mn2CrF6
_chemical_formula_sum              "Mn2 Cr1 F6"
_cell_length_a       5.467469039828579
_cell_length_b       5.467469548026801
_cell_length_c       5.467469265438147
_cell_angle_alpha    59.99999973339141
_cell_angle_beta     59.99999937624877
_cell_angle_gamma    59.99999909431849

_space_group_name_H-M_alt    "P 1"
_space_group_IT_number       1

loop_
  _space_group_symop_operation_xyz
  'x, y, z'

loop_
  _atom_site_type_symbol
  _atom_site_label
  _atom_site_symmetry_multiplicity
  _atom_site_fract_x
  _atom_site_fract_y
  _atom_site_fract_z
  _atom_site_occupancy
  Mn  Mn1       1.0  0.24999993534373538  0.250000010436752  0.24999994014488336  1.0000
  Mn  Mn2       1.0  0.7500000620892586  0.7500000044295447  0.7500000771329336  1.0000
  Cr  Cr1       1.0  4.352005349618197e-09  0.9999999932798259  6.671083812819787e-09  1.0000
  F   F1        1.0  0.24655348765881938  0.24655347385839427  0.753446486681366  1.0000
  F   F2        1.0  0.7534465097961526  0.7534465029269207  0.24655340513497173  1.0000
  F   F3        1.0  0.753446593156267  0.24655343397068608  0.24655352606864905  1.0000
  F   F4        1.0  0.24655345106172602  0.7534464532123056  0.753446531658323  1.0000
  F   F5        1.0  0.24655341850423446  0.7534465331904776  0.2465535478870698  1.0000
  F   F6        1.0  0.7534465469493707  0.2465535712781385  0.753446435092281  1.0000
