data_image0
_chemical_formula_structural       Mn2CoF6
_chemical_formula_sum              "Mn2 Co1 F6"
_cell_length_a       5.277590405164957
_cell_length_b       5.277590415201529
_cell_length_c       5.277590402549732
_cell_angle_alpha    59.999999895032175
_cell_angle_beta     59.99999906051535
_cell_angle_gamma    60.000000810792415

_space_group_name_H-M_alt    "P 1"
_space_group_IT_number       1

loop_
  _space_group_symop_operation_xyz
  'x, y, z'

loop_
  _atom_site_type_symbol
  _atom_site_label
  _atom_site_symmetry_multiplicity
  _atom_site_fract_x
  _atom_site_fract_y
  _atom_site_fract_z
  _atom_site_occupancy
  Mn  Mn1       1.0  0.25000001826885654  0.2500000785987362  0.24999999654058178  1.0000
  Mn  Mn2       1.0  0.7500000359381837  0.7499999248288932  0.7500000408513496  1.0000
  Co  Co1       1.0  0.9999999998672802  6.96195476607057e-09  0.9999999662685167  1.0000
  F   F1        1.0  0.24878053294602376  0.24878066279252695  0.7512193862403167  1.0000
  F   F2        1.0  0.7512194813473728  0.7512193684829211  0.24878054349628073  1.0000
  F   F3        1.0  0.7512193557620589  0.24878064019178858  0.24878057954226804  1.0000
  F   F4        1.0  0.24878061570175114  0.7512193423499754  0.7512194926109748  1.0000
  F   F5        1.0  0.2487806274928689  0.7512193346227549  0.24878060886533437  1.0000
  F   F6        1.0  0.7512193447444927  0.24878064559835739  0.751219369321253  1.0000
