data_image0
_chemical_formula_structural       Mn2CI6
_chemical_formula_sum              "Mn2 C1 I6"
_cell_length_a       7.46118272173095
_cell_length_b       7.46118277418263
_cell_length_c       7.461182723478063
_cell_angle_alpha    60.00000014038983
_cell_angle_beta     60.00000040035049
_cell_angle_gamma    59.999999578849405

_space_group_name_H-M_alt    "P 1"
_space_group_IT_number       1

loop_
  _space_group_symop_operation_xyz
  'x, y, z'

loop_
  _atom_site_type_symbol
  _atom_site_label
  _atom_site_symmetry_multiplicity
  _atom_site_fract_x
  _atom_site_fract_y
  _atom_site_fract_z
  _atom_site_occupancy
  Mn  Mn1       1.0  0.25000005529257224  0.2500000928151574  0.24999987271381438  1.0000
  Mn  Mn2       1.0  0.7499999006463519  0.750000038788094  0.7500000649249763  1.0000
  C   C1        1.0  8.097459297316827e-09  8.207444402167413e-09  1.0611329354373515e-08  1.0000
  I   I1        1.0  0.2516399500970639  0.2516398815142902  0.7483600816631999  1.0000
  I   I2        1.0  0.7483601227603239  0.7483600432613585  0.2516398942288105  1.0000
  I   I3        1.0  0.7483600618907212  0.2516399374313508  0.25163992444593064  1.0000
  I   I4        1.0  0.25163993938495915  0.7483600349474766  0.7483601036434462  1.0000
  I   I5        1.0  0.2516399447443751  0.7483600591696339  0.25163990957894056  1.0000
  I   I6        1.0  0.7483600231249138  0.25163990664323815  0.7483601264341788  1.0000
