data_image0
_chemical_formula_structural       Mn2FeCl6
_chemical_formula_sum              "Mn2 Fe1 Cl6"
_cell_length_a       6.4734535980620045
_cell_length_b       6.4734536573871795
_cell_length_c       6.473453473161174
_cell_angle_alpha    60.00000052597549
_cell_angle_beta     60.00000048174438
_cell_angle_gamma    60.000000000703345

_space_group_name_H-M_alt    "P 1"
_space_group_IT_number       1

loop_
  _space_group_symop_operation_xyz
  'x, y, z'

loop_
  _atom_site_type_symbol
  _atom_site_label
  _atom_site_symmetry_multiplicity
  _atom_site_fract_x
  _atom_site_fract_y
  _atom_site_fract_z
  _atom_site_occupancy
  Mn  Mn1       1.0  0.24999971728686307  0.2500002064266054  0.2500000808444577  1.0000
  Mn  Mn2       1.0  0.7499998156373593  0.7500002333220736  0.7500005098985029  1.0000
  Fe  Fe1       1.0  1.9693567575434332e-07  0.9999998372923253  0.9999999828859998  1.0000
  Cl  Cl1       1.0  0.24930695385499554  0.24930660993831782  0.750693242798507  1.0000
  Cl  Cl2       1.0  0.7506932337543559  0.7506930162719928  0.24930668742600257  1.0000
  Cl  Cl3       1.0  0.7506932268557492  0.24930678978916543  0.2493067781240155  1.0000
  Cl  Cl4       1.0  0.249306721975442  0.750693322652217  0.7506931473213658  1.0000
  Cl  Cl5       1.0  0.2493068552654446  0.750693262282598  0.2493065845724435  1.0000
  Cl  Cl6       1.0  0.7506932620511034  0.24930671393840695  0.7506930018834128  1.0000
