data_image0
_chemical_formula_structural       Mn2FeI6
_chemical_formula_sum              "Mn2 Fe1 I6"
_cell_length_a       7.512019375005888
_cell_length_b       7.512019542255074
_cell_length_c       7.512019245681205
_cell_angle_alpha    59.9999984975119
_cell_angle_beta     59.99999802498879
_cell_angle_gamma    59.99999971098059

_space_group_name_H-M_alt    "P 1"
_space_group_IT_number       1

loop_
  _space_group_symop_operation_xyz
  'x, y, z'

loop_
  _atom_site_type_symbol
  _atom_site_label
  _atom_site_symmetry_multiplicity
  _atom_site_fract_x
  _atom_site_fract_y
  _atom_site_fract_z
  _atom_site_occupancy
  Mn  Mn1       1.0  0.25000015834961353  0.24999983969438955  0.2500002633820815  1.0000
  Mn  Mn2       1.0  0.7500001276155961  0.750000058739078  0.7499995904701094  1.0000
  Fe  Fe1       1.0  0.9999999547703119  3.423798145183802e-08  2.3446225300241393e-07  1.0000
  I   I1        1.0  0.2317604991914258  0.23176044754231814  0.7682394645841526  1.0000
  I   I2        1.0  0.7682394803532435  0.7682395862127123  0.23176057998232988  1.0000
  I   I3        1.0  0.7682395215635054  0.23176039412224597  0.23176053587929857  1.0000
  I   I4        1.0  0.2317605353682403  0.7682395043112223  0.7682393406368286  1.0000
  I   I5        1.0  0.23176034676567722  0.7682395211242635  0.23176055604454718  1.0000
  I   I6        1.0  0.7682393764632829  0.231760626757391  0.7682394318212806  1.0000
