data_image0
_chemical_formula_structural       Mn2FeBr6
_chemical_formula_sum              "Mn2 Fe1 Br6"
_cell_length_a       6.8849787388225385
_cell_length_b       6.88497869966497
_cell_length_c       6.884978550140308
_cell_angle_alpha    59.99999734091742
_cell_angle_beta     59.99999739735454
_cell_angle_gamma    59.999995586167934

_space_group_name_H-M_alt    "P 1"
_space_group_IT_number       1

loop_
  _space_group_symop_operation_xyz
  'x, y, z'

loop_
  _atom_site_type_symbol
  _atom_site_label
  _atom_site_symmetry_multiplicity
  _atom_site_fract_x
  _atom_site_fract_y
  _atom_site_fract_z
  _atom_site_occupancy
  Mn  Mn1       1.0  0.24999996479838574  0.25000006746288966  0.2500000717920425  1.0000
  Mn  Mn2       1.0  0.7500003396605625  0.7499994552652793  0.749999682207135  1.0000
  Fe  Fe1       1.0  0.9999999284239859  8.894326068003643e-08  9.298699085937513e-08  1.0000
  Br  Br1       1.0  0.23757406751908558  0.2375744664837482  0.7624257409475131  1.0000
  Br  Br2       1.0  0.7624259207641224  0.7624257179822821  0.2375742760018003  1.0000
  Br  Br3       1.0  0.7624258331135695  0.2375741376454529  0.23757416420589716  1.0000
  Br  Br4       1.0  0.23757420286188935  0.7624258031160428  0.762425854888698  1.0000
  Br  Br5       1.0  0.2375739808200119  0.762425890964233  0.23757419242912403  1.0000
  Br  Br6       1.0  0.7624257711389398  0.23757437355073896  0.7624259113724753  1.0000
