data_image0
_chemical_formula_structural       Mn2GaBr6
_chemical_formula_sum              "Mn2 Ga1 Br6"
_cell_length_a       6.944778045235606
_cell_length_b       6.944778018910225
_cell_length_c       6.944778089566601
_cell_angle_alpha    60.00000011159457
_cell_angle_beta     60.00000053995406
_cell_angle_gamma    59.99999948023014

_space_group_name_H-M_alt    "P 1"
_space_group_IT_number       1

loop_
  _space_group_symop_operation_xyz
  'x, y, z'

loop_
  _atom_site_type_symbol
  _atom_site_label
  _atom_site_symmetry_multiplicity
  _atom_site_fract_x
  _atom_site_fract_y
  _atom_site_fract_z
  _atom_site_occupancy
  Mn  Mn1       1.0  0.25000007783291955  0.2500000586917269  0.24999987427760698  1.0000
  Mn  Mn2       1.0  0.7499999747793327  0.7499998797991347  0.7500001724774791  1.0000
  Ga  Ga1       1.0  1.4609707747478237e-09  1.0581287422871749e-08  0.9999999896590784  1.0000
  Br  Br1       1.0  0.25575345169025626  0.25575348139164955  0.7442465487988323  1.0000
  Br  Br2       1.0  0.7442464867323959  0.744246545276608  0.255753420246714  1.0000
  Br  Br3       1.0  0.7442465678242646  0.2557535127765357  0.25575341325351686  1.0000
  Br  Br4       1.0  0.2557534313629193  0.7442464662759282  0.7442465852159311  1.0000
  Br  Br5       1.0  0.25575347092345185  0.7442465410132589  0.25575346374624885  1.0000
  Br  Br6       1.0  0.7442465287161127  0.2557535015269296  0.7442465329916939  1.0000
