data_image0
_chemical_formula_structural       Mn2GeBr6
_chemical_formula_sum              "Mn2 Ge1 Br6"
_cell_length_a       7.0103881037967195
_cell_length_b       7.0103879655893175
_cell_length_c       7.010388069403453
_cell_angle_alpha    59.9999978635768
_cell_angle_beta     59.99999864134019
_cell_angle_gamma    59.99999918873488

_space_group_name_H-M_alt    "P 1"
_space_group_IT_number       1

loop_
  _space_group_symop_operation_xyz
  'x, y, z'

loop_
  _atom_site_type_symbol
  _atom_site_label
  _atom_site_symmetry_multiplicity
  _atom_site_fract_x
  _atom_site_fract_y
  _atom_site_fract_z
  _atom_site_occupancy
  Mn  Mn1       1.0  0.24999989349983703  0.2500000744757799  0.2500001220468112  1.0000
  Mn  Mn2       1.0  0.750000218319826  0.7499997464846186  0.7500000447049069  1.0000
  Ge  Ge1       1.0  0.9999999772399564  0.9999999842766144  0.9999999151105324  1.0000
  Br  Br1       1.0  0.25497534299238944  0.25497543678342355  0.7450245555940195  1.0000
  Br  Br2       1.0  0.7450246213135772  0.7450246340041202  0.2549753503121529  1.0000
  Br  Br3       1.0  0.7450244884452271  0.2549755754738449  0.2549753282236389  1.0000
  Br  Br4       1.0  0.2549753041911261  0.7450246298360046  0.7450246789905522  1.0000
  Br  Br5       1.0  0.25497545056511184  0.7450244701976234  0.25497544355670604  1.0000
  Br  Br6       1.0  0.7450247026639227  0.2549754538383115  0.7450245610859195  1.0000
