data_image0
_chemical_formula_structural       Mn2GaI6
_chemical_formula_sum              "Mn2 Ga1 I6"
_cell_length_a       7.638890226983228
_cell_length_b       7.638890355380248
_cell_length_c       7.63889036664583
_cell_angle_alpha    59.99999967499182
_cell_angle_beta     59.99999921820388
_cell_angle_gamma    59.999999716190096

_space_group_name_H-M_alt    "P 1"
_space_group_IT_number       1

loop_
  _space_group_symop_operation_xyz
  'x, y, z'

loop_
  _atom_site_type_symbol
  _atom_site_label
  _atom_site_symmetry_multiplicity
  _atom_site_fract_x
  _atom_site_fract_y
  _atom_site_fract_z
  _atom_site_occupancy
  Mn  Mn1       1.0  0.24999997679401068  0.24999998008239163  0.24999996528868876  1.0000
  Mn  Mn2       1.0  0.7499999793009466  0.7500000701146422  0.7499999033455834  1.0000
  Ga  Ga1       1.0  5.771347844971031e-09  1.4429718684182638e-08  0.9999999676449256  1.0000
  I   I1        1.0  0.25548897113988234  0.25548893478317025  0.7445110452933706  1.0000
  I   I2        1.0  0.7445110410994137  0.7445110512817802  0.2554889844256527  1.0000
  I   I3        1.0  0.7445110693713383  0.25548890503451716  0.25548902118983335  1.0000
  I   I4        1.0  0.25548895621307643  0.7445110682040165  0.7445110409971054  1.0000
  I   I5        1.0  0.2554889509282373  0.7445110277223821  0.25548899906436784  1.0000
  I   I6        1.0  0.7445110488671514  0.25548895032605795  0.7445110683757682  1.0000
