data_image0
_chemical_formula_structural       Mn2GaCl6
_chemical_formula_sum              "Mn2 Ga1 Cl6"
_cell_length_a       6.5772409919103
_cell_length_b       6.577241046489802
_cell_length_c       6.577241219380544
_cell_angle_alpha    59.9999995384828
_cell_angle_beta     59.999999090417056
_cell_angle_gamma    59.99999854041821

_space_group_name_H-M_alt    "P 1"
_space_group_IT_number       1

loop_
  _space_group_symop_operation_xyz
  'x, y, z'

loop_
  _atom_site_type_symbol
  _atom_site_label
  _atom_site_symmetry_multiplicity
  _atom_site_fract_x
  _atom_site_fract_y
  _atom_site_fract_z
  _atom_site_occupancy
  Mn  Mn1       1.0  0.25000011097447616  0.2500000084190207  0.24999989899319697  1.0000
  Mn  Mn2       1.0  0.7499999320624303  0.7499999638079274  0.7500000376030453  1.0000
  Ga  Ga1       1.0  2.0750854435297977e-09  0.9999999832411437  7.423923420089907e-08  1.0000
  Cl  Cl1       1.0  0.25237273096769813  0.25237271054709387  0.7476273003273269  1.0000
  Cl  Cl2       1.0  0.7476272622551609  0.7476273268531864  0.25237274261884485  1.0000
  Cl  Cl3       1.0  0.7476273324175856  0.25237265997442904  0.2523727599149273  1.0000
  Cl  Cl4       1.0  0.25237277751171117  0.7476271800437609  0.7476272245434417  1.0000
  Cl  Cl5       1.0  0.2523726913391225  0.747627371849664  0.25237273428853196  1.0000
  Cl  Cl6       1.0  0.7476271607419351  0.252372794035185  0.7476272252829933  1.0000
