data_image0
_chemical_formula_structural       Mn2GaBr6
_chemical_formula_sum              "Mn2 Ga1 Br6"
_cell_length_a       6.94477846498356
_cell_length_b       6.944778540055001
_cell_length_c       6.944778556394042
_cell_angle_alpha    59.99999931133153
_cell_angle_beta     59.999999920805024
_cell_angle_gamma    59.99999904160293

_space_group_name_H-M_alt    "P 1"
_space_group_IT_number       1

loop_
  _space_group_symop_operation_xyz
  'x, y, z'

loop_
  _atom_site_type_symbol
  _atom_site_label
  _atom_site_symmetry_multiplicity
  _atom_site_fract_x
  _atom_site_fract_y
  _atom_site_fract_z
  _atom_site_occupancy
  Mn  Mn1       1.0  0.25000008709411986  0.2500000641745349  0.2499998780664236  1.0000
  Mn  Mn2       1.0  0.7499998245889947  0.7499998415775968  0.7500002929662104  1.0000
  Ga  Ga1       1.0  0.9999999622278427  3.350740836465609e-08  0.9999999934927899  1.0000
  Br  Br1       1.0  0.2557534720608116  0.25575348121585484  0.7442465320283301  1.0000
  Br  Br2       1.0  0.7442464830682638  0.7442465585659094  0.25575341923281125  1.0000
  Br  Br3       1.0  0.744246555474586  0.2557535741500447  0.25575333079202345  1.0000
  Br  Br4       1.0  0.25575351253291523  0.7442464462326929  0.7442465751693493  1.0000
  Br  Br5       1.0  0.25575350820514375  0.7442465437409059  0.2557534294180967  1.0000
  Br  Br6       1.0  0.7442465956092493  0.2557534590063526  0.7442465480936902  1.0000
