data_image0
_chemical_formula_structural       Mn2GaI6
_chemical_formula_sum              "Mn2 Ga1 I6"
_cell_length_a       7.638890102139855
_cell_length_b       7.63889010880028
_cell_length_c       7.638890145649884
_cell_angle_alpha    60.00000008536093
_cell_angle_beta     59.999999122943365
_cell_angle_gamma    59.999999680273426

_space_group_name_H-M_alt    "P 1"
_space_group_IT_number       1

loop_
  _space_group_symop_operation_xyz
  'x, y, z'

loop_
  _atom_site_type_symbol
  _atom_site_label
  _atom_site_symmetry_multiplicity
  _atom_site_fract_x
  _atom_site_fract_y
  _atom_site_fract_z
  _atom_site_occupancy
  Mn  Mn1       1.0  0.24999999149892313  0.24999998664053466  0.2500000018675936  1.0000
  Mn  Mn2       1.0  0.7499999808313166  0.7500000769626587  0.749999955696796  1.0000
  Ga  Ga1       1.0  2.6582811423350498e-08  6.413208216179666e-09  0.9999999481565414  1.0000
  I   I1        1.0  0.25548897751523525  0.255488918169368  0.7445110191431715  1.0000
  I   I2        1.0  0.7445110212773558  0.7445110524423023  0.2554889729948944  1.0000
  I   I3        1.0  0.7445110494676834  0.25548892840193665  0.255488997551081  1.0000
  I   I4        1.0  0.2554889164048495  0.7445110774823808  0.7445110719561324  1.0000
  I   I5        1.0  0.25548894950302903  0.744511042785962  0.2554889728462351  1.0000
  I   I6        1.0  0.7445110863776647  0.25548891179268735  0.7445110611279174  1.0000
