data_image0
_chemical_formula_structural       Mn2GeI6
_chemical_formula_sum              "Mn2 Ge1 I6"
_cell_length_a       7.687677945726557
_cell_length_b       7.687677898393562
_cell_length_c       7.68767790179431
_cell_angle_alpha    59.99999962635558
_cell_angle_beta     60.00000007479105
_cell_angle_gamma    59.999999734300985

_space_group_name_H-M_alt    "P 1"
_space_group_IT_number       1

loop_
  _space_group_symop_operation_xyz
  'x, y, z'

loop_
  _atom_site_type_symbol
  _atom_site_label
  _atom_site_symmetry_multiplicity
  _atom_site_fract_x
  _atom_site_fract_y
  _atom_site_fract_z
  _atom_site_occupancy
  Mn  Mn1       1.0  0.24999991683737424  0.25000005526250635  0.2500000545642494  1.0000
  Mn  Mn2       1.0  0.7500000492804055  0.7499999363772025  0.7500000483652253  1.0000
  Ge  Ge1       1.0  1.3518132406228258e-08  3.946746094428234e-17  0.9999999828346705  1.0000
  I   I1        1.0  0.26047582280435155  0.26047586049869814  0.7395241558826601  1.0000
  I   I2        1.0  0.7395241509900943  0.7395241486654104  0.2604758459930439  1.0000
  I   I3        1.0  0.7395241377540549  0.2604758630202335  0.26047583046076267  1.0000
  I   I4        1.0  0.2604758404553224  0.7395241509232567  0.7395241290950806  1.0000
  I   I5        1.0  0.26047586755324903  0.7395241478867137  0.260475835249611  1.0000
  I   I6        1.0  0.7395241962865995  0.2604758389736139  0.73952411844667  1.0000
