data_image0
_chemical_formula_structural       Mn2GaF6
_chemical_formula_sum              "Mn2 Ga1 F6"
_cell_length_a       5.4671814174040545
_cell_length_b       5.467181475904309
_cell_length_c       5.467181341640878
_cell_angle_alpha    59.999996504086255
_cell_angle_beta     60.000000110679395
_cell_angle_gamma    59.999999011541014

_space_group_name_H-M_alt    "P 1"
_space_group_IT_number       1

loop_
  _space_group_symop_operation_xyz
  'x, y, z'

loop_
  _atom_site_type_symbol
  _atom_site_label
  _atom_site_symmetry_multiplicity
  _atom_site_fract_x
  _atom_site_fract_y
  _atom_site_fract_z
  _atom_site_occupancy
  Mn  Mn1       1.0  0.24999985228487345  0.25000002822049283  0.25000009104039533  1.0000
  Mn  Mn2       1.0  0.7500000615084111  0.7500000913820154  0.7499999022009672  1.0000
  Ga  Ga1       1.0  0.9999999899521804  0.9999999731178867  2.3952255593728575e-08  1.0000
  F   F1        1.0  0.24343297828805172  0.24343293048198647  0.7565670221161926  1.0000
  F   F2        1.0  0.7565670660502781  0.7565670255876694  0.2434329766445019  1.0000
  F   F3        1.0  0.7565670626986221  0.24343291683445853  0.24343297903567715  1.0000
  F   F4        1.0  0.24343298012427594  0.7565670817985414  0.7565670284665974  1.0000
  F   F5        1.0  0.24343301780608467  0.7565670501812587  0.24343288835484117  1.0000
  F   F6        1.0  0.7565669872560008  0.24343293501068636  0.7565671081664456  1.0000
