data_image0
_chemical_formula_structural       Mn2GaF6
_chemical_formula_sum              "Mn2 Ga1 F6"
_cell_length_a       5.467181499239632
_cell_length_b       5.467181448715801
_cell_length_c       5.467181328719084
_cell_angle_alpha    59.999999110611746
_cell_angle_beta     59.99999972237177
_cell_angle_gamma    59.99999771914973

_space_group_name_H-M_alt    "P 1"
_space_group_IT_number       1

loop_
  _space_group_symop_operation_xyz
  'x, y, z'

loop_
  _atom_site_type_symbol
  _atom_site_label
  _atom_site_symmetry_multiplicity
  _atom_site_fract_x
  _atom_site_fract_y
  _atom_site_fract_z
  _atom_site_occupancy
  Mn  Mn1       1.0  0.2500000113184605  0.25000006014112075  0.2499999634340136  1.0000
  Mn  Mn2       1.0  0.7500000993889975  0.7500000348119179  0.7499999431946286  1.0000
  Ga  Ga1       1.0  0.9999999890773379  0.9999999820785923  0.9999999778401134  1.0000
  F   F1        1.0  0.2434328986873629  0.2434330245439048  0.7565669838521423  1.0000
  F   F2        1.0  0.7565670786640051  0.7565669382387499  0.24343302993239457  1.0000
  F   F3        1.0  0.7565669991982323  0.24343290868169154  0.24343301424597072  1.0000
  F   F4        1.0  0.24343294930906356  0.7565670899437801  0.7565670289629234  1.0000
  F   F5        1.0  0.24343295317478975  0.7565670923215763  0.2434329094980186  1.0000
  F   F6        1.0  0.7565670255419107  0.24343287270125383  0.7565671573566473  1.0000
