data_image0
_chemical_formula_structural       Mn2HfBr6
_chemical_formula_sum              "Mn2 Hf1 Br6"
_cell_length_a       7.230847107974572
_cell_length_b       7.230846998564679
_cell_length_c       7.230847002147357
_cell_angle_alpha    60.00000001022482
_cell_angle_beta     60.0000009470601
_cell_angle_gamma    59.999999646172775

_space_group_name_H-M_alt    "P 1"
_space_group_IT_number       1

loop_
  _space_group_symop_operation_xyz
  'x, y, z'

loop_
  _atom_site_type_symbol
  _atom_site_label
  _atom_site_symmetry_multiplicity
  _atom_site_fract_x
  _atom_site_fract_y
  _atom_site_fract_z
  _atom_site_occupancy
  Mn  Mn1       1.0  0.2500000089481692  0.2500000633896849  0.24999994248008253  1.0000
  Mn  Mn2       1.0  0.7500000700636292  0.7499998497196989  0.7500001641384482  1.0000
  Hf  Hf1       1.0  0.9999999937092323  0.9999999949186664  0.9999999600482435  1.0000
  Br  Br1       1.0  0.25372221788784877  0.2537223241868297  0.7462777337532686  1.0000
  Br  Br2       1.0  0.7462777668398324  0.746277704099451  0.2537222434839811  1.0000
  Br  Br3       1.0  0.7462777186183669  0.25372233321782983  0.2537222126563479  1.0000
  Br  Br4       1.0  0.2537222250241616  0.7462777560444551  0.7462777463376927  1.0000
  Br  Br5       1.0  0.25372224287783507  0.7462777482885652  0.25372222615450096  1.0000
  Br  Br6       1.0  0.7462777636752214  0.2537222241030452  0.7462777736492516  1.0000
