data_image0
_chemical_formula_structural       Mn2HfCl6
_chemical_formula_sum              "Mn2 Hf1 Cl6"
_cell_length_a       6.769937488202696
_cell_length_b       6.769938059769821
_cell_length_c       6.7699379376151025
_cell_angle_alpha    60.000003519921755
_cell_angle_beta     60.000002047170796
_cell_angle_gamma    60.00000080526476

_space_group_name_H-M_alt    "P 1"
_space_group_IT_number       1

loop_
  _space_group_symop_operation_xyz
  'x, y, z'

loop_
  _atom_site_type_symbol
  _atom_site_label
  _atom_site_symmetry_multiplicity
  _atom_site_fract_x
  _atom_site_fract_y
  _atom_site_fract_z
  _atom_site_occupancy
  Mn  Mn1       1.0  0.25000007386072964  0.25000004943613346  0.2499999801325226  1.0000
  Mn  Mn2       1.0  0.7499998213977861  0.750000084990155  0.7500002223709038  1.0000
  Hf  Hf1       1.0  0.9999999619588291  2.713639649448121e-08  0.9999999345507027  1.0000
  Cl  Cl1       1.0  0.2558044557757312  0.2558043322221556  0.7441955744165821  1.0000
  Cl  Cl2       1.0  0.7441955917331583  0.7441957189858399  0.25580427008187406  1.0000
  Cl  Cl3       1.0  0.7441954945501782  0.25580447776723453  0.25580444912087674  1.0000
  Cl  Cl4       1.0  0.2558045492223548  0.744195441376965  0.7441954898657841  1.0000
  Cl  Cl5       1.0  0.2558045912001071  0.7441954728242439  0.2558044368000593  1.0000
  Cl  Cl6       1.0  0.7441954516945098  0.25580440290172285  0.7441956188702535  1.0000
