data_image0
_chemical_formula_structural       Mn2IrBr6
_chemical_formula_sum              "Mn2 Ir1 Br6"
_cell_length_a       7.011695309782111
_cell_length_b       7.011695404209777
_cell_length_c       7.011695333070555
_cell_angle_alpha    60.0000002839737
_cell_angle_beta     60.00000088166141
_cell_angle_gamma    60.00000041825216

_space_group_name_H-M_alt    "P 1"
_space_group_IT_number       1

loop_
  _space_group_symop_operation_xyz
  'x, y, z'

loop_
  _atom_site_type_symbol
  _atom_site_label
  _atom_site_symmetry_multiplicity
  _atom_site_fract_x
  _atom_site_fract_y
  _atom_site_fract_z
  _atom_site_occupancy
  Mn  Mn1       1.0  0.24999994271698633  0.25000006989488893  0.24999999311161422  1.0000
  Mn  Mn2       1.0  0.7500000699055229  0.7499999389435063  0.7500001692493415  1.0000
  Ir  Ir1       1.0  0.9999999756487971  0.9999998951969703  1.1734609461839879e-07  1.0000
  Br  Br1       1.0  0.24903392865182764  0.24903397418995868  0.7509660370744229  1.0000
  Br  Br2       1.0  0.7509661357042576  0.7509660276615688  0.24903386473968175  1.0000
  Br  Br3       1.0  0.7509660824783057  0.24903396775875047  0.24903391165348557  1.0000
  Br  Br4       1.0  0.2490339177345278  0.7509660585468174  0.750966044233751  1.0000
  Br  Br5       1.0  0.24903388907047466  0.7509661690177654  0.24903381249468268  1.0000
  Br  Br6       1.0  0.7509660554158626  0.249033900955732  0.750966046736257  1.0000
