data_image0
_chemical_formula_structural       Mn2IrF6
_chemical_formula_sum              "Mn2 Ir1 F6"
_cell_length_a       5.55868689548496
_cell_length_b       5.558686851011801
_cell_length_c       5.558686994364995
_cell_angle_alpha    60.00000084649721
_cell_angle_beta     60.00000108746309
_cell_angle_gamma    60.00000183814446

_space_group_name_H-M_alt    "P 1"
_space_group_IT_number       1

loop_
  _space_group_symop_operation_xyz
  'x, y, z'

loop_
  _atom_site_type_symbol
  _atom_site_label
  _atom_site_symmetry_multiplicity
  _atom_site_fract_x
  _atom_site_fract_y
  _atom_site_fract_z
  _atom_site_occupancy
  Mn  Mn1       1.0  0.2500000538251955  0.24999984594342792  0.2500000552011299  1.0000
  Mn  Mn2       1.0  0.7500000986886747  0.7499999256108878  0.7500000480811976  1.0000
  Ir  Ir1       1.0  0.9999999838640946  1.1016494008142377e-08  0.9999999881678178  1.0000
  F   F1        1.0  0.25525838328663486  0.2552584549334264  0.744741556033659  1.0000
  F   F2        1.0  0.7447415719853582  0.7447415655936593  0.2552584224389933  1.0000
  F   F3        1.0  0.7447414986711434  0.2552585342597524  0.25525837367489257  1.0000
  F   F4        1.0  0.2552584408825021  0.7447416206685653  0.7447415382603753  1.0000
  F   F5        1.0  0.255258372282019  0.7447416209473937  0.25525842419604705  1.0000
  F   F6        1.0  0.7447415852976625  0.25525842381598024  0.7447415643914352  1.0000
