data_image0
_chemical_formula_structural       Mn2IrI6
_chemical_formula_sum              "Mn2 Ir1 I6"
_cell_length_a       7.549334778919938
_cell_length_b       7.549334850726193
_cell_length_c       7.549334817945329
_cell_angle_alpha    59.999999874877226
_cell_angle_beta     59.999999659813184
_cell_angle_gamma    59.99999904971983

_space_group_name_H-M_alt    "P 1"
_space_group_IT_number       1

loop_
  _space_group_symop_operation_xyz
  'x, y, z'

loop_
  _atom_site_type_symbol
  _atom_site_label
  _atom_site_symmetry_multiplicity
  _atom_site_fract_x
  _atom_site_fract_y
  _atom_site_fract_z
  _atom_site_occupancy
  Mn  Mn1       1.0  0.2500000310918658  0.2499999719807345  0.2500000163170176  1.0000
  Mn  Mn2       1.0  0.7499999853409574  0.7500000149038207  0.7499999554156829  1.0000
  Ir  Ir1       1.0  1.861690094098771e-08  1.2978572302267315e-08  9.77035085459445e-11  1.0000
  I   I1        1.0  0.2501168409720978  0.2501168217313248  0.7498831561710423  1.0000
  I   I2        1.0  0.7498831432476144  0.7498831700201956  0.2501168517532714  1.0000
  I   I3        1.0  0.7498831457171965  0.25011680051026675  0.2501168630696676  1.0000
  I   I4        1.0  0.2501168377761775  0.7498832025975046  0.74988314616279  1.0000
  I   I5        1.0  0.2501168118697551  0.74988319568906  0.2501168360017515  1.0000
  I   I6        1.0  0.7498831852966917  0.25011681228567584  0.7498831732330273  1.0000
