data_image0
_chemical_formula_structural       Mn2IrI6
_chemical_formula_sum              "Mn2 Ir1 I6"
_cell_length_a       7.548206347669713
_cell_length_b       7.548206311433955
_cell_length_c       7.548206377515417
_cell_angle_alpha    60.00000010802726
_cell_angle_beta     59.999999632768265
_cell_angle_gamma    59.99999986250867

_space_group_name_H-M_alt    "P 1"
_space_group_IT_number       1

loop_
  _space_group_symop_operation_xyz
  'x, y, z'

loop_
  _atom_site_type_symbol
  _atom_site_label
  _atom_site_symmetry_multiplicity
  _atom_site_fract_x
  _atom_site_fract_y
  _atom_site_fract_z
  _atom_site_occupancy
  Mn  Mn1       1.0  0.2500000360116235  0.2500000507895146  0.24999991334956986  1.0000
  Mn  Mn2       1.0  0.7499999624153212  0.7500000339213638  0.7499999767426992  1.0000
  Ir  Ir1       1.0  0.9999999947929663  0.9999999789066664  0.9999999972523671  1.0000
  I   I1        1.0  0.2501832323283976  0.2501831728309512  0.7498167980542639  1.0000
  I   I2        1.0  0.7498168261625302  0.7498168372419783  0.2501831721899803  1.0000
  I   I3        1.0  0.7498167925485698  0.25018316145801217  0.2501832350547757  1.0000
  I   I4        1.0  0.2501831895785901  0.7498167885800455  0.7498168471077837  1.0000
  I   I5        1.0  0.2501831857190592  0.7498168037297187  0.2501832157534244  1.0000
  I   I6        1.0  0.7498167831651212  0.25018317226936465  0.7498168441522955  1.0000
