data_image0
_chemical_formula_structural       Mn2MoI6
_chemical_formula_sum              "Mn2 Mo1 I6"
_cell_length_a       7.72444907638992
_cell_length_b       7.724448931476534
_cell_length_c       7.7244489123445605
_cell_angle_alpha    60.00000024116618
_cell_angle_beta     59.99999956853719
_cell_angle_gamma    59.99999983296748

_space_group_name_H-M_alt    "P 1"
_space_group_IT_number       1

loop_
  _space_group_symop_operation_xyz
  'x, y, z'

loop_
  _atom_site_type_symbol
  _atom_site_label
  _atom_site_symmetry_multiplicity
  _atom_site_fract_x
  _atom_site_fract_y
  _atom_site_fract_z
  _atom_site_occupancy
  Mn  Mn1       1.0  0.2499999204606689  0.2500000306544175  0.25000008653127104  1.0000
  Mn  Mn2       1.0  0.7500000423129852  0.7499999667053266  0.7500000367631219  1.0000
  Mo  Mo1       1.0  0.9999999412313294  5.073738720627495e-08  0.9999999729454646  1.0000
  I   I1        1.0  0.25341597431560886  0.2534160773548764  0.7465839512809513  1.0000
  I   I2        1.0  0.746584006696905  0.746584008795295  0.2534159760938174  1.0000
  I   I3        1.0  0.746584025368996  0.25341598442044194  0.2534159305297369  1.0000
  I   I4        1.0  0.25341600882656246  0.7465839780573472  0.7465839712439352  1.0000
  I   I5        1.0  0.25341600071129755  0.746583938586382  0.2534160715736614  1.0000
  I   I6        1.0  0.7465840803846917  0.25341596839739067  0.746584001499008  1.0000
