data_image0
_chemical_formula_structural       Mn2MoF6
_chemical_formula_sum              "Mn2 Mo1 F6"
_cell_length_a       5.753552794751522
_cell_length_b       5.753552237822958
_cell_length_c       5.753552856239563
_cell_angle_alpha    59.99999838101478
_cell_angle_beta     59.9999986852818
_cell_angle_gamma    59.99999957318975

_space_group_name_H-M_alt    "P 1"
_space_group_IT_number       1

loop_
  _space_group_symop_operation_xyz
  'x, y, z'

loop_
  _atom_site_type_symbol
  _atom_site_label
  _atom_site_symmetry_multiplicity
  _atom_site_fract_x
  _atom_site_fract_y
  _atom_site_fract_z
  _atom_site_occupancy
  Mn  Mn1       1.0  0.2500000735696794  0.2500000129586148  0.2500000093091244  1.0000
  Mn  Mn2       1.0  0.7499999894454591  0.7500000282324558  0.7500000498116375  1.0000
  Mo  Mo1       1.0  2.856316427931585e-08  1.0643380572814592e-08  0.9999999612781059  1.0000
  F   F1        1.0  0.2501800923122228  0.2501799882881608  0.7498199778400687  1.0000
  F   F2        1.0  0.7498199079001218  0.7498200486455521  0.25017995490957057  1.0000
  F   F3        1.0  0.7498199189637283  0.25018004120410553  0.2501801047391824  1.0000
  F   F4        1.0  0.2501800360630427  0.7498199446413822  0.7498199456696161  1.0000
  F   F5        1.0  0.2501800344193298  0.7498199339865078  0.2501800385638385  1.0000
  F   F6        1.0  0.7498199405968259  0.25017998587001994  0.7498199427277513  1.0000
