data_image0
_chemical_formula_structural       Mn2MoBr6
_chemical_formula_sum              "Mn2 Mo1 Br6"
_cell_length_a       7.082083792804242
_cell_length_b       7.0820837362264335
_cell_length_c       7.082083751173879
_cell_angle_alpha    60.00000117665235
_cell_angle_beta     60.000000249828496
_cell_angle_gamma    60.00000080822904

_space_group_name_H-M_alt    "P 1"
_space_group_IT_number       1

loop_
  _space_group_symop_operation_xyz
  'x, y, z'

loop_
  _atom_site_type_symbol
  _atom_site_label
  _atom_site_symmetry_multiplicity
  _atom_site_fract_x
  _atom_site_fract_y
  _atom_site_fract_z
  _atom_site_occupancy
  Mn  Mn1       1.0  0.250000002861781  0.24999993724818712  0.2500000683281682  1.0000
  Mn  Mn2       1.0  0.7500000405132263  0.7500001610746069  0.7500002826381656  1.0000
  Mo  Mo1       1.0  0.9999999787701717  5.879812645964588e-08  3.0636334546581485e-08  1.0000
  Br  Br1       1.0  0.25516072251590416  0.25516065054433307  0.7448392833382624  1.0000
  Br  Br2       1.0  0.7448392670570643  0.7448392765721455  0.2551606308588782  1.0000
  Br  Br3       1.0  0.7448393250568236  0.25516071111581495  0.2551606333736629  1.0000
  Br  Br4       1.0  0.2551606172979711  0.7448392696107188  0.744839222558999  1.0000
  Br  Br5       1.0  0.2551608141940831  0.744839245500317  0.25516065002494615  1.0000
  Br  Br6       1.0  0.744839229661386  0.2551606850748746  0.7448392028252704  1.0000
