data_image0
_chemical_formula_structural       Mn2MoCl6
_chemical_formula_sum              "Mn2 Mo1 Cl6"
_cell_length_a       6.648456876465487
_cell_length_b       6.648457084242674
_cell_length_c       6.648456796601376
_cell_angle_alpha    59.99999999800348
_cell_angle_beta     59.999999507333285
_cell_angle_gamma    59.999997322756386

_space_group_name_H-M_alt    "P 1"
_space_group_IT_number       1

loop_
  _space_group_symop_operation_xyz
  'x, y, z'

loop_
  _atom_site_type_symbol
  _atom_site_label
  _atom_site_symmetry_multiplicity
  _atom_site_fract_x
  _atom_site_fract_y
  _atom_site_fract_z
  _atom_site_occupancy
  Mn  Mn1       1.0  0.24999976202109175  0.2500003882472991  0.24999984853478796  1.0000
  Mn  Mn2       1.0  0.7500001961174864  0.749999617336672  0.7500001455481606  1.0000
  Mo  Mo1       1.0  4.418674097538887e-09  1.326347308761284e-07  0.9999998923664766  1.0000
  Cl  Cl1       1.0  0.2550507469550412  0.25505093531958994  0.7449491579040064  1.0000
  Cl  Cl2       1.0  0.744949270674056  0.7449490168420582  0.2550507564353136  1.0000
  Cl  Cl3       1.0  0.7449491519196743  0.25505098935743525  0.2550507752788502  1.0000
  Cl  Cl4       1.0  0.25505076583312797  0.7449490696488575  0.7449493446473681  1.0000
  Cl  Cl5       1.0  0.25505095104932696  0.7449489856951811  0.2550508334192082  1.0000
  Cl  Cl6       1.0  0.7449491579647217  0.2550508798854571  0.7449492304330942  1.0000
