data_image0
_chemical_formula_structural       Mn2MoI6
_chemical_formula_sum              "Mn2 Mo1 I6"
_cell_length_a       7.724356400059181
_cell_length_b       7.724356422747135
_cell_length_c       7.724356463679739
_cell_angle_alpha    59.99999961302292
_cell_angle_beta     59.99999980936933
_cell_angle_gamma    60.00000021747906

_space_group_name_H-M_alt    "P 1"
_space_group_IT_number       1

loop_
  _space_group_symop_operation_xyz
  'x, y, z'

loop_
  _atom_site_type_symbol
  _atom_site_label
  _atom_site_symmetry_multiplicity
  _atom_site_fract_x
  _atom_site_fract_y
  _atom_site_fract_z
  _atom_site_occupancy
  Mn  Mn1       1.0  0.24999997014566736  0.24999999997683228  0.25000002092824253  1.0000
  Mn  Mn2       1.0  0.7500000080266492  0.750000030056182  0.749999996337849  1.0000
  Mo  Mo1       1.0  1.1718136991459597e-08  0.9999999603609411  6.44501039914913e-08  1.0000
  I   I1        1.0  0.2534195969997758  0.25341958730577346  0.7465804058275337  1.0000
  I   I2        1.0  0.7465804650673217  0.7465804332138672  0.2534195341150611  1.0000
  I   I3        1.0  0.7465804062157069  0.25341956956499945  0.2534196138329767  1.0000
  I   I4        1.0  0.25341957023636197  0.7465803938743961  0.7465804104033172  1.0000
  I   I5        1.0  0.25341956858387116  0.7465804110659316  0.2534195913854108  1.0000
  I   I6        1.0  0.7465804047566366  0.253419611039271  0.7465803623517545  1.0000
