data_image0
_chemical_formula_structural       Mn2MoF6
_chemical_formula_sum              "Mn2 Mo1 F6"
_cell_length_a       5.753373453660746
_cell_length_b       5.753373341628969
_cell_length_c       5.753373273307652
_cell_angle_alpha    59.99999953320449
_cell_angle_beta     59.99999926104302
_cell_angle_gamma    60.00000123771071

_space_group_name_H-M_alt    "P 1"
_space_group_IT_number       1

loop_
  _space_group_symop_operation_xyz
  'x, y, z'

loop_
  _atom_site_type_symbol
  _atom_site_label
  _atom_site_symmetry_multiplicity
  _atom_site_fract_x
  _atom_site_fract_y
  _atom_site_fract_z
  _atom_site_occupancy
  Mn  Mn1       1.0  0.24999995435937666  0.2499999898463098  0.25000008433311915  1.0000
  Mn  Mn2       1.0  0.7500000199682729  0.7499999865688708  0.750000072181332  1.0000
  Mo  Mo1       1.0  0.9999999731785665  3.8317359379603834e-08  0.9999999612279327  1.0000
  F   F1        1.0  0.25018575919159547  0.2501858701034833  0.749814183270558  1.0000
  F   F2        1.0  0.7498142398078612  0.7498141105691829  0.25018579018250253  1.0000
  F   F3        1.0  0.7498141216026788  0.25018577740703846  0.25018584024272034  1.0000
  F   F4        1.0  0.2501858173885711  0.7498142628704083  0.7498141421026077  1.0000
  F   F5        1.0  0.2501858652964282  0.7498141941378272  0.2501857913001226  1.0000
  F   F6        1.0  0.7498142169429906  0.25018577163364514  0.7498141792695464  1.0000
