data_image0
_chemical_formula_structural       Mn2MoBr6
_chemical_formula_sum              "Mn2 Mo1 Br6"
_cell_length_a       7.081970464082268
_cell_length_b       7.0819704741192
_cell_length_c       7.081970486972967
_cell_angle_alpha    60.00000070429149
_cell_angle_beta     59.99999944340252
_cell_angle_gamma    60.00000003703262

_space_group_name_H-M_alt    "P 1"
_space_group_IT_number       1

loop_
  _space_group_symop_operation_xyz
  'x, y, z'

loop_
  _atom_site_type_symbol
  _atom_site_label
  _atom_site_symmetry_multiplicity
  _atom_site_fract_x
  _atom_site_fract_y
  _atom_site_fract_z
  _atom_site_occupancy
  Mn  Mn1       1.0  0.2500001609515462  0.2500000976894776  0.24999992161499685  1.0000
  Mn  Mn2       1.0  0.750000026984685  0.749999973132337  0.7500001626322697  1.0000
  Mo  Mo1       1.0  7.72283700010373e-09  7.955167778113342e-08  0.9999999154136879  1.0000
  Br  Br1       1.0  0.2551627862346985  0.2551627784952278  0.7448372101970268  1.0000
  Br  Br2       1.0  0.7448371632588637  0.74483714187015  0.25516281856935263  1.0000
  Br  Br3       1.0  0.7448371708240437  0.25516280053414736  0.25516275361069585  1.0000
  Br  Br4       1.0  0.25516275170867525  0.7448371371250728  0.7448372051512558  1.0000
  Br  Br5       1.0  0.25516277236755197  0.7448371943079921  0.2551628042178358  1.0000
  Br  Br6       1.0  0.7448371627964099  0.2551627935033739  0.7448372050505321  1.0000
