data_image0
_chemical_formula_structural       Mn2NCl6
_chemical_formula_sum              "Mn2 N1 Cl6"
_cell_length_a       6.431613694115887
_cell_length_b       6.4316136491008455
_cell_length_c       6.431613585483033
_cell_angle_alpha    60.00000061169457
_cell_angle_beta     59.999999719122606
_cell_angle_gamma    59.999999359934144

_space_group_name_H-M_alt    "P 1"
_space_group_IT_number       1

loop_
  _space_group_symop_operation_xyz
  'x, y, z'

loop_
  _atom_site_type_symbol
  _atom_site_label
  _atom_site_symmetry_multiplicity
  _atom_site_fract_x
  _atom_site_fract_y
  _atom_site_fract_z
  _atom_site_occupancy
  Mn  Mn1       1.0  0.2500001247437443  0.24999996610839623  0.24999993755064526  1.0000
  Mn  Mn2       1.0  0.7500000233908807  0.7500000944637161  0.7499998184811411  1.0000
  N   N1        1.0  9.047705737762831e-08  0.9999998686062291  0.9999998649763782  1.0000
  Cl  Cl1       1.0  0.2436460672538906  0.24364613611902963  0.7563538995484942  1.0000
  Cl  Cl2       1.0  0.7563538693373225  0.7563539396871461  0.24364615054525957  1.0000
  Cl  Cl3       1.0  0.756353810477426  0.2436460708940709  0.24364622663022054  1.0000
  Cl  Cl4       1.0  0.24364604744505194  0.7563539877737883  0.7563539428887692  1.0000
  Cl  Cl5       1.0  0.24364607395060553  0.7563538835679838  0.24364619757677328  1.0000
  Cl  Cl6       1.0  0.7563538971537416  0.24364604561036254  0.7563539629930198  1.0000
