data_image0
_chemical_formula_structural       Mn2NO6
_chemical_formula_sum              "Mn2 N1 O6"
_cell_length_a       4.9980966543029135
_cell_length_b       4.998096051567838
_cell_length_c       4.998096502546005
_cell_angle_alpha    60.000001277366835
_cell_angle_beta     60.000001043627144
_cell_angle_gamma    60.00000219108889

_space_group_name_H-M_alt    "P 1"
_space_group_IT_number       1

loop_
  _space_group_symop_operation_xyz
  'x, y, z'

loop_
  _atom_site_type_symbol
  _atom_site_label
  _atom_site_symmetry_multiplicity
  _atom_site_fract_x
  _atom_site_fract_y
  _atom_site_fract_z
  _atom_site_occupancy
  Mn  Mn1       1.0  0.24999961682990007  0.24999954714400704  0.2500003938730646  1.0000
  Mn  Mn2       1.0  0.7499996339626015  0.7499995554397636  0.7500004089078458  1.0000
  N   N1        1.0  0.9999968185817532  0.9999958073264301  3.334911715122108e-06  1.0000
  O   O1        1.0  0.2267547107466499  0.22675478603241653  0.7732452124548228  1.0000
  O   O2        1.0  0.7732502729899022  0.7732501142519407  0.2267497049582561  1.0000
  O   O3        1.0  0.7732472951634658  0.22675233109224563  0.22675272872510957  1.0000
  O   O4        1.0  0.22675185386399874  0.7732479084877353  0.7732481666725661  1.0000
  O   O5        1.0  0.2267521043054735  0.7732476763283134  0.2267523368508751  1.0000
  O   O6        1.0  0.7732476128469764  0.22675221039077023  0.7732477426451074  1.0000
