data_image0
_chemical_formula_structural       Mn2NF6
_chemical_formula_sum              "Mn2 N1 F6"
_cell_length_a       4.9159540750501245
_cell_length_b       4.915954277856974
_cell_length_c       4.915954251876417
_cell_angle_alpha    59.99999762747201
_cell_angle_beta     60.00000294044904
_cell_angle_gamma    60.00000656158687

_space_group_name_H-M_alt    "P 1"
_space_group_IT_number       1

loop_
  _space_group_symop_operation_xyz
  'x, y, z'

loop_
  _atom_site_type_symbol
  _atom_site_label
  _atom_site_symmetry_multiplicity
  _atom_site_fract_x
  _atom_site_fract_y
  _atom_site_fract_z
  _atom_site_occupancy
  Mn  Mn1       1.0  0.2499997609248705  0.25000008499341436  0.25000010119985094  1.0000
  Mn  Mn2       1.0  0.7499999676512764  0.7500003072990232  0.7499996766593325  1.0000
  N   N1        1.0  9.877950804841584e-08  0.9999995415883908  1.0251672641198918e-07  1.0000
  F   F1        1.0  0.24106931022721279  0.24106851208779786  0.7589311971228347  1.0000
  F   F2        1.0  0.7589313456453406  0.7589313321038523  0.2410685314978995  1.0000
  F   F3        1.0  0.7589308770139255  0.24106920248950095  0.24106889966191006  1.0000
  F   F4        1.0  0.24106861503740393  0.7589311524323845  0.758931507419671  1.0000
  F   F5        1.0  0.2410687334263902  0.7589313174773946  0.2410686681341845  1.0000
  F   F6        1.0  0.7589312507589966  0.24106860394660126  0.758931286517181  1.0000
