data_image0
_chemical_formula_structural       Mn2NbCl6
_chemical_formula_sum              "Mn2 Nb1 Cl6"
_cell_length_a       6.707849601035237
_cell_length_b       6.707850292012429
_cell_length_c       6.7078499197316495
_cell_angle_alpha    59.99999983323737
_cell_angle_beta     59.99999886600031
_cell_angle_gamma    60.00000292206997

_space_group_name_H-M_alt    "P 1"
_space_group_IT_number       1

loop_
  _space_group_symop_operation_xyz
  'x, y, z'

loop_
  _atom_site_type_symbol
  _atom_site_label
  _atom_site_symmetry_multiplicity
  _atom_site_fract_x
  _atom_site_fract_y
  _atom_site_fract_z
  _atom_site_occupancy
  Mn  Mn1       1.0  0.25000035809867677  0.2499998967538556  0.24999993523163547  1.0000
  Mn  Mn2       1.0  0.7500004004701089  0.7499999404013744  0.7499999325628897  1.0000
  Nb  Nb1       1.0  3.2533905830468826e-08  0.9999999488765353  0.9999999675526419  1.0000
  Cl  Cl1       1.0  0.25628801433138765  0.25628841063260616  0.7437117204227396  1.0000
  Cl  Cl2       1.0  0.7437117283357954  0.7437117113533529  0.25628826990833736  1.0000
  Cl  Cl3       1.0  0.7437116142541713  0.2562884722771632  0.2562881356868916  1.0000
  Cl  Cl4       1.0  0.2562881478379369  0.7437115036417515  0.7437118434257141  1.0000
  Cl  Cl5       1.0  0.25628803887553187  0.7437118240802961  0.25628837116562814  1.0000
  Cl  Cl6       1.0  0.7437116837432637  0.25628829607981984  0.7437118179421871  1.0000
