data_image0
_chemical_formula_structural       Mn2NCl6
_chemical_formula_sum              "Mn2 N1 Cl6"
_cell_length_a       6.431417859499046
_cell_length_b       6.431417822314063
_cell_length_c       6.431417993382681
_cell_angle_alpha    59.99999910475109
_cell_angle_beta     59.99999974584238
_cell_angle_gamma    60.000000651141626

_space_group_name_H-M_alt    "P 1"
_space_group_IT_number       1

loop_
  _space_group_symop_operation_xyz
  'x, y, z'

loop_
  _atom_site_type_symbol
  _atom_site_label
  _atom_site_symmetry_multiplicity
  _atom_site_fract_x
  _atom_site_fract_y
  _atom_site_fract_z
  _atom_site_occupancy
  Mn  Mn1       1.0  0.2499999702175669  0.2500000506062821  0.25000001732710775  1.0000
  Mn  Mn2       1.0  0.7500000392748724  0.7499998090420549  0.7499998294268164  1.0000
  N   N1        1.0  5.27170258914899e-08  1.542495570833864e-07  4.01848503824574e-07  1.0000
  Cl  Cl1       1.0  0.2436577708293454  0.2436578124584114  0.7563421697302346  1.0000
  Cl  Cl2       1.0  0.756342153659729  0.7563422052481122  0.24365789082987524  1.0000
  Cl  Cl3       1.0  0.7563422188953048  0.24365767919247674  0.24365777320508536  1.0000
  Cl  Cl4       1.0  0.24365802946085746  0.756342050962408  0.7563420623999819  1.0000
  Cl  Cl5       1.0  0.2436576711572469  0.7563423165932494  0.24365775306354248  1.0000
  Cl  Cl6       1.0  0.7563420945705391  0.24365792963113497  0.7563420969183029  1.0000
