data_image0
_chemical_formula_structural       Mn2NF6
_chemical_formula_sum              "Mn2 N1 F6"
_cell_length_a       4.917530434892608
_cell_length_b       4.917530339626813
_cell_length_c       4.91753031948193
_cell_angle_alpha    59.999999954470624
_cell_angle_beta     59.99999997029561
_cell_angle_gamma    60.00000274072496

_space_group_name_H-M_alt    "P 1"
_space_group_IT_number       1

loop_
  _space_group_symop_operation_xyz
  'x, y, z'

loop_
  _atom_site_type_symbol
  _atom_site_label
  _atom_site_symmetry_multiplicity
  _atom_site_fract_x
  _atom_site_fract_y
  _atom_site_fract_z
  _atom_site_occupancy
  Mn  Mn1       1.0  0.2500000315527028  0.25000030412587027  0.24999985475087647  1.0000
  Mn  Mn2       1.0  0.7499999007728676  0.7500001203766626  0.7499997969024655  1.0000
  N   N1        1.0  0.9999999728236796  0.9999997011317194  1.9759249972147582e-07  1.0000
  F   F1        1.0  0.24106547700659828  0.24106534071166313  0.7589345548776689  1.0000
  F   F2        1.0  0.7589347142606208  0.7589346803187015  0.24106536629441827  1.0000
  F   F3        1.0  0.7589345679792087  0.24106532621075868  0.24106544526376955  1.0000
  F   F4        1.0  0.24106538700585214  0.7589346076496827  0.7589346233995722  1.0000
  F   F5        1.0  0.2410652791454228  0.758934746607008  0.24106536769394504  1.0000
  F   F6        1.0  0.7589347344493471  0.2410651100457967  0.7589347895764631  1.0000
