data_image0
_chemical_formula_structural       Mn2NbBr6
_chemical_formula_sum              "Mn2 Nb1 Br6"
_cell_length_a       7.250614989036674
_cell_length_b       7.25061494790341
_cell_length_c       7.250614958744044
_cell_angle_alpha    60.00000069714046
_cell_angle_beta     60.00000021552367
_cell_angle_gamma    60.00000059440933

_space_group_name_H-M_alt    "P 1"
_space_group_IT_number       1

loop_
  _space_group_symop_operation_xyz
  'x, y, z'

loop_
  _atom_site_type_symbol
  _atom_site_label
  _atom_site_symmetry_multiplicity
  _atom_site_fract_x
  _atom_site_fract_y
  _atom_site_fract_z
  _atom_site_occupancy
  Mn  Mn1       1.0  0.2500000927008216  0.24999991532132484  0.2500000362496401  1.0000
  Mn  Mn2       1.0  0.7499999792428604  0.7500001074442082  0.749999891247504  1.0000
  Nb  Nb1       1.0  5.260689119117209e-09  0.9999999746626007  6.106850923238741e-08  1.0000
  Br  Br1       1.0  0.2503130284605212  0.25031301534576067  0.7496869743119448  1.0000
  Br  Br2       1.0  0.7496869744402294  0.7496870091089325  0.25031304892578626  1.0000
  Br  Br3       1.0  0.7496869771942026  0.2503129660393527  0.2503130369172166  1.0000
  Br  Br4       1.0  0.25031303587465714  0.7496869705790207  0.749686917577537  1.0000
  Br  Br5       1.0  0.2503129492386771  0.7496869952141262  0.2503130884844311  1.0000
  Br  Br6       1.0  0.7496869546338308  0.25031304444300617  0.7496869421863674  1.0000
