data_image0
_chemical_formula_structural       Mn2NiBr6
_chemical_formula_sum              "Mn2 Ni1 Br6"
_cell_length_a       6.795689035684705
_cell_length_b       6.795688976286335
_cell_length_c       6.795688993960963
_cell_angle_alpha    60.00000018048687
_cell_angle_beta     60.00000132746186
_cell_angle_gamma    59.9999989371145

_space_group_name_H-M_alt    "P 1"
_space_group_IT_number       1

loop_
  _space_group_symop_operation_xyz
  'x, y, z'

loop_
  _atom_site_type_symbol
  _atom_site_label
  _atom_site_symmetry_multiplicity
  _atom_site_fract_x
  _atom_site_fract_y
  _atom_site_fract_z
  _atom_site_occupancy
  Mn  Mn1       1.0  0.24999964766806265  0.2500002525210593  0.25000002207572164  1.0000
  Mn  Mn2       1.0  0.750000256798732  0.7499999970187314  0.7499997763584355  1.0000
  Ni  Ni1       1.0  2.576133823262195e-08  4.505594923627454e-08  0.9999999057305111  1.0000
  Br  Br1       1.0  0.2512429451363556  0.2512430481681459  0.7487570054058513  1.0000
  Br  Br2       1.0  0.748757045976309  0.7487568751665692  0.25124303347264226  1.0000
  Br  Br3       1.0  0.7487570396178609  0.25124297305238047  0.25124305543729286  1.0000
  Br  Br4       1.0  0.25124291615386185  0.7487570512076619  0.7487570727852623  1.0000
  Br  Br5       1.0  0.25124296425997344  0.7487569256616092  0.2512430694405496  1.0000
  Br  Br6       1.0  0.7487571677834548  0.25124282465825754  0.7487570546414803  1.0000
