data_image0
_chemical_formula_structural       Mn2OsCl6
_chemical_formula_sum              "Mn2 Os1 Cl6"
_cell_length_a       6.641214779543507
_cell_length_b       6.641214806336947
_cell_length_c       6.641214872369544
_cell_angle_alpha    60.00000259471799
_cell_angle_beta     59.99999944758083
_cell_angle_gamma    59.999998229194674

_space_group_name_H-M_alt    "P 1"
_space_group_IT_number       1

loop_
  _space_group_symop_operation_xyz
  'x, y, z'

loop_
  _atom_site_type_symbol
  _atom_site_label
  _atom_site_symmetry_multiplicity
  _atom_site_fract_x
  _atom_site_fract_y
  _atom_site_fract_z
  _atom_site_occupancy
  Mn  Mn1       1.0  0.24999996236511196  0.2500001147915287  0.24999992669462257  1.0000
  Mn  Mn2       1.0  0.7499999711040573  0.7499999202182744  0.7499999125139385  1.0000
  Os  Os1       1.0  4.594419355919404e-08  0.999999961272682  0.9999999542306005  1.0000
  Cl  Cl1       1.0  0.25112815456492715  0.25112825818143814  0.7488718061766033  1.0000
  Cl  Cl2       1.0  0.7488718189302734  0.7488717141270045  0.25112828830089406  1.0000
  Cl  Cl3       1.0  0.7488718097246263  0.25112819579598566  0.25112820334842934  1.0000
  Cl  Cl4       1.0  0.2511282653166154  0.7488718004865059  0.748871840415012  1.0000
  Cl  Cl5       1.0  0.251128192784343  0.7488717690671853  0.25112827115173547  1.0000
  Cl  Cl6       1.0  0.7488717801654149  0.25112826225430857  0.7488717865632157  1.0000
