data_image0
_chemical_formula_structural       Mn2OsI6
_chemical_formula_sum              "Mn2 Os1 I6"
_cell_length_a       7.591972938539556
_cell_length_b       7.5919730022971255
_cell_length_c       7.5919729463603245
_cell_angle_alpha    59.99999964222468
_cell_angle_beta     60.00000020236407
_cell_angle_gamma    59.99999993911414

_space_group_name_H-M_alt    "P 1"
_space_group_IT_number       1

loop_
  _space_group_symop_operation_xyz
  'x, y, z'

loop_
  _atom_site_type_symbol
  _atom_site_label
  _atom_site_symmetry_multiplicity
  _atom_site_fract_x
  _atom_site_fract_y
  _atom_site_fract_z
  _atom_site_occupancy
  Mn  Mn1       1.0  0.24999997077780967  0.2499999291466051  0.25000006736969876  1.0000
  Mn  Mn2       1.0  0.7500000105018132  0.7499999035909536  0.7500001515881035  1.0000
  Os  Os1       1.0  4.209632818097178e-09  0.999999991933949  0.9999999650471504  1.0000
  I   I1        1.0  0.25017428342213016  0.2501743165461236  0.7498257011222451  1.0000
  I   I2        1.0  0.749825688436468  0.7498257178427191  0.2501742755133723  1.0000
  I   I3        1.0  0.7498256865473385  0.2501743730125695  0.2501742453099728  1.0000
  I   I4        1.0  0.25017427854997654  0.7498257501028377  0.7498256639993901  1.0000
  I   I5        1.0  0.2501743411384952  0.7498257184656436  0.25017424739240984  1.0000
  I   I6        1.0  0.7498257359423827  0.2501743014043068  0.7498256852086947  1.0000
