data_image0
_chemical_formula_structural       Mn2OsBr6
_chemical_formula_sum              "Mn2 Os1 Br6"
_cell_length_a       7.048671111918573
_cell_length_b       7.048671198339015
_cell_length_c       7.048671390175154
_cell_angle_alpha    59.99999919526689
_cell_angle_beta     59.99999921460259
_cell_angle_gamma    60.00000090608533

_space_group_name_H-M_alt    "P 1"
_space_group_IT_number       1

loop_
  _space_group_symop_operation_xyz
  'x, y, z'

loop_
  _atom_site_type_symbol
  _atom_site_label
  _atom_site_symmetry_multiplicity
  _atom_site_fract_x
  _atom_site_fract_y
  _atom_site_fract_z
  _atom_site_occupancy
  Mn  Mn1       1.0  0.25000005653131396  0.24999995778079603  0.2499999053262502  1.0000
  Mn  Mn2       1.0  0.7499999092535703  0.749999981070749  0.7500001086564336  1.0000
  Os  Os1       1.0  2.4970218232094712e-08  0.999999979149349  1.0008712615678966e-07  1.0000
  Br  Br1       1.0  0.24980884786616603  0.2498088784933519  0.7501911564016162  1.0000
  Br  Br2       1.0  0.7501911431359056  0.7501911124848216  0.24980881607174596  1.0000
  Br  Br3       1.0  0.7501911189895532  0.2498089152671499  0.24980888011121588  1.0000
  Br  Br4       1.0  0.24980894968562462  0.7501910687608077  0.7501910555819944  1.0000
  Br  Br5       1.0  0.2498089309608011  0.7501911612932283  0.24980885659922886  1.0000
  Br  Br6       1.0  0.7501910173803451  0.24980894783863505  0.7501911221076704  1.0000
