data_image0
_chemical_formula_structural       Mn2PBr6
_chemical_formula_sum              "Mn2 P1 Br6"
_cell_length_a       6.9938585211149995
_cell_length_b       6.993858209888888
_cell_length_c       6.993858434961144
_cell_angle_alpha    59.99999984161109
_cell_angle_beta     60.00000045727771
_cell_angle_gamma    59.99999908804668

_space_group_name_H-M_alt    "P 1"
_space_group_IT_number       1

loop_
  _space_group_symop_operation_xyz
  'x, y, z'

loop_
  _atom_site_type_symbol
  _atom_site_label
  _atom_site_symmetry_multiplicity
  _atom_site_fract_x
  _atom_site_fract_y
  _atom_site_fract_z
  _atom_site_occupancy
  Mn  Mn1       1.0  0.2500000582744887  0.24999980024153562  0.2500000628995852  1.0000
  Mn  Mn2       1.0  0.7499998960238267  0.750000024141849  0.750000210846282  1.0000
  P   P1        1.0  0.999999972782458  4.202812855355661e-08  0.9999999911648811  1.0000
  Br  Br1       1.0  0.2567953227441496  0.25679523880663674  0.7432047732740469  1.0000
  Br  Br2       1.0  0.7432047000756903  0.7432048307408291  0.25679517490956183  1.0000
  Br  Br3       1.0  0.7432047494037609  0.25679531770550323  0.25679520522183685  1.0000
  Br  Br4       1.0  0.2567952856742836  0.7432047150673489  0.743204645123381  1.0000
  Br  Br5       1.0  0.25679524478828214  0.743204762697378  0.25679526677823794  1.0000
  Br  Br6       1.0  0.7432047738797062  0.25679526482195897  0.7432046716093647  1.0000
