data_image0
_chemical_formula_structural       Mn2PtF6
_chemical_formula_sum              "Mn2 Pt1 F6"
_cell_length_a       5.438168817046871
_cell_length_b       5.438168628325837
_cell_length_c       5.438168727311832
_cell_angle_alpha    60.000001190007204
_cell_angle_beta     59.99999940454496
_cell_angle_gamma    60.00000071978275

_space_group_name_H-M_alt    "P 1"
_space_group_IT_number       1

loop_
  _space_group_symop_operation_xyz
  'x, y, z'

loop_
  _atom_site_type_symbol
  _atom_site_label
  _atom_site_symmetry_multiplicity
  _atom_site_fract_x
  _atom_site_fract_y
  _atom_site_fract_z
  _atom_site_occupancy
  Mn  Mn1       1.0  0.2499999957114702  0.25000001069694633  0.25000000103088266  1.0000
  Mn  Mn2       1.0  0.7499999802934245  0.7499999825440363  0.7500000312865417  1.0000
  Pt  Pt1       1.0  0.9999999703801367  3.1529785097334785e-08  7.259921216786335e-08  1.0000
  F   F1        1.0  0.2592501871472116  0.2592501634301472  0.7407498025756791  1.0000
  F   F2        1.0  0.7407498248254248  0.7407498365672176  0.25925019366884877  1.0000
  F   F3        1.0  0.7407498579135737  0.25925014609173413  0.2592501466020743  1.0000
  F   F4        1.0  0.25925018106249265  0.7407498111152095  0.7407498225977163  1.0000
  F   F5        1.0  0.2592501731577818  0.7407498578118151  0.2592501106951061  1.0000
  F   F6        1.0  0.7407498339462963  0.2592501376812925  0.7407497964542594  1.0000
