data_image0
_chemical_formula_structural       Mn2PdF6
_chemical_formula_sum              "Mn2 Pd1 F6"
_cell_length_a       5.393513533573197
_cell_length_b       5.393513672828501
_cell_length_c       5.393513458245934
_cell_angle_alpha    60.00000006428726
_cell_angle_beta     60.00000048463737
_cell_angle_gamma    60.000000567357276

_space_group_name_H-M_alt    "P 1"
_space_group_IT_number       1

loop_
  _space_group_symop_operation_xyz
  'x, y, z'

loop_
  _atom_site_type_symbol
  _atom_site_label
  _atom_site_symmetry_multiplicity
  _atom_site_fract_x
  _atom_site_fract_y
  _atom_site_fract_z
  _atom_site_occupancy
  Mn  Mn1       1.0  0.24999996263767607  0.2500000401579239  0.24999996306903788  1.0000
  Mn  Mn2       1.0  0.7499998881320219  0.7499999592488423  0.7500000179161366  1.0000
  Pd  Pd1       1.0  1.2975303702573722e-08  0.9999999931876785  3.9562325809815135e-08  1.0000
  F   F1        1.0  0.26305367923050527  0.26305371834832947  0.7369463083625855  1.0000
  F   F2        1.0  0.7369463299662352  0.7369462810584348  0.26305373246499336  1.0000
  F   F3        1.0  0.7369463661933189  0.26305367646274624  0.2630536169206193  1.0000
  F   F4        1.0  0.263053742264302  0.7369462820700934  0.7369463390911123  1.0000
  F   F5        1.0  0.2630536784195706  0.7369463319802039  0.2630536321926002  1.0000
  F   F6        1.0  0.7369463323763233  0.263053733278997  0.7369463081623391  1.0000
