data_image0
_chemical_formula_structural       Mn2PbBr6
_chemical_formula_sum              "Mn2 Pb1 Br6"
_cell_length_a       7.149117337742585
_cell_length_b       7.149117318424919
_cell_length_c       7.1491173281307985
_cell_angle_alpha    60.00000008000979
_cell_angle_beta     60.00000028770433
_cell_angle_gamma    60.000000347850545

_space_group_name_H-M_alt    "P 1"
_space_group_IT_number       1

loop_
  _space_group_symop_operation_xyz
  'x, y, z'

loop_
  _atom_site_type_symbol
  _atom_site_label
  _atom_site_symmetry_multiplicity
  _atom_site_fract_x
  _atom_site_fract_y
  _atom_site_fract_z
  _atom_site_occupancy
  Mn  Mn1       1.0  0.25000000101629966  0.24999999532683514  0.24999996278967276  1.0000
  Mn  Mn2       1.0  0.749999928765227  0.7500001264580983  0.7499998454806392  1.0000
  Pb  Pb1       1.0  1.404660574396543e-08  2.5697120753818583e-08  3.887664808206496e-08  1.0000
  Br  Br1       1.0  0.2668473570788795  0.26684734316679454  0.7331526774577755  1.0000
  Br  Br2       1.0  0.7331526842499044  0.7331526038777189  0.2668473862129702  1.0000
  Br  Br3       1.0  0.7331526586492493  0.2668472658565041  0.26684743719653226  1.0000
  Br  Br4       1.0  0.2668473882108636  0.7331526452120404  0.7331526347026632  1.0000
  Br  Br5       1.0  0.2668473353619691  0.7331526501197004  0.26684739370267196  1.0000
  Br  Br6       1.0  0.7331526302163842  0.2668473448927712  0.7331526265095728  1.0000
