data_image0
_chemical_formula_structural       Mn2PdI6
_chemical_formula_sum              "Mn2 Pd1 I6"
_cell_length_a       7.550836250391775
_cell_length_b       7.550836271165134
_cell_length_c       7.550836346871613
_cell_angle_alpha    59.99999981001087
_cell_angle_beta     59.99999967063383
_cell_angle_gamma    60.00000062071429

_space_group_name_H-M_alt    "P 1"
_space_group_IT_number       1

loop_
  _space_group_symop_operation_xyz
  'x, y, z'

loop_
  _atom_site_type_symbol
  _atom_site_label
  _atom_site_symmetry_multiplicity
  _atom_site_fract_x
  _atom_site_fract_y
  _atom_site_fract_z
  _atom_site_occupancy
  Mn  Mn1       1.0  0.2500000530397189  0.24999996996424556  0.24999998848696395  1.0000
  Mn  Mn2       1.0  0.75000002999813  0.7499999715286968  0.7500000111226347  1.0000
  Pd  Pd1       1.0  0.9999999626490073  3.406197824226084e-08  4.932134509108965e-08  1.0000
  I   I1        1.0  0.2541786367249186  0.2541787103664241  0.745821320698246  1.0000
  I   I2        1.0  0.7458213130361848  0.7458213235804587  0.25417866356512675  1.0000
  I   I3        1.0  0.7458213198313157  0.25417867517157156  0.2541786715125535  1.0000
  I   I4        1.0  0.25417870453900965  0.7458212955173518  0.7458212766149859  1.0000
  I   I5        1.0  0.2541786677501498  0.7458213127430693  0.25417872397523683  1.0000
  I   I6        1.0  0.7458213159324215  0.25417870660582303  0.7458212903570952  1.0000
