data_image0
_chemical_formula_structural       Mn2PtCl6
_chemical_formula_sum              "Mn2 Pt1 Cl6"
_cell_length_a       6.685553791844674
_cell_length_b       6.685553750546954
_cell_length_c       6.685553517957702
_cell_angle_alpha    59.99999951337677
_cell_angle_beta     59.99999981710177
_cell_angle_gamma    59.9999988181509

_space_group_name_H-M_alt    "P 1"
_space_group_IT_number       1

loop_
  _space_group_symop_operation_xyz
  'x, y, z'

loop_
  _atom_site_type_symbol
  _atom_site_label
  _atom_site_symmetry_multiplicity
  _atom_site_fract_x
  _atom_site_fract_y
  _atom_site_fract_z
  _atom_site_occupancy
  Mn  Mn1       1.0  0.2500001490116909  0.24999993962375  0.2500000111615022  1.0000
  Mn  Mn2       1.0  0.7500000405870509  0.7500002713573138  0.7499998234951768  1.0000
  Pt  Pt1       1.0  0.9999999724702477  0.9999999945042188  0.9999999671526059  1.0000
  Cl  Cl1       1.0  0.24762161914905678  0.24762155480350373  0.7523784387975135  1.0000
  Cl  Cl2       1.0  0.7523784104737039  0.7523784106992961  0.24762155520918117  1.0000
  Cl  Cl3       1.0  0.7523782793738424  0.24762148379694535  0.24762169793201413  1.0000
  Cl  Cl4       1.0  0.2476215395177082  0.7523785128486217  0.752378366423992  1.0000
  Cl  Cl5       1.0  0.24762155247230436  0.7523784093689645  0.24762165804814082  1.0000
  Cl  Cl6       1.0  0.7523784393296612  0.24762142606699233  0.7523784842201612  1.0000
