data_image0
_chemical_formula_structural       Mn2PdCl6
_chemical_formula_sum              "Mn2 Pd1 Cl6"
_cell_length_a       6.542668440566661
_cell_length_b       6.542668377016191
_cell_length_c       6.542668378957959
_cell_angle_alpha    60.00000106714802
_cell_angle_beta     60.000000672203306
_cell_angle_gamma    60.00000009292973

_space_group_name_H-M_alt    "P 1"
_space_group_IT_number       1

loop_
  _space_group_symop_operation_xyz
  'x, y, z'

loop_
  _atom_site_type_symbol
  _atom_site_label
  _atom_site_symmetry_multiplicity
  _atom_site_fract_x
  _atom_site_fract_y
  _atom_site_fract_z
  _atom_site_occupancy
  Mn  Mn1       1.0  0.24999998917213292  0.2500000003021406  0.24999995150695337  1.0000
  Mn  Mn2       1.0  0.7500000766543388  0.7499999541080528  0.7499999563243428  1.0000
  Pd  Pd1       1.0  0.9999999737225915  2.0591282948586496e-08  7.428347986440171e-09  1.0000
  Cl  Cl1       1.0  0.2531853484775151  0.2531855052362531  0.7468145653543022  1.0000
  Cl  Cl2       1.0  0.7468145312507259  0.7468145521303566  0.2531855323054539  1.0000
  Cl  Cl3       1.0  0.7468145937371437  0.2531853618424769  0.25318537891436116  1.0000
  Cl  Cl4       1.0  0.2531854703611878  0.7468145289219342  0.7468146487243132  1.0000
  Cl  Cl5       1.0  0.2531854018761079  0.7468146283965197  0.25318535188206565  1.0000
  Cl  Cl6       1.0  0.7468146194521592  0.2531854383297627  0.7468146030469931  1.0000
