data_image0
_chemical_formula_structural       Mn2PdBr6
_chemical_formula_sum              "Mn2 Pd1 Br6"
_cell_length_a       6.961112531966703
_cell_length_b       6.96111251355492
_cell_length_c       6.9611125820121575
_cell_angle_alpha    60.000000549510304
_cell_angle_beta     60.00000025917214
_cell_angle_gamma    60.00000120039716

_space_group_name_H-M_alt    "P 1"
_space_group_IT_number       1

loop_
  _space_group_symop_operation_xyz
  'x, y, z'

loop_
  _atom_site_type_symbol
  _atom_site_label
  _atom_site_symmetry_multiplicity
  _atom_site_fract_x
  _atom_site_fract_y
  _atom_site_fract_z
  _atom_site_occupancy
  Mn  Mn1       1.0  0.2500001829739804  0.25000008149266684  0.2499997165029622  1.0000
  Mn  Mn2       1.0  0.7499997308093121  0.7499999717694993  0.7500002839057551  1.0000
  Pd  Pd1       1.0  0.9999999603069899  0.9999999648118063  2.4511633784422717e-08  1.0000
  Br  Br1       1.0  0.2527086350910681  0.2527085366064717  0.7472914265379921  1.0000
  Br  Br2       1.0  0.7472914359263234  0.7472914480387192  0.2527085209428516  1.0000
  Br  Br3       1.0  0.7472914142953049  0.2527086541729722  0.2527085420800548  1.0000
  Br  Br4       1.0  0.25270865105863266  0.7472913375098577  0.7472914492468077  1.0000
  Br  Br5       1.0  0.25270869884848246  0.7472914056695952  0.25270850679224355  1.0000
  Br  Br6       1.0  0.747291287754736  0.2527085983291017  0.7472915306810126  1.0000
