data_image0
_chemical_formula_structural       Mn2PBr6
_chemical_formula_sum              "Mn2 P1 Br6"
_cell_length_a       6.993090239308871
_cell_length_b       6.993090158085443
_cell_length_c       6.993090159954167
_cell_angle_alpha    59.99999961110285
_cell_angle_beta     60.00000042878219
_cell_angle_gamma    59.99999929490259

_space_group_name_H-M_alt    "P 1"
_space_group_IT_number       1

loop_
  _space_group_symop_operation_xyz
  'x, y, z'

loop_
  _atom_site_type_symbol
  _atom_site_label
  _atom_site_symmetry_multiplicity
  _atom_site_fract_x
  _atom_site_fract_y
  _atom_site_fract_z
  _atom_site_occupancy
  Mn  Mn1       1.0  0.2500001330719165  0.24999980927708598  0.2499999767322236  1.0000
  Mn  Mn2       1.0  0.7500002430438338  0.7499999112078187  0.7499999882417109  1.0000
  P   P1        1.0  3.1192651711380606e-09  0.9999999807349921  1.5222786394778854e-08  1.0000
  Br  Br1       1.0  0.2568042827222453  0.2568044704753525  0.7431956313536902  1.0000
  Br  Br2       1.0  0.7431955494066032  0.7431956931047357  0.25680434545656106  1.0000
  Br  Br3       1.0  0.7431955910144583  0.256804387107666  0.25680435864295814  1.0000
  Br  Br4       1.0  0.2568043261785521  0.7431956451200955  0.7431956184316478  1.0000
  Br  Br5       1.0  0.2568043280529316  0.7431957278765947  0.2568043739152212  1.0000
  Br  Br6       1.0  0.7431955477254931  0.2568043691516476  0.7431956944252126  1.0000
