data_image0
_chemical_formula_structural       Mn2PF6
_chemical_formula_sum              "Mn2 P1 F6"
_cell_length_a       5.675542544789259
_cell_length_b       5.6755412984274916
_cell_length_c       5.675546919945368
_cell_angle_alpha    59.99999538275312
_cell_angle_beta     60.000011782486084
_cell_angle_gamma    59.999955314886115

_space_group_name_H-M_alt    "P 1"
_space_group_IT_number       1

loop_
  _space_group_symop_operation_xyz
  'x, y, z'

loop_
  _atom_site_type_symbol
  _atom_site_label
  _atom_site_symmetry_multiplicity
  _atom_site_fract_x
  _atom_site_fract_y
  _atom_site_fract_z
  _atom_site_occupancy
  Mn  Mn1       1.0  0.25000056523224173  0.25002164837695284  0.24999139192924233  1.0000
  Mn  Mn2       1.0  0.7499970970800633  0.7499928700888367  0.7500115787697326  1.0000
  P   P1        1.0  5.959008082425404e-07  0.9999980902264999  0.9999986747482834  1.0000
  F   F1        1.0  0.20500016335077578  0.20499983170468938  0.7949992669288586  1.0000
  F   F2        1.0  0.7950009415488053  0.7949961436181934  0.20499997583672427  1.0000
  F   F3        1.0  0.7949986768440515  0.20500016934952742  0.2049994510704844  1.0000
  F   F4        1.0  0.20500161926897673  0.794995400281863  0.7950003918860279  1.0000
  F   F5        1.0  0.2050011570918612  0.7949966589557447  0.2049985088060006  1.0000
  F   F6        1.0  0.7949990768534624  0.2049990056247563  0.7950008807975175  1.0000
