data_image0
_chemical_formula_structural       Mn2RhI6
_chemical_formula_sum              "Mn2 Rh1 I6"
_cell_length_a       7.544384619468642
_cell_length_b       7.544384564975303
_cell_length_c       7.544384511201209
_cell_angle_alpha    60.00000106204735
_cell_angle_beta     59.999999977754115
_cell_angle_gamma    59.99999968381765

_space_group_name_H-M_alt    "P 1"
_space_group_IT_number       1

loop_
  _space_group_symop_operation_xyz
  'x, y, z'

loop_
  _atom_site_type_symbol
  _atom_site_label
  _atom_site_symmetry_multiplicity
  _atom_site_fract_x
  _atom_site_fract_y
  _atom_site_fract_z
  _atom_site_occupancy
  Mn  Mn1       1.0  0.2500000577507763  0.24999999973806478  0.24999996185697296  1.0000
  Mn  Mn2       1.0  0.750000026474024  0.750000044669004  0.7499998924915245  1.0000
  Rh  Rh1       1.0  2.9621445889571773e-08  0.9999999983766146  6.420483094973832e-08  1.0000
  I   I1        1.0  0.24998436765938603  0.2499843867633916  0.7500156444593523  1.0000
  I   I2        1.0  0.750015599023987  0.7500155878380798  0.2499844294841295  1.0000
  I   I3        1.0  0.7500156400138065  0.24998430354875947  0.24998437381037752  1.0000
  I   I4        1.0  0.24998438558887653  0.7500156044938829  0.7500156297254692  1.0000
  I   I5        1.0  0.2499843216019609  0.7500156524429477  0.24998439140494286  1.0000
  I   I6        1.0  0.7500155707478998  0.24998442118507228  0.7500156118704977  1.0000
