data_image0
_chemical_formula_structural       Mn2ReBr6
_chemical_formula_sum              "Mn2 Re1 Br6"
_cell_length_a       7.129104068698484
_cell_length_b       7.1291041702742435
_cell_length_c       7.129104001330125
_cell_angle_alpha    60.00000014340126
_cell_angle_beta     59.99999917579316
_cell_angle_gamma    59.99999788305053

_space_group_name_H-M_alt    "P 1"
_space_group_IT_number       1

loop_
  _space_group_symop_operation_xyz
  'x, y, z'

loop_
  _atom_site_type_symbol
  _atom_site_label
  _atom_site_symmetry_multiplicity
  _atom_site_fract_x
  _atom_site_fract_y
  _atom_site_fract_z
  _atom_site_occupancy
  Mn  Mn1       1.0  0.24999996160694307  0.2500000712474122  0.2500000712970671  1.0000
  Mn  Mn2       1.0  0.7499999086448198  0.7500000402292267  0.7499999464767124  1.0000
  Re  Re1       1.0  1.5045909571069102e-09  3.4359012079628403e-08  0.9999999217520632  1.0000
  Br  Br1       1.0  0.2483976683704368  0.2483976376433305  0.7516023280403337  1.0000
  Br  Br2       1.0  0.7516023687132594  0.7516023037561951  0.24839769556413788  1.0000
  Br  Br3       1.0  0.7516023878318578  0.24839759785645227  0.24839762127363454  1.0000
  Br  Br4       1.0  0.24839761577708536  0.7516024002354439  0.7516024075544379  1.0000
  Br  Br5       1.0  0.2483976247101119  0.7516023227018954  0.24839764229914846  1.0000
  Br  Br6       1.0  0.7516024658405221  0.24839758949246862  0.7516023719798363  1.0000
