data_image0
_chemical_formula_structural       Mn2RhI6
_chemical_formula_sum              "Mn2 Rh1 I6"
_cell_length_a       7.543283239156718
_cell_length_b       7.543283273806009
_cell_length_c       7.5432832264754115
_cell_angle_alpha    60.000000007090506
_cell_angle_beta     60.000000928787735
_cell_angle_gamma    60.00000043004302

_space_group_name_H-M_alt    "P 1"
_space_group_IT_number       1

loop_
  _space_group_symop_operation_xyz
  'x, y, z'

loop_
  _atom_site_type_symbol
  _atom_site_label
  _atom_site_symmetry_multiplicity
  _atom_site_fract_x
  _atom_site_fract_y
  _atom_site_fract_z
  _atom_site_occupancy
  Mn  Mn1       1.0  0.25000003903842966  0.24999992294345239  0.2500000423874436  1.0000
  Mn  Mn2       1.0  0.7499999876446651  0.7500000562116398  0.7499999872255965  1.0000
  Rh  Rh1       1.0  0.9999999931659449  0.9999999837637693  1.5512190941424044e-08  1.0000
  I   I1        1.0  0.2500452269067394  0.2500451851449462  0.7499547798044391  1.0000
  I   I2        1.0  0.7499547667945495  0.7499548378479689  0.2500451860505538  1.0000
  I   I3        1.0  0.7499547570844773  0.25004521200126  0.2500452085921477  1.0000
  I   I4        1.0  0.2500452058157686  0.7499548207333936  0.7499547863520551  1.0000
  I   I5        1.0  0.25004521166834937  0.7499547991645871  0.25004518101087997  1.0000
  I   I6        1.0  0.7499548130356276  0.2500451767432594  0.7499548127705439  1.0000
