data_image0
_chemical_formula_structural       Mn2RhCl6
_chemical_formula_sum              "Mn2 Rh1 Cl6"
_cell_length_a       6.563513486371257
_cell_length_b       6.563513513252093
_cell_length_c       6.56351358803694
_cell_angle_alpha    59.99999967115429
_cell_angle_beta     59.999999412938884
_cell_angle_gamma    60.00000018476895

_space_group_name_H-M_alt    "P 1"
_space_group_IT_number       1

loop_
  _space_group_symop_operation_xyz
  'x, y, z'

loop_
  _atom_site_type_symbol
  _atom_site_label
  _atom_site_symmetry_multiplicity
  _atom_site_fract_x
  _atom_site_fract_y
  _atom_site_fract_z
  _atom_site_occupancy
  Mn  Mn1       1.0  0.24999998042319477  0.25000001936220445  0.2500000116333813  1.0000
  Mn  Mn2       1.0  0.7499999972827542  0.7500000114368708  0.7499999753697588  1.0000
  Rh  Rh1       1.0  0.9999999977071394  2.7989845765909175e-08  2.387249443836704e-09  1.0000
  Cl  Cl1       1.0  0.25026780665841697  0.2502678042292665  0.7497321978520706  1.0000
  Cl  Cl2       1.0  0.7497321815330656  0.7497321687241274  0.25026783568475647  1.0000
  Cl  Cl3       1.0  0.7497321765762046  0.25026781550026966  0.25026782191755814  1.0000
  Cl  Cl4       1.0  0.2502678317843922  0.7497321761130213  0.749732154115408  1.0000
  Cl  Cl5       1.0  0.250267830343507  0.7497321551740527  0.250267834801758  1.0000
  Cl  Cl6       1.0  0.7497321959299628  0.2502678196453312  0.7497321665724865  1.0000
