data_image0
_chemical_formula_structural       Mn2RuI6
_chemical_formula_sum              "Mn2 Ru1 I6"
_cell_length_a       7.571318254931054
_cell_length_b       7.5713181834201855
_cell_length_c       7.57131813832408
_cell_angle_alpha    60.00000041207434
_cell_angle_beta     60.000000109015645
_cell_angle_gamma    59.999998953707006

_space_group_name_H-M_alt    "P 1"
_space_group_IT_number       1

loop_
  _space_group_symop_operation_xyz
  'x, y, z'

loop_
  _atom_site_type_symbol
  _atom_site_label
  _atom_site_symmetry_multiplicity
  _atom_site_fract_x
  _atom_site_fract_y
  _atom_site_fract_z
  _atom_site_occupancy
  Mn  Mn1       1.0  0.25000002536091986  0.24999996951535974  0.25000003270003834  1.0000
  Mn  Mn2       1.0  0.750000003121104  0.750000109129862  0.7499997873043177  1.0000
  Ru  Ru1       1.0  6.623724162206654e-09  2.5881778427687742e-08  6.200406406378619e-09  1.0000
  I   I1        1.0  0.2506168457405344  0.25061674396855144  0.7493831904871311  1.0000
  I   I2        1.0  0.7493831549223917  0.7493831939445014  0.2506169026635375  1.0000
  I   I3        1.0  0.7493832398316517  0.25061669624265737  0.2506168218116134  1.0000
  I   I4        1.0  0.2506167997754771  0.7493832254942832  0.7493832176902425  1.0000
  I   I5        1.0  0.25061670742631087  0.7493832477878205  0.250616819844865  1.0000
  I   I6        1.0  0.7493832151314389  0.250616787181902  0.7493832255276117  1.0000
