data_image0
_chemical_formula_structural       Mn2RuBr6
_chemical_formula_sum              "Mn2 Ru1 Br6"
_cell_length_a       7.016052211349006
_cell_length_b       7.016052124939652
_cell_length_c       7.016052124069165
_cell_angle_alpha    60.000000389179945
_cell_angle_beta     60.00000035027308
_cell_angle_gamma    59.99999918795862

_space_group_name_H-M_alt    "P 1"
_space_group_IT_number       1

loop_
  _space_group_symop_operation_xyz
  'x, y, z'

loop_
  _atom_site_type_symbol
  _atom_site_label
  _atom_site_symmetry_multiplicity
  _atom_site_fract_x
  _atom_site_fract_y
  _atom_site_fract_z
  _atom_site_occupancy
  Mn  Mn1       1.0  0.24999983939689982  0.25000012698714213  0.24999995726711213  1.0000
  Mn  Mn2       1.0  0.7500000267995822  0.7499999462989246  0.7499998091726907  1.0000
  Ru  Ru1       1.0  1.595880872572062e-08  2.618448736958846e-08  0.9999999318933537  1.0000
  Br  Br1       1.0  0.25021080873062945  0.25021078174169326  0.7497892233251614  1.0000
  Br  Br2       1.0  0.7497892079010026  0.7497891414199771  0.25021087220425237  1.0000
  Br  Br3       1.0  0.7497892473387548  0.2502107896806684  0.2502108122532493  1.0000
  Br  Br4       1.0  0.25021080149286823  0.7497891998150378  0.7497893066996032  1.0000
  Br  Br5       1.0  0.25021075262793663  0.7497891695884936  0.2502108770410483  1.0000
  Br  Br6       1.0  0.7497892995951174  0.2502108146703147  0.7497892100525693  1.0000
