data_image0
_chemical_formula_structural       Mn2ReF6
_chemical_formula_sum              "Mn2 Re1 F6"
_cell_length_a       5.727118646391341
_cell_length_b       5.72711866281133
_cell_length_c       5.727118407506809
_cell_angle_alpha    60.000001953086745
_cell_angle_beta     59.999999393223
_cell_angle_gamma    59.999995583423

_space_group_name_H-M_alt    "P 1"
_space_group_IT_number       1

loop_
  _space_group_symop_operation_xyz
  'x, y, z'

loop_
  _atom_site_type_symbol
  _atom_site_label
  _atom_site_symmetry_multiplicity
  _atom_site_fract_x
  _atom_site_fract_y
  _atom_site_fract_z
  _atom_site_occupancy
  Mn  Mn1       1.0  0.2500000698823293  0.24999985547473766  0.25000008619905584  1.0000
  Mn  Mn2       1.0  0.7500002099893031  0.7499997952438132  0.7500000689348224  1.0000
  Re  Re1       1.0  0.9999999236290773  0.9999999871689998  1.1269803547124324e-07  1.0000
  F   F1        1.0  0.2466107542094474  0.24661091981863834  0.7533890610840278  1.0000
  F   F2        1.0  0.7533891010513247  0.7533891821236338  0.24661077343356042  1.0000
  F   F3        1.0  0.7533890374921033  0.24661095429947327  0.2466108432869442  1.0000
  F   F4        1.0  0.24661081182138758  0.7533891775818149  0.753389173049523  1.0000
  F   F5        1.0  0.24661087227355197  0.7533892202143818  0.24661082158660438  1.0000
  F   F6        1.0  0.7533891991886388  0.24661089242038445  0.7533890898066127  1.0000
