data_image0
_chemical_formula_structural       Mn2RhF6
_chemical_formula_sum              "Mn2 Rh1 F6"
_cell_length_a       5.516316042194666
_cell_length_b       5.516315976286493
_cell_length_c       5.516316115163422
_cell_angle_alpha    59.99999916785757
_cell_angle_beta     59.99999921543084
_cell_angle_gamma    60.00000112986042

_space_group_name_H-M_alt    "P 1"
_space_group_IT_number       1

loop_
  _space_group_symop_operation_xyz
  'x, y, z'

loop_
  _atom_site_type_symbol
  _atom_site_label
  _atom_site_symmetry_multiplicity
  _atom_site_fract_x
  _atom_site_fract_y
  _atom_site_fract_z
  _atom_site_occupancy
  Mn  Mn1       1.0  0.25000003958567935  0.24999999480959975  0.24999989194619154  1.0000
  Mn  Mn2       1.0  0.7499999260514467  0.7499999910894628  0.7500000208407971  1.0000
  Rh  Rh1       1.0  3.645222913738336e-08  0.9999999911191109  2.0657606169456682e-08  1.0000
  F   F1        1.0  0.25407220877974307  0.2540721477941217  0.7459278853729697  1.0000
  F   F2        1.0  0.7459277662026078  0.7459278603071661  0.2540721911078913  1.0000
  F   F3        1.0  0.7459278474580133  0.25407220454525153  0.25407218312757207  1.0000
  F   F4        1.0  0.25407218391499775  0.7459278102167048  0.745927816507524  1.0000
  F   F5        1.0  0.25407217758322  0.7459278406512008  0.2540722158067425  1.0000
  F   F6        1.0  0.7459278222641276  0.25407218077142224  0.7459278071376761  1.0000
