data_image0
_chemical_formula_structural       Mn2RhCl6
_chemical_formula_sum              "Mn2 Rh1 Cl6"
_cell_length_a       6.565764212212967
_cell_length_b       6.56576417198399
_cell_length_c       6.565764101343309
_cell_angle_alpha    59.999996899151576
_cell_angle_beta     59.999998328555904
_cell_angle_gamma    59.999999364824944

_space_group_name_H-M_alt    "P 1"
_space_group_IT_number       1

loop_
  _space_group_symop_operation_xyz
  'x, y, z'

loop_
  _atom_site_type_symbol
  _atom_site_label
  _atom_site_symmetry_multiplicity
  _atom_site_fract_x
  _atom_site_fract_y
  _atom_site_fract_z
  _atom_site_occupancy
  Mn  Mn1       1.0  0.25000012307573566  0.24999990982594628  0.24999994071831388  1.0000
  Mn  Mn2       1.0  0.7499999563604507  0.7500000764329471  0.7500001886591466  1.0000
  Rh  Rh1       1.0  0.9999999766222024  0.9999999962693013  0.9999999541552216  1.0000
  Cl  Cl1       1.0  0.2502494769323036  0.25024946523994834  0.7497505590765057  1.0000
  Cl  Cl2       1.0  0.7497505070206607  0.7497505172882494  0.2502494234342102  1.0000
  Cl  Cl3       1.0  0.7497504774332553  0.2502495119670202  0.25024941391074484  1.0000
  Cl  Cl4       1.0  0.25024950150883557  0.7497505489058829  0.7497505304100012  1.0000
  Cl  Cl5       1.0  0.25024947247495166  0.7497505008485663  0.25024941579522425  1.0000
  Cl  Cl6       1.0  0.7497505227584909  0.2502494742182309  0.7497505693751089  1.0000
