data_image0
_chemical_formula_structural       Mn2ReCl6
_chemical_formula_sum              "Mn2 Re1 Cl6"
_cell_length_a       6.675105141236375
_cell_length_b       6.675105176618014
_cell_length_c       6.6751049334888375
_cell_angle_alpha    59.9999983606375
_cell_angle_beta     59.999999543543304
_cell_angle_gamma    59.99999784901155

_space_group_name_H-M_alt    "P 1"
_space_group_IT_number       1

loop_
  _space_group_symop_operation_xyz
  'x, y, z'

loop_
  _atom_site_type_symbol
  _atom_site_label
  _atom_site_symmetry_multiplicity
  _atom_site_fract_x
  _atom_site_fract_y
  _atom_site_fract_z
  _atom_site_occupancy
  Mn  Mn1       1.0  0.2499997697738957  0.2499996273042661  0.2500003971363985  1.0000
  Mn  Mn2       1.0  0.7500001285917419  0.7500000671903083  0.749999742700449  1.0000
  Re  Re1       1.0  1.3401150188053292e-08  5.3209051649707473e-08  0.9999999846721432  1.0000
  Cl  Cl1       1.0  0.2517636297151678  0.2517636738582554  0.7482362855197585  1.0000
  Cl  Cl2       1.0  0.7482364093566374  0.748236413282425  0.251763674530962  1.0000
  Cl  Cl3       1.0  0.7482364297598181  0.25176351144824716  0.2517637196729237  1.0000
  Cl  Cl4       1.0  0.2517636206535626  0.7482364949614562  0.7482363095288864  1.0000
  Cl  Cl5       1.0  0.25176359995159825  0.7482365430425189  0.25176360169879825  1.0000
  Cl  Cl6       1.0  0.7482364010272519  0.25176360648119056  0.7482362862827326  1.0000
