data_image0
_chemical_formula_structural       Mn2RuF6
_chemical_formula_sum              "Mn2 Ru1 F6"
_cell_length_a       5.454207937564744
_cell_length_b       5.4542077613076545
_cell_length_c       5.454207873277163
_cell_angle_alpha    60.00000084591485
_cell_angle_beta     60.00000106659683
_cell_angle_gamma    60.00000222521654

_space_group_name_H-M_alt    "P 1"
_space_group_IT_number       1

loop_
  _space_group_symop_operation_xyz
  'x, y, z'

loop_
  _atom_site_type_symbol
  _atom_site_label
  _atom_site_symmetry_multiplicity
  _atom_site_fract_x
  _atom_site_fract_y
  _atom_site_fract_z
  _atom_site_occupancy
  Mn  Mn1       1.0  0.24999997820087586  0.2500000110229407  0.25000001566457  1.0000
  Mn  Mn2       1.0  0.7499999903952594  0.7500000308233175  0.7499999303812531  1.0000
  Ru  Ru1       1.0  8.127127131793714e-09  0.9999999438623854  2.2171796311737208e-08  1.0000
  F   F1        1.0  0.25666777503354915  0.2566677165876904  0.7433322395248483  1.0000
  F   F2        1.0  0.7433322700564149  0.743332273611965  0.2566677472673189  1.0000
  F   F3        1.0  0.74333233090028  0.25666762162104245  0.25666774208736653  1.0000
  F   F4        1.0  0.2566676782213245  0.7433323304050352  0.7433323807818961  1.0000
  F   F5        1.0  0.2566677275264633  0.7433322423978977  0.25666768883630825  1.0000
  F   F6        1.0  0.7433322639943396  0.2566677814843241  0.743332247395412  1.0000
