data_image0
_chemical_formula_structural       Mn2ReI6
_chemical_formula_sum              "Mn2 Re1 I6"
_cell_length_a       7.6754375486544175
_cell_length_b       7.675437534978641
_cell_length_c       7.6754375103318955
_cell_angle_alpha    60.00000011797181
_cell_angle_beta     59.99999985215813
_cell_angle_gamma    59.999999997907736

_space_group_name_H-M_alt    "P 1"
_space_group_IT_number       1

loop_
  _space_group_symop_operation_xyz
  'x, y, z'

loop_
  _atom_site_type_symbol
  _atom_site_label
  _atom_site_symmetry_multiplicity
  _atom_site_fract_x
  _atom_site_fract_y
  _atom_site_fract_z
  _atom_site_occupancy
  Mn  Mn1       1.0  0.25000000432504965  0.24999993073115462  0.2500000338353778  1.0000
  Mn  Mn2       1.0  0.7500000245201396  0.7500000283523016  0.7499999372656421  1.0000
  Re  Re1       1.0  0.9999999884366657  0.9999999489386298  4.824949756059074e-08  1.0000
  I   I1        1.0  0.24895532711945498  0.24895533383187615  0.7510446702171435  1.0000
  I   I2        1.0  0.7510447161596588  0.7510447624790128  0.24895527847034804  1.0000
  I   I3        1.0  0.7510446903053066  0.24895528559181912  0.2489553203052269  1.0000
  I   I4        1.0  0.2489552917962561  0.7510447054049936  0.751044705113792  1.0000
  I   I5        1.0  0.24895528121545857  0.7510446967659262  0.2489553139811002  1.0000
  I   I6        1.0  0.7510446730010606  0.24895531018756462  0.75104468873924  1.0000
