data_image0
_chemical_formula_structural       Mn2RhBr6
_chemical_formula_sum              "Mn2 Rh1 Br6"
_cell_length_a       6.9419490678662905
_cell_length_b       6.941949143342635
_cell_length_c       6.941949062570938
_cell_angle_alpha    60.00000047235324
_cell_angle_beta     59.99999942444418
_cell_angle_gamma    59.99999881124326

_space_group_name_H-M_alt    "P 1"
_space_group_IT_number       1

loop_
  _space_group_symop_operation_xyz
  'x, y, z'

loop_
  _atom_site_type_symbol
  _atom_site_label
  _atom_site_symmetry_multiplicity
  _atom_site_fract_x
  _atom_site_fract_y
  _atom_site_fract_z
  _atom_site_occupancy
  Mn  Mn1       1.0  0.2500001571556939  0.25000013186415293  0.24999982840571483  1.0000
  Mn  Mn2       1.0  0.7499998221230386  0.7499999633471638  0.7499998978057473  1.0000
  Rh  Rh1       1.0  1.0314603517083863e-07  0.9999999700074667  0.9999999288508254  1.0000
  Br  Br1       1.0  0.24939725993899173  0.2493971742393144  0.7506027614057205  1.0000
  Br  Br2       1.0  0.7506027667731375  0.7506027886520108  0.24939736161637507  1.0000
  Br  Br3       1.0  0.7506027574091453  0.24939720366289325  0.24939722197802006  1.0000
  Br  Br4       1.0  0.24939725120775263  0.7506027486428332  0.7506029125034557  1.0000
  Br  Br5       1.0  0.24939718511005093  0.7506027664149822  0.2493972221559284  1.0000
  Br  Br6       1.0  0.7506026990051248  0.24939725998994108  0.7506028640604114  1.0000
