data_image0
_chemical_formula_structural       Mn2SbI6
_chemical_formula_sum              "Mn2 Sb1 I6"
_cell_length_a       7.907692400871849
_cell_length_b       7.907692312702275
_cell_length_c       7.907692272090651
_cell_angle_alpha    60.000000263828454
_cell_angle_beta     59.99999997921463
_cell_angle_gamma    59.999998775002226

_space_group_name_H-M_alt    "P 1"
_space_group_IT_number       1

loop_
  _space_group_symop_operation_xyz
  'x, y, z'

loop_
  _atom_site_type_symbol
  _atom_site_label
  _atom_site_symmetry_multiplicity
  _atom_site_fract_x
  _atom_site_fract_y
  _atom_site_fract_z
  _atom_site_occupancy
  Mn  Mn1       1.0  0.2500000131971426  0.2499999441338947  0.2500000045152675  1.0000
  Mn  Mn2       1.0  0.7500000330392995  0.750000022904316  0.7499999544499283  1.0000
  Sb  Sb1       1.0  0.9999999980387068  0.9999999752191696  0.9999999349663922  1.0000
  I   I1        1.0  0.2634421538489354  0.26344214577730934  0.7365578477309781  1.0000
  I   I2        1.0  0.7365578443316623  0.736557890956987  0.26344216364366974  1.0000
  I   I3        1.0  0.7365578558676917  0.2634421139744939  0.2634421634484798  1.0000
  I   I4        1.0  0.26344210176573485  0.7365579305038124  0.7365578795028459  1.0000
  I   I5        1.0  0.2634421091684313  0.7365578856332452  0.26344213686549567  1.0000
  I   I6        1.0  0.7365578965208393  0.2634420891489757  0.7365579055246274  1.0000
