data_image0
_chemical_formula_structural       Mn2SbF6
_chemical_formula_sum              "Mn2 Sb1 F6"
_cell_length_a       5.877562718875753
_cell_length_b       5.877562420384512
_cell_length_c       5.8775624635727395
_cell_angle_alpha    60.00000064924175
_cell_angle_beta     60.00000237491888
_cell_angle_gamma    60.000001608893506

_space_group_name_H-M_alt    "P 1"
_space_group_IT_number       1

loop_
  _space_group_symop_operation_xyz
  'x, y, z'

loop_
  _atom_site_type_symbol
  _atom_site_label
  _atom_site_symmetry_multiplicity
  _atom_site_fract_x
  _atom_site_fract_y
  _atom_site_fract_z
  _atom_site_occupancy
  Mn  Mn1       1.0  0.2500001477269054  0.2500001560124621  0.24999973388899946  1.0000
  Mn  Mn2       1.0  0.7499997573855187  0.7500001325514902  0.7500001563691733  1.0000
  Sb  Sb1       1.0  1.2342512948155782e-08  3.959150269786792e-08  3.868564443524228e-08  1.0000
  F   F1        1.0  0.2554287115330524  0.25542865026838457  0.7445712556706936  1.0000
  F   F2        1.0  0.7445713164805036  0.7445713403174234  0.25542874594538234  1.0000
  F   F3        1.0  0.7445711579344428  0.2554288041089754  0.2554285999022232  1.0000
  F   F4        1.0  0.2554287464290716  0.7445711802255403  0.7445714377409641  1.0000
  F   F5        1.0  0.2554288864894809  0.744571235356836  0.2554286185121011  1.0000
  F   F6        1.0  0.7445712010611668  0.2554285176799605  0.7445713853392694  1.0000
