data_image0
_chemical_formula_structural       Mn2SnCl6
_chemical_formula_sum              "Mn2 Sn1 Cl6"
_cell_length_a       6.837834444268844
_cell_length_b       6.837834130058777
_cell_length_c       6.837834414730434
_cell_angle_alpha    59.999998408113534
_cell_angle_beta     59.99999861399561
_cell_angle_gamma    59.99999682195467

_space_group_name_H-M_alt    "P 1"
_space_group_IT_number       1

loop_
  _space_group_symop_operation_xyz
  'x, y, z'

loop_
  _atom_site_type_symbol
  _atom_site_label
  _atom_site_symmetry_multiplicity
  _atom_site_fract_x
  _atom_site_fract_y
  _atom_site_fract_z
  _atom_site_occupancy
  Mn  Mn1       1.0  0.24999968440023998  0.25000010717974086  0.25000018904806676  1.0000
  Mn  Mn2       1.0  0.7500002594811659  0.74999987913012  0.7499995724414099  1.0000
  Sn  Sn1       1.0  0.9999999964353161  0.9999999802975714  3.210787488645643e-08  1.0000
  Cl  Cl1       1.0  0.254175990769301  0.25417609765952315  0.7458239678313708  1.0000
  Cl  Cl2       1.0  0.7458240232353027  0.7458239011882473  0.2541761486518608  1.0000
  Cl  Cl3       1.0  0.7458240030658776  0.254176012066054  0.2541760919815063  1.0000
  Cl  Cl4       1.0  0.25417603079330064  0.7458240082752746  0.7458239541043132  1.0000
  Cl  Cl5       1.0  0.2541759581159759  0.7458239045371619  0.2541761482422655  1.0000
  Cl  Cl6       1.0  0.7458240568778423  0.25417610147512787  0.7458238983537893  1.0000
