data_image0
_chemical_formula_structural       Mn2SBr6
_chemical_formula_sum              "Mn2 S1 Br6"
_cell_length_a       7.026347813887624
_cell_length_b       7.02634779890329
_cell_length_c       7.026347762845104
_cell_angle_alpha    59.99999989781469
_cell_angle_beta     59.999999881386536
_cell_angle_gamma    59.999998643777424

_space_group_name_H-M_alt    "P 1"
_space_group_IT_number       1

loop_
  _space_group_symop_operation_xyz
  'x, y, z'

loop_
  _atom_site_type_symbol
  _atom_site_label
  _atom_site_symmetry_multiplicity
  _atom_site_fract_x
  _atom_site_fract_y
  _atom_site_fract_z
  _atom_site_occupancy
  Mn  Mn1       1.0  0.24999987138555957  0.24999981955225886  0.25000019440991256  1.0000
  Mn  Mn2       1.0  0.7499999638559286  0.7500000513021554  0.7500000067395483  1.0000
  S   S1        1.0  5.074560650679681e-08  1.0458447236948918e-08  0.9999999651283294  1.0000
  Br  Br1       1.0  0.25639493730638313  0.2563948823701093  0.7436050757254749  1.0000
  Br  Br2       1.0  0.7436050911055878  0.7436051139856779  0.25639489635054696  1.0000
  Br  Br3       1.0  0.7436051466480286  0.2563949212062458  0.25639491142822  1.0000
  Br  Br4       1.0  0.25639489487682626  0.7436051344140795  0.7436050230358762  1.0000
  Br  Br5       1.0  0.25639490660049097  0.7436051439706579  0.25639492323645624  1.0000
  Br  Br6       1.0  0.7436051435229452  0.25639492036504063  0.7436049968778048  1.0000
