data_image0
_chemical_formula_structural       Mn2SiF6
_chemical_formula_sum              "Mn2 Si1 F6"
_cell_length_a       5.539296487437089
_cell_length_b       5.53929594031772
_cell_length_c       5.539296100266787
_cell_angle_alpha    60.00000017535771
_cell_angle_beta     59.99999984640056
_cell_angle_gamma    60.000001896697725

_space_group_name_H-M_alt    "P 1"
_space_group_IT_number       1

loop_
  _space_group_symop_operation_xyz
  'x, y, z'

loop_
  _atom_site_type_symbol
  _atom_site_label
  _atom_site_symmetry_multiplicity
  _atom_site_fract_x
  _atom_site_fract_y
  _atom_site_fract_z
  _atom_site_occupancy
  Mn  Mn1       1.0  0.24999991160537882  0.25000006239025807  0.2500000104554695  1.0000
  Mn  Mn2       1.0  0.7500000351845569  0.7500000677761479  0.7499998975527002  1.0000
  Si  Si1       1.0  0.9999999391249701  9.507350548961519e-08  8.17473350342355e-09  1.0000
  F   F1        1.0  0.21798815513165465  0.2179882297313473  0.7820118233735562  1.0000
  F   F2        1.0  0.7820119455402159  0.7820117014440046  0.2179881757899428  1.0000
  F   F3        1.0  0.7820116906075314  0.21798830536258132  0.2179884318813442  1.0000
  F   F4        1.0  0.21798833270435122  0.7820116014916382  0.7820116488125362  1.0000
  F   F5        1.0  0.21798830929295115  0.7820116199620127  0.21798848417892452  1.0000
  F   F6        1.0  0.7820116514603884  0.21798832447940286  0.7820115133206036  1.0000
