data_image0
_chemical_formula_structural       Mn2SCl6
_chemical_formula_sum              "Mn2 S1 Cl6"
_cell_length_a       6.73471305541525
_cell_length_b       6.734713107295231
_cell_length_c       6.7347131616167175
_cell_angle_alpha    60.00000071014224
_cell_angle_beta     60.000000621956076
_cell_angle_gamma    60.00000031553597

_space_group_name_H-M_alt    "P 1"
_space_group_IT_number       1

loop_
  _space_group_symop_operation_xyz
  'x, y, z'

loop_
  _atom_site_type_symbol
  _atom_site_label
  _atom_site_symmetry_multiplicity
  _atom_site_fract_x
  _atom_site_fract_y
  _atom_site_fract_z
  _atom_site_occupancy
  Mn  Mn1       1.0  0.2500000996152464  0.2500001742239144  0.24999986548207892  1.0000
  Mn  Mn2       1.0  0.7500000279737965  0.7499999516453607  0.7499999995772619  1.0000
  S   S1        1.0  5.9935347601907935e-09  0.9999999254392299  0.9999999897382902  1.0000
  Cl  Cl1       1.0  0.24957813404662443  0.24957815273365958  0.750421866308947  1.0000
  Cl  Cl2       1.0  0.7504218785487509  0.7504218294697428  0.24957817708002172  1.0000
  Cl  Cl3       1.0  0.7504217441712873  0.24957816769152122  0.24957816787955286  1.0000
  Cl  Cl4       1.0  0.2495781073425056  0.7504218399716566  0.7504219240173433  1.0000
  Cl  Cl5       1.0  0.24957818371619966  0.75042178385101  0.2495780889118984  1.0000
  Cl  Cl6       1.0  0.7504218166871565  0.24957817834828305  0.7504219230601189  1.0000
