data_image0
_chemical_formula_structural       Mn2SI6
_chemical_formula_sum              "Mn2 S1 I6"
_cell_length_a       7.614342278755711
_cell_length_b       7.61434207354763
_cell_length_c       7.614341994232494
_cell_angle_alpha    60.00000020096823
_cell_angle_beta     60.00000125578918
_cell_angle_gamma    59.99999844729708

_space_group_name_H-M_alt    "P 1"
_space_group_IT_number       1

loop_
  _space_group_symop_operation_xyz
  'x, y, z'

loop_
  _atom_site_type_symbol
  _atom_site_label
  _atom_site_symmetry_multiplicity
  _atom_site_fract_x
  _atom_site_fract_y
  _atom_site_fract_z
  _atom_site_occupancy
  Mn  Mn1       1.0  0.2499999923298399  0.25000002170686897  0.2500000010061429  1.0000
  Mn  Mn2       1.0  0.7499999936419556  0.7499999605699884  0.75000001150812  1.0000
  S   S1        1.0  4.78676767862045e-08  6.112189925946861e-08  0.999999934998723  1.0000
  I   I1        1.0  0.26407937067518755  0.26407935861405996  0.735920629298994  1.0000
  I   I2        1.0  0.7359206201982276  0.7359206317051527  0.264079374116659  1.0000
  I   I3        1.0  0.73592064602077  0.2640793900410351  0.2640793250113527  1.0000
  I   I4        1.0  0.26407932915167825  0.7359206018866484  0.7359206985836595  1.0000
  I   I5        1.0  0.2640793290661877  0.7359205882136944  0.26407938381994195  1.0000
  I   I6        1.0  0.7359206738628691  0.264079379586923  0.7359206419002327  1.0000
