data_image0
_chemical_formula_structural       Mn2SF6
_chemical_formula_sum              "Mn2 S1 F6"
_cell_length_a       5.256049309715551
_cell_length_b       5.2560493779522774
_cell_length_c       5.256049363723746
_cell_angle_alpha    59.99999989739623
_cell_angle_beta     60.00000121992444
_cell_angle_gamma    60.00000142321182

_space_group_name_H-M_alt    "P 1"
_space_group_IT_number       1

loop_
  _space_group_symop_operation_xyz
  'x, y, z'

loop_
  _atom_site_type_symbol
  _atom_site_label
  _atom_site_symmetry_multiplicity
  _atom_site_fract_x
  _atom_site_fract_y
  _atom_site_fract_z
  _atom_site_occupancy
  Mn  Mn1       1.0  0.25000004378284635  0.2500000316502394  0.24999990933876287  1.0000
  Mn  Mn2       1.0  0.74999999103645  0.7500000413569801  0.7499999714670635  1.0000
  S   S1        1.0  0.9999999486717575  4.1942922494210904e-08  3.51337737702035e-08  1.0000
  F   F1        1.0  0.2609295830126989  0.26092954500474935  0.7390704322721284  1.0000
  F   F2        1.0  0.7390704161917636  0.7390704371261348  0.2609295954923468  1.0000
  F   F3        1.0  0.7390703947360674  0.2609295946039464  0.2609296308021751  1.0000
  F   F4        1.0  0.26092964665498125  0.739070287329955  0.7390704259674993  1.0000
  F   F5        1.0  0.2609296195886367  0.7390703657549496  0.26092964739776986  1.0000
  F   F6        1.0  0.7390703260906845  0.26092965831885745  0.7390703823526747  1.0000
