data_image0
_chemical_formula_structural       Mn2SnI6
_chemical_formula_sum              "Mn2 Sn1 I6"
_cell_length_a       7.811761701305792
_cell_length_b       7.811761712160665
_cell_length_c       7.811761728003198
_cell_angle_alpha    59.999999744277595
_cell_angle_beta     60.000000063067304
_cell_angle_gamma    60.00000089653541

_space_group_name_H-M_alt    "P 1"
_space_group_IT_number       1

loop_
  _space_group_symop_operation_xyz
  'x, y, z'

loop_
  _atom_site_type_symbol
  _atom_site_label
  _atom_site_symmetry_multiplicity
  _atom_site_fract_x
  _atom_site_fract_y
  _atom_site_fract_z
  _atom_site_occupancy
  Mn  Mn1       1.0  0.2500000285589717  0.24999999454729216  0.24999999047121083  1.0000
  Mn  Mn2       1.0  0.7499999810710894  0.7499999914809835  0.7499999698722739  1.0000
  Sn  Sn1       1.0  0.9999999838299449  0.9999999952965352  0.9999999733132517  1.0000
  I   I1        1.0  0.26156882469688975  0.2615688155553096  0.7384311775445328  1.0000
  I   I2        1.0  0.7384311871721628  0.7384312081006843  0.2615688063897098  1.0000
  I   I3        1.0  0.7384311653535591  0.26156883725871805  0.26156881657506165  1.0000
  I   I4        1.0  0.2615688178182503  0.7384311926685617  0.738431204174579  1.0000
  I   I5        1.0  0.261568839326266  0.7384311610813974  0.26156883556464383  1.0000
  I   I6        1.0  0.7384311736187688  0.26156880613301886  0.7384312246969935  1.0000
