data_image0
_chemical_formula_structural       Mn2SbBr6
_chemical_formula_sum              "Mn2 Sb1 Br6"
_cell_length_a       7.185623096557373
_cell_length_b       7.185623187817044
_cell_length_c       7.185623180921331
_cell_angle_alpha    59.999999817473665
_cell_angle_beta     59.99999935267701
_cell_angle_gamma    60.00000166435929

_space_group_name_H-M_alt    "P 1"
_space_group_IT_number       1

loop_
  _space_group_symop_operation_xyz
  'x, y, z'

loop_
  _atom_site_type_symbol
  _atom_site_label
  _atom_site_symmetry_multiplicity
  _atom_site_fract_x
  _atom_site_fract_y
  _atom_site_fract_z
  _atom_site_occupancy
  Mn  Mn1       1.0  0.24999997360166307  0.2500000583619825  0.24999990095158844  1.0000
  Mn  Mn2       1.0  0.7499999799700553  0.7500001904258894  0.7500000928442585  1.0000
  Sb  Sb1       1.0  1.1768409901538237e-07  0.9999998397828379  0.999999992041509  1.0000
  Br  Br1       1.0  0.26053243511542595  0.26053246321553164  0.739467612399601  1.0000
  Br  Br2       1.0  0.73946762125726  0.7394675350199682  0.2605323397635257  1.0000
  Br  Br3       1.0  0.7394674499193314  0.2605324077713565  0.26053257598734963  1.0000
  Br  Br4       1.0  0.26053241701036484  0.7394676092129567  0.7394675185812432  1.0000
  Br  Br5       1.0  0.2605325515872165  0.7394674599171407  0.26053241852548464  1.0000
  Br  Br6       1.0  0.739467458055583  0.2605324326432073  0.7394675458234452  1.0000
