data_image0
_chemical_formula_structural       Mn2SbCl6
_chemical_formula_sum              "Mn2 Sb1 Cl6"
_cell_length_a       6.864525399943975
_cell_length_b       6.864525222998507
_cell_length_c       6.864525302537314
_cell_angle_alpha    60.000000659800634
_cell_angle_beta     59.99999856954526
_cell_angle_gamma    59.9999988365503

_space_group_name_H-M_alt    "P 1"
_space_group_IT_number       1

loop_
  _space_group_symop_operation_xyz
  'x, y, z'

loop_
  _atom_site_type_symbol
  _atom_site_label
  _atom_site_symmetry_multiplicity
  _atom_site_fract_x
  _atom_site_fract_y
  _atom_site_fract_z
  _atom_site_occupancy
  Mn  Mn1       1.0  0.2500003546415076  0.24999979168517547  0.25000004448782875  1.0000
  Mn  Mn2       1.0  0.7500000777457492  0.7499999870242752  0.749999950550215  1.0000
  Sb  Sb1       1.0  7.47278701560014e-08  0.9999999625325239  0.9999999201856729  1.0000
  Cl  Cl1       1.0  0.2557460637284341  0.2557462304834538  0.7442538231899534  1.0000
  Cl  Cl2       1.0  0.7442537577519974  0.7442538872174337  0.255746156302239  1.0000
  Cl  Cl3       1.0  0.7442537569625544  0.25574609814564314  0.2557461600256249  1.0000
  Cl  Cl4       1.0  0.25574601594026125  0.7442540088502525  0.7442538724161115  1.0000
  Cl  Cl5       1.0  0.25574613573987776  0.7442538389918454  0.25574615915215043  1.0000
  Cl  Cl6       1.0  0.7442537605879658  0.2557462055582598  0.7442539083543886  1.0000
