data_image0
_chemical_formula_structural       Mn2SeCl6
_chemical_formula_sum              "Mn2 Se1 Cl6"
_cell_length_a       6.758708648819928
_cell_length_b       6.758708661284081
_cell_length_c       6.75870856984543
_cell_angle_alpha    59.999999688010064
_cell_angle_beta     60.00000055349578
_cell_angle_gamma    60.00000092476028

_space_group_name_H-M_alt    "P 1"
_space_group_IT_number       1

loop_
  _space_group_symop_operation_xyz
  'x, y, z'

loop_
  _atom_site_type_symbol
  _atom_site_label
  _atom_site_symmetry_multiplicity
  _atom_site_fract_x
  _atom_site_fract_y
  _atom_site_fract_z
  _atom_site_occupancy
  Mn  Mn1       1.0  0.2499999817599985  0.25000004922697683  0.25000000929089544  1.0000
  Mn  Mn2       1.0  0.74999993913908  0.749999991840422  0.750000172485021  1.0000
  Se  Se1       1.0  2.4418882993178438e-08  3.6241975329152454e-09  4.9600081474888675e-08  1.0000
  Cl  Cl1       1.0  0.2516322054407012  0.2516321278323981  0.7483678470551651  1.0000
  Cl  Cl2       1.0  0.7483677996587406  0.7483677682670896  0.2516321180159023  1.0000
  Cl  Cl3       1.0  0.7483678296781999  0.2516322333755599  0.25163214851491283  1.0000
  Cl  Cl4       1.0  0.25163216256179105  0.7483678294370287  0.7483677736594982  1.0000
  Cl  Cl5       1.0  0.25163221184659623  0.748367843087901  0.251632097311386  1.0000
  Cl  Cl6       1.0  0.7483678533924781  0.2516321544891274  0.7483677825123763  1.0000
