data_image0
_chemical_formula_structural       Mn2SbCl6
_chemical_formula_sum              "Mn2 Sb1 Cl6"
_cell_length_a       6.866150678909366
_cell_length_b       6.866150350578173
_cell_length_c       6.866151303823292
_cell_angle_alpha    59.99999470575657
_cell_angle_beta     59.99999686446505
_cell_angle_gamma    59.999992158961845

_space_group_name_H-M_alt    "P 1"
_space_group_IT_number       1

loop_
  _space_group_symop_operation_xyz
  'x, y, z'

loop_
  _atom_site_type_symbol
  _atom_site_label
  _atom_site_symmetry_multiplicity
  _atom_site_fract_x
  _atom_site_fract_y
  _atom_site_fract_z
  _atom_site_occupancy
  Mn  Mn1       1.0  0.25000020396973  0.2500001647350097  0.24999973661733818  1.0000
  Mn  Mn2       1.0  0.7499997130647725  0.7499996540619756  0.7500002075107143  1.0000
  Sb  Sb1       1.0  0.9999999862401235  1.6053690089958363e-08  2.215581291181135e-08  1.0000
  Cl  Cl1       1.0  0.25584747334811964  0.25584738898585363  0.7441526030885399  1.0000
  Cl  Cl2       1.0  0.7441526547476242  0.7441526795351819  0.2558473582382632  1.0000
  Cl  Cl3       1.0  0.744152657398642  0.2558473907375592  0.255847324208975  1.0000
  Cl  Cl4       1.0  0.2558473757566679  0.7441526296224118  0.7441526649759782  1.0000
  Cl  Cl5       1.0  0.2558473241909319  0.7441526600325309  0.255847400641906  1.0000
  Cl  Cl6       1.0  0.7441526221760467  0.2558474138397422  0.7441526765456411  1.0000
