data_image0
_chemical_formula_structural       Mn2SbBr6
_chemical_formula_sum              "Mn2 Sb1 Br6"
_cell_length_a       7.1862225704612
_cell_length_b       7.186222496383608
_cell_length_c       7.186222649173286
_cell_angle_alpha    60.00000027381655
_cell_angle_beta     59.99999918363858
_cell_angle_gamma    59.999998230365314

_space_group_name_H-M_alt    "P 1"
_space_group_IT_number       1

loop_
  _space_group_symop_operation_xyz
  'x, y, z'

loop_
  _atom_site_type_symbol
  _atom_site_label
  _atom_site_symmetry_multiplicity
  _atom_site_fract_x
  _atom_site_fract_y
  _atom_site_fract_z
  _atom_site_occupancy
  Mn  Mn1       1.0  0.25000012356646273  0.249999836575306  0.25000004532713394  1.0000
  Mn  Mn2       1.0  0.7499999861554056  0.7500000704392396  0.7500000005839814  1.0000
  Sb  Sb1       1.0  0.999999990002612  0.9999999625054943  1.4481094033266076e-07  1.0000
  Br  Br1       1.0  0.2605402407665615  0.2605402850664548  0.7394597298792386  1.0000
  Br  Br2       1.0  0.7394597157191921  0.7394598213506998  0.2605401941484643  1.0000
  Br  Br3       1.0  0.7394597880446416  0.2605402034404109  0.26054017847838307  1.0000
  Br  Br4       1.0  0.2605402461229822  0.7394597615201915  0.7394597760451078  1.0000
  Br  Br5       1.0  0.26054020268622813  0.7394598116352384  0.2605402223360703  1.0000
  Br  Br6       1.0  0.7394597064719951  0.26054024876593  0.7394597024421862  1.0000
