data_image0
_chemical_formula_structural       Mn2SeI6
_chemical_formula_sum              "Mn2 Se1 I6"
_cell_length_a       7.754493498782787
_cell_length_b       7.7544933916808345
_cell_length_c       7.754493437616283
_cell_angle_alpha    60.00000071015942
_cell_angle_beta     59.99999957550492
_cell_angle_gamma    60.00000002933705

_space_group_name_H-M_alt    "P 1"
_space_group_IT_number       1

loop_
  _space_group_symop_operation_xyz
  'x, y, z'

loop_
  _atom_site_type_symbol
  _atom_site_label
  _atom_site_symmetry_multiplicity
  _atom_site_fract_x
  _atom_site_fract_y
  _atom_site_fract_z
  _atom_site_occupancy
  Mn  Mn1       1.0  0.24999998025819115  0.25000004647545804  0.24999997172894325  1.0000
  Mn  Mn2       1.0  0.7500000393425165  0.7499999420013472  0.7500000935728584  1.0000
  Se  Se1       1.0  0.9999999833647147  0.999999987364798  0.9999999978707701  1.0000
  I   I1        1.0  0.2632697275803249  0.2632697787683745  0.7367302514408727  1.0000
  I   I2        1.0  0.7367302937494435  0.7367302491934351  0.2632696746130072  1.0000
  I   I3        1.0  0.7367302544286521  0.2632697787398476  0.26326970980112485  1.0000
  I   I4        1.0  0.26326972337219245  0.7367302413249612  0.736730280652964  1.0000
  I   I5        1.0  0.26326976072464203  0.7367302462911238  0.2632697633908206  1.0000
  I   I6        1.0  0.736730240932363  0.26326972007407745  0.7367302639077645  1.0000
