data_image0
_chemical_formula_structural       Mn2SnBr6
_chemical_formula_sum              "Mn2 Sn1 Br6"
_cell_length_a       7.1445945576708745
_cell_length_b       7.1445946134847444
_cell_length_c       7.1445945689029084
_cell_angle_alpha    59.99999940460848
_cell_angle_beta     59.999999623034945
_cell_angle_gamma    59.99999926583814

_space_group_name_H-M_alt    "P 1"
_space_group_IT_number       1

loop_
  _space_group_symop_operation_xyz
  'x, y, z'

loop_
  _atom_site_type_symbol
  _atom_site_label
  _atom_site_symmetry_multiplicity
  _atom_site_fract_x
  _atom_site_fract_y
  _atom_site_fract_z
  _atom_site_occupancy
  Mn  Mn1       1.0  0.24999998439600943  0.2499998355625408  0.25000008167015053  1.0000
  Mn  Mn2       1.0  0.7499998642217648  0.7500001323800601  0.749999910863362  1.0000
  Sn  Sn1       1.0  0.9999999962774335  2.5713388005789955e-08  0.9999999666100363  1.0000
  Br  Br1       1.0  0.2585584735471  0.2585582961518798  0.7414416242995778  1.0000
  Br  Br2       1.0  0.7414415813881047  0.7414416443631054  0.2585584047583862  1.0000
  Br  Br3       1.0  0.7414416273469788  0.25855834158144586  0.2585584086719672  1.0000
  Br  Br4       1.0  0.25855845292339547  0.7414416829306059  0.7414415867147717  1.0000
  Br  Br5       1.0  0.2585583591249866  0.7414416781556831  0.2585583727556455  1.0000
  Br  Br6       1.0  0.741441656105729  0.2585583669270792  0.7414416392669292  1.0000
