data_image0
_chemical_formula_structural       Mn2SiCl6
_chemical_formula_sum              "Mn2 Si1 Cl6"
_cell_length_a       6.702600636761038
_cell_length_b       6.702600558932936
_cell_length_c       6.7026004870423925
_cell_angle_alpha    59.99999849745491
_cell_angle_beta     59.99999633715194
_cell_angle_gamma    59.99999803437301

_space_group_name_H-M_alt    "P 1"
_space_group_IT_number       1

loop_
  _space_group_symop_operation_xyz
  'x, y, z'

loop_
  _atom_site_type_symbol
  _atom_site_label
  _atom_site_symmetry_multiplicity
  _atom_site_fract_x
  _atom_site_fract_y
  _atom_site_fract_z
  _atom_site_occupancy
  Mn  Mn1       1.0  0.24999991810855876  0.2500000315561316  0.24999999640496  1.0000
  Mn  Mn2       1.0  0.7499997986129838  0.7500000910138584  0.7499998883327486  1.0000
  Si  Si1       1.0  3.294154131490638e-08  0.9999999890363905  0.999999994978866  1.0000
  Cl  Cl1       1.0  0.2410906657812503  0.24109056562869105  0.7589094076469649  1.0000
  Cl  Cl2       1.0  0.7589093474858734  0.7589093340145752  0.2410907371809971  1.0000
  Cl  Cl3       1.0  0.7589094638982001  0.24109056618345368  0.24109056431048115  1.0000
  Cl  Cl4       1.0  0.24109062927591582  0.7589094193414179  0.7589095185105935  1.0000
  Cl  Cl5       1.0  0.24109065219410986  0.7589094143222591  0.24109050830780065  1.0000
  Cl  Cl6       1.0  0.7589094968041549  0.24109059495709947  0.7589093944798799  1.0000
