data_image0
_chemical_formula_structural       Mn2SbI6
_chemical_formula_sum              "Mn2 Sb1 I6"
_cell_length_a       7.90731305382191
_cell_length_b       7.907313068108326
_cell_length_c       7.907312992882607
_cell_angle_alpha    60.00000083355175
_cell_angle_beta     60.00000078751246
_cell_angle_gamma    60.00000050603729

_space_group_name_H-M_alt    "P 1"
_space_group_IT_number       1

loop_
  _space_group_symop_operation_xyz
  'x, y, z'

loop_
  _atom_site_type_symbol
  _atom_site_label
  _atom_site_symmetry_multiplicity
  _atom_site_fract_x
  _atom_site_fract_y
  _atom_site_fract_z
  _atom_site_occupancy
  Mn  Mn1       1.0  0.2500000329606792  0.2500000846444946  0.2499998968418751  1.0000
  Mn  Mn2       1.0  0.7500000809208116  0.7499999704891491  0.7499999626350062  1.0000
  Sb  Sb1       1.0  1.6956432682486645e-09  3.872190383654847e-08  1.140752916378461e-08  1.0000
  I   I1        1.0  0.26342687471959414  0.26342694075688267  0.7365731167541801  1.0000
  I   I2        1.0  0.7365730958480895  0.7365730229930685  0.26342694606779293  1.0000
  I   I3        1.0  0.7365730918842021  0.26342689144083153  0.2634269306110842  1.0000
  I   I4        1.0  0.26342690284542786  0.7365730304894634  0.7365731018355286  1.0000
  I   I5        1.0  0.2634268818136918  0.7365730859671181  0.26342693580480536  1.0000
  I   I6        1.0  0.7365730380410003  0.26342693354237434  0.7365730954068945  1.0000
