data_image0
_chemical_formula_structural       Mn2SbF6
_chemical_formula_sum              "Mn2 Sb1 F6"
_cell_length_a       5.877902384311195
_cell_length_b       5.877902793439418
_cell_length_c       5.8779027780615545
_cell_angle_alpha    59.99999864844135
_cell_angle_beta     60.00000083226299
_cell_angle_gamma    59.999998133772515

_space_group_name_H-M_alt    "P 1"
_space_group_IT_number       1

loop_
  _space_group_symop_operation_xyz
  'x, y, z'

loop_
  _atom_site_type_symbol
  _atom_site_label
  _atom_site_symmetry_multiplicity
  _atom_site_fract_x
  _atom_site_fract_y
  _atom_site_fract_z
  _atom_site_occupancy
  Mn  Mn1       1.0  0.2499999570883272  0.2499999638451289  0.2500002179728402  1.0000
  Mn  Mn2       1.0  0.7500000898564313  0.7499999665465248  0.7500001787688262  1.0000
  Sb  Sb1       1.0  0.9999999841445687  4.1672854715266734e-08  0.9999999377539625  1.0000
  F   F1        1.0  0.2554183200121392  0.2554182395303613  0.744581665822816  1.0000
  F   F2        1.0  0.7445818022977284  0.7445816533557359  0.25541823562869626  1.0000
  F   F3        1.0  0.7445817084204556  0.25541846594833606  0.2554181193021707  1.0000
  F   F4        1.0  0.25541825779670235  0.7445817832406587  0.744581649719786  1.0000
  F   F5        1.0  0.2554181314998471  0.7445817280895318  0.25541834006711545  1.0000
  F   F6        1.0  0.7445818292666685  0.25541815437835863  0.7445815759111158  1.0000
