data_image0
_chemical_formula_structural       Mn2TlI6
_chemical_formula_sum              "Mn2 Tl1 I6"
_cell_length_a       7.74999418878217
_cell_length_b       7.749994124790312
_cell_length_c       7.749994076619163
_cell_angle_alpha    60.00000002897898
_cell_angle_beta     59.999999834995364
_cell_angle_gamma    59.99999849625195

_space_group_name_H-M_alt    "P 1"
_space_group_IT_number       1

loop_
  _space_group_symop_operation_xyz
  'x, y, z'

loop_
  _atom_site_type_symbol
  _atom_site_label
  _atom_site_symmetry_multiplicity
  _atom_site_fract_x
  _atom_site_fract_y
  _atom_site_fract_z
  _atom_site_occupancy
  Mn  Mn1       1.0  0.24999995961783542  0.24999998414630273  0.2500000113021446  1.0000
  Mn  Mn2       1.0  0.7500000562464254  0.7499999476979539  0.7499999720965984  1.0000
  Tl  Tl1       1.0  1.980557776154735e-08  3.1606340159379474e-09  0.9999999420652456  1.0000
  I   I1        1.0  0.26614542597342  0.2661454730565247  0.7338545699163166  1.0000
  I   I2        1.0  0.733854549962024  0.733854547285494  0.26614544726251416  1.0000
  I   I3        1.0  0.7338545532767868  0.2661454815792008  0.26614545712012266  1.0000
  I   I4        1.0  0.26614539264813686  0.7338546019755052  0.7338545666834488  1.0000
  I   I5        1.0  0.266145435045358  0.733854546463175  0.2661454777030557  1.0000
  I   I6        1.0  0.733854609021824  0.2661454169874246  0.7338545519201453  1.0000
