data_image0
_chemical_formula_structural       Mn2TlCl6
_chemical_formula_sum              "Mn2 Tl1 Cl6"
_cell_length_a       6.799055281615599
_cell_length_b       6.799055275044165
_cell_length_c       6.799054879401103
_cell_angle_alpha    60.00000243659274
_cell_angle_beta     60.000000658810016
_cell_angle_gamma    60.000002427552545

_space_group_name_H-M_alt    "P 1"
_space_group_IT_number       1

loop_
  _space_group_symop_operation_xyz
  'x, y, z'

loop_
  _atom_site_type_symbol
  _atom_site_label
  _atom_site_symmetry_multiplicity
  _atom_site_fract_x
  _atom_site_fract_y
  _atom_site_fract_z
  _atom_site_occupancy
  Mn  Mn1       1.0  0.25000009387318883  0.2499999203797919  0.25000010909507026  1.0000
  Mn  Mn2       1.0  0.7500002478060885  0.7499998421999244  0.7500000153863152  1.0000
  Tl  Tl1       1.0  0.9999999831197713  0.9999999945959628  0.9999999934926211  1.0000
  Cl  Cl1       1.0  0.2646531766086631  0.2646533103919895  0.7353467491316033  1.0000
  Cl  Cl2       1.0  0.7353467193322806  0.7353467602178175  0.264653269179583  1.0000
  Cl  Cl3       1.0  0.7353466811307692  0.2646533246324513  0.26465318496958246  1.0000
  Cl  Cl4       1.0  0.26465319772390655  0.7353467513813913  0.7353467156361366  1.0000
  Cl  Cl5       1.0  0.26465323841143257  0.7353467751639463  0.26465322868347546  1.0000
  Cl  Cl6       1.0  0.7353466633102808  0.26465331886335325  0.735346735317178  1.0000
