data_image0
_chemical_formula_structural       Mn2TaF6
_chemical_formula_sum              "Mn2 Ta1 F6"
_cell_length_a       5.650534941573718
_cell_length_b       5.650534656104503
_cell_length_c       5.650535499678694
_cell_angle_alpha    59.99999333169948
_cell_angle_beta     59.99999207709213
_cell_angle_gamma    59.99999551497427

_space_group_name_H-M_alt    "P 1"
_space_group_IT_number       1

loop_
  _space_group_symop_operation_xyz
  'x, y, z'

loop_
  _atom_site_type_symbol
  _atom_site_label
  _atom_site_symmetry_multiplicity
  _atom_site_fract_x
  _atom_site_fract_y
  _atom_site_fract_z
  _atom_site_occupancy
  Mn  Mn1       1.0  0.24999995609637438  0.2500000477480848  0.2500000143576817  1.0000
  Mn  Mn2       1.0  0.7499999836580209  0.74999998718533  0.7500000669575442  1.0000
  Ta  Ta1       1.0  0.9999999465390185  0.9999999458128724  7.860046996383026e-08  1.0000
  F   F1        1.0  0.24741686039973926  0.24741678380739537  0.7525831642437882  1.0000
  F   F2        1.0  0.7525831910898159  0.7525831427517673  0.2474167968181486  1.0000
  F   F3        1.0  0.7525831334296307  0.24741683342310677  0.24741692818148356  1.0000
  F   F4        1.0  0.2474169227455038  0.7525830974710258  0.7525831150876231  1.0000
  F   F5        1.0  0.24741683820873192  0.7525832198690898  0.2474168052519278  1.0000
  F   F6        1.0  0.7525831417750888  0.2474168844238484  0.7525830549129067  1.0000
