data_image0
_chemical_formula_structural       Mn2TiBr6
_chemical_formula_sum              "Mn2 Ti1 Br6"
_cell_length_a       7.08068436934298
_cell_length_b       7.080684503010832
_cell_length_c       7.080684397252775
_cell_angle_alpha    60.0000005489309
_cell_angle_beta     60.000000655485486
_cell_angle_gamma    60.000000247274

_space_group_name_H-M_alt    "P 1"
_space_group_IT_number       1

loop_
  _space_group_symop_operation_xyz
  'x, y, z'

loop_
  _atom_site_type_symbol
  _atom_site_label
  _atom_site_symmetry_multiplicity
  _atom_site_fract_x
  _atom_site_fract_y
  _atom_site_fract_z
  _atom_site_occupancy
  Mn  Mn1       1.0  0.25000009700054726  0.24999991961516219  0.24999987625427272  1.0000
  Mn  Mn2       1.0  0.7499999759763876  0.7500000874881828  0.7499999933871166  1.0000
  Ti  Ti1       1.0  2.1462903619224588e-08  4.3242459810833e-08  0.9999999775333684  1.0000
  Br  Br1       1.0  0.25083239227237514  0.25083241535703343  0.7491676362989199  1.0000
  Br  Br2       1.0  0.7491675729914389  0.7491675675305343  0.2508324179395179  1.0000
  Br  Br3       1.0  0.749167635336644  0.2508323736243007  0.2508323789405943  1.0000
  Br  Br4       1.0  0.2508323446041479  0.749167609263267  0.749167646774962  1.0000
  Br  Br5       1.0  0.25083235436823703  0.7491676121629849  0.25083239740228147  1.0000
  Br  Br6       1.0  0.7491676082105926  0.2508323689948845  0.7491676774033048  1.0000
