data_image0
_chemical_formula_structural       Mn2TaF6
_chemical_formula_sum              "Mn2 Ta1 F6"
_cell_length_a       5.650583044196215
_cell_length_b       5.650582902070817
_cell_length_c       5.650583092679613
_cell_angle_alpha    59.99999956627514
_cell_angle_beta     59.999999897664
_cell_angle_gamma    60.00000044579385

_space_group_name_H-M_alt    "P 1"
_space_group_IT_number       1

loop_
  _space_group_symop_operation_xyz
  'x, y, z'

loop_
  _atom_site_type_symbol
  _atom_site_label
  _atom_site_symmetry_multiplicity
  _atom_site_fract_x
  _atom_site_fract_y
  _atom_site_fract_z
  _atom_site_occupancy
  Mn  Mn1       1.0  0.2500000327067475  0.24999998699724538  0.25000001720369686  1.0000
  Mn  Mn2       1.0  0.7500000037683155  0.749999943652003  0.7500000384374947  1.0000
  Ta  Ta1       1.0  0.9999999692447054  0.9999999696554694  7.543437203972641e-09  1.0000
  F   F1        1.0  0.24741588961602115  0.24741591966895976  0.7525840911889722  1.0000
  F   F2        1.0  0.7525839645725149  0.7525841041813427  0.2474159753701078  1.0000
  F   F3        1.0  0.7525841267322708  0.24741591982896902  0.24741586349958122  1.0000
  F   F4        1.0  0.24741602318750178  0.7525840628394749  0.7525840757848098  1.0000
  F   F5        1.0  0.24741586424084452  0.7525841568155024  0.24741587462393225  1.0000
  F   F6        1.0  0.752584079220929  0.24741593639372658  0.7525840577574714  1.0000
