data_image0
_chemical_formula_structural       Mn2TaCl6
_chemical_formula_sum              "Mn2 Ta1 Cl6"
_cell_length_a       6.898486678605662
_cell_length_b       6.898486457183091
_cell_length_c       6.898486471186431
_cell_angle_alpha    59.99999634588525
_cell_angle_beta     59.99999662806807
_cell_angle_gamma    59.9999997413863

_space_group_name_H-M_alt    "P 1"
_space_group_IT_number       1

loop_
  _space_group_symop_operation_xyz
  'x, y, z'

loop_
  _atom_site_type_symbol
  _atom_site_label
  _atom_site_symmetry_multiplicity
  _atom_site_fract_x
  _atom_site_fract_y
  _atom_site_fract_z
  _atom_site_occupancy
  Mn  Mn1       1.0  0.24999939091672124  0.2500003136755894  0.25000063632437586  1.0000
  Mn  Mn2       1.0  0.749999956545664  0.7499999734436416  0.7499997541069411  1.0000
  Ta  Ta1       1.0  5.1280017202035644e-08  3.195687827153535e-08  0.999999972877483  1.0000
  Cl  Cl1       1.0  0.24819755015875886  0.24819755196577134  0.7518023932583089  1.0000
  Cl  Cl2       1.0  0.751802680694251  0.7518024049324271  0.24819755678414515  1.0000
  Cl  Cl3       1.0  0.7518026132326326  0.24819736197294745  0.24819758066011818  1.0000
  Cl  Cl4       1.0  0.24819764142851697  0.7518024582208366  0.7518022895687027  1.0000
  Cl  Cl5       1.0  0.24819756836897722  0.751802276872608  0.2481975108978552  1.0000
  Cl  Cl6       1.0  0.7518025709650197  0.24819759303187242  0.7518022935668497  1.0000
