data_image0
_chemical_formula_structural       Mn2TeCl6
_chemical_formula_sum              "Mn2 Te1 Cl6"
_cell_length_a       6.930798247524911
_cell_length_b       6.930798003011653
_cell_length_c       6.930798117466014
_cell_angle_alpha    60.00000126240713
_cell_angle_beta     60.00000307998746
_cell_angle_gamma    60.00000038592719

_space_group_name_H-M_alt    "P 1"
_space_group_IT_number       1

loop_
  _space_group_symop_operation_xyz
  'x, y, z'

loop_
  _atom_site_type_symbol
  _atom_site_label
  _atom_site_symmetry_multiplicity
  _atom_site_fract_x
  _atom_site_fract_y
  _atom_site_fract_z
  _atom_site_occupancy
  Mn  Mn1       1.0  0.25000004327151815  0.25000001646763875  0.25000009380374316  1.0000
  Mn  Mn2       1.0  0.7500000463969938  0.7499999098016079  0.7500000524115356  1.0000
  Te  Te1       1.0  5.451421454554043e-09  6.361578525836591e-08  4.482233767766238e-08  1.0000
  Cl  Cl1       1.0  0.25643075309347196  0.2564308286084865  0.7435691586295029  1.0000
  Cl  Cl2       1.0  0.7435691227498896  0.7435690693870763  0.25643089220989757  1.0000
  Cl  Cl3       1.0  0.7435692409094121  0.2564308461162116  0.2564307385155366  1.0000
  Cl  Cl4       1.0  0.25643087344654497  0.7435690960569777  0.7435691002798294  1.0000
  Cl  Cl5       1.0  0.2564307928835834  0.7435691665812751  0.25643087348547755  1.0000
  Cl  Cl6       1.0  0.7435691244547814  0.25643100178137135  0.7435690473939192  1.0000
