data_image0
_chemical_formula_structural       Mn2TaBr6
_chemical_formula_sum              "Mn2 Ta1 Br6"
_cell_length_a       7.269286432284984
_cell_length_b       7.269286454175127
_cell_length_c       7.269286481101474
_cell_angle_alpha    60.00000009064872
_cell_angle_beta     60.00000031939434
_cell_angle_gamma    59.99999998447514

_space_group_name_H-M_alt    "P 1"
_space_group_IT_number       1

loop_
  _space_group_symop_operation_xyz
  'x, y, z'

loop_
  _atom_site_type_symbol
  _atom_site_label
  _atom_site_symmetry_multiplicity
  _atom_site_fract_x
  _atom_site_fract_y
  _atom_site_fract_z
  _atom_site_occupancy
  Mn  Mn1       1.0  0.24999998543639954  0.25000001918508874  0.24999993851080518  1.0000
  Mn  Mn2       1.0  0.7499999751780648  0.750000067664194  0.7500001298240678  1.0000
  Ta  Ta1       1.0  0.9999999815330944  0.9999999410312542  4.146912716627691e-08  1.0000
  Br  Br1       1.0  0.2482440212921549  0.248243962136177  0.7517560081745912  1.0000
  Br  Br2       1.0  0.7517560128101785  0.7517560472113255  0.2482439273534559  1.0000
  Br  Br3       1.0  0.7517560290129935  0.24824396953158828  0.24824396791946213  1.0000
  Br  Br4       1.0  0.24824395071264396  0.7517560313918079  0.7517560375272093  1.0000
  Br  Br5       1.0  0.2482440038959809  0.751756044683918  0.24824391551493616  1.0000
  Br  Br6       1.0  0.7517560341541344  0.24824392422787325  0.7517560478866315  1.0000
