data_image0
_chemical_formula_structural       Mn2TlF6
_chemical_formula_sum              "Mn2 Tl1 F6"
_cell_length_a       5.777901903826665
_cell_length_b       5.777901694116039
_cell_length_c       5.777902030822173
_cell_angle_alpha    59.999998798230514
_cell_angle_beta     59.99999871339532
_cell_angle_gamma    60.00000123571223

_space_group_name_H-M_alt    "P 1"
_space_group_IT_number       1

loop_
  _space_group_symop_operation_xyz
  'x, y, z'

loop_
  _atom_site_type_symbol
  _atom_site_label
  _atom_site_symmetry_multiplicity
  _atom_site_fract_x
  _atom_site_fract_y
  _atom_site_fract_z
  _atom_site_occupancy
  Mn  Mn1       1.0  0.2499998274896405  0.2499999306842362  0.2500001272139023  1.0000
  Mn  Mn2       1.0  0.749999960866815  0.7500001015296958  0.7500000119345145  1.0000
  Tl  Tl1       1.0  1.0920611301399574e-08  2.1197053402621208e-08  0.9999999995177559  1.0000
  F   F1        1.0  0.2602252459299382  0.2602251507227348  0.7397747845513333  1.0000
  F   F2        1.0  0.7397747715864292  0.7397748115409286  0.2602252040322477  1.0000
  F   F3        1.0  0.7397748354528686  0.2602251796137071  0.2602251774460686  1.0000
  F   F4        1.0  0.26022518672542383  0.7397748526002315  0.739774813638249  1.0000
  F   F5        1.0  0.26022521248057806  0.7397748434004474  0.26022515304398974  1.0000
  F   F6        1.0  0.7397749387121074  0.26022509554646167  0.7397747630524887  1.0000
