data_image0
_chemical_formula_structural       Mn2TaI6
_chemical_formula_sum              "Mn2 Ta1 I6"
_cell_length_a       7.85617135257278
_cell_length_b       7.8561713613062185
_cell_length_c       7.856171494619664
_cell_angle_alpha    59.99999981445955
_cell_angle_beta     60.00000018518816
_cell_angle_gamma    59.9999999597093

_space_group_name_H-M_alt    "P 1"
_space_group_IT_number       1

loop_
  _space_group_symop_operation_xyz
  'x, y, z'

loop_
  _atom_site_type_symbol
  _atom_site_label
  _atom_site_symmetry_multiplicity
  _atom_site_fract_x
  _atom_site_fract_y
  _atom_site_fract_z
  _atom_site_occupancy
  Mn  Mn1       1.0  0.25000001669333427  0.2499999631791572  0.24999997695538279  1.0000
  Mn  Mn2       1.0  0.7499999730848282  0.7499999706033377  0.7500000497548428  1.0000
  Ta  Ta1       1.0  0.9999999946557477  0.9999999719387387  1.033833349364433e-08  1.0000
  I   I1        1.0  0.2491693740380089  0.24916936140768972  0.7508306593295083  1.0000
  I   I2        1.0  0.7508306372063214  0.7508306799429735  0.24916936014335836  1.0000
  I   I3        1.0  0.7508306231434995  0.24916938292532878  0.2491693798525443  1.0000
  I   I4        1.0  0.24916939867220672  0.7508306178924014  0.7508305960484075  1.0000
  I   I5        1.0  0.24916937537679415  0.7508306406245026  0.2491693669769226  1.0000
  I   I6        1.0  0.7508306058627124  0.24916940696199635  0.7508305994633214  1.0000
