data_image0
_chemical_formula_structural       Mn2TiI6
_chemical_formula_sum              "Mn2 Ti1 I6"
_cell_length_a       7.7407977040617695
_cell_length_b       7.740797659693214
_cell_length_c       7.740797680301462
_cell_angle_alpha    60.00000062073687
_cell_angle_beta     60.00000109854563
_cell_angle_gamma    59.999999290424796

_space_group_name_H-M_alt    "P 1"
_space_group_IT_number       1

loop_
  _space_group_symop_operation_xyz
  'x, y, z'

loop_
  _atom_site_type_symbol
  _atom_site_label
  _atom_site_symmetry_multiplicity
  _atom_site_fract_x
  _atom_site_fract_y
  _atom_site_fract_z
  _atom_site_occupancy
  Mn  Mn1       1.0  0.2500000567689322  0.2499999868289131  0.24999993748140212  1.0000
  Mn  Mn2       1.0  0.7499998827847423  0.7499999146030983  0.750000097997852  1.0000
  Ti  Ti1       1.0  1.1075363178419493e-08  0.9999999667739121  2.9161353619231445e-08  1.0000
  I   I1        1.0  0.25003476042133477  0.2500347450323968  0.7499652310797084  1.0000
  I   I2        1.0  0.7499652715405715  0.7499652908861594  0.2500347219567155  1.0000
  I   I3        1.0  0.7499652913818444  0.2500347535068354  0.2500347083282996  1.0000
  I   I4        1.0  0.25003471818892553  0.7499653093090304  0.7499652889618723  1.0000
  I   I5        1.0  0.2500347172073971  0.7499653150864294  0.250034663154427  1.0000
  I   I6        1.0  0.7499652879037758  0.25003472083212724  0.7499653226852109  1.0000
