data_image0
_chemical_formula_structural       Mn2TaBr6
_chemical_formula_sum              "Mn2 Ta1 Br6"
_cell_length_a       7.26937048200858
_cell_length_b       7.2693706460384515
_cell_length_c       7.269370489536393
_cell_angle_alpha    59.99999930212884
_cell_angle_beta     59.99999939469334
_cell_angle_gamma    59.99999858344307

_space_group_name_H-M_alt    "P 1"
_space_group_IT_number       1

loop_
  _space_group_symop_operation_xyz
  'x, y, z'

loop_
  _atom_site_type_symbol
  _atom_site_label
  _atom_site_symmetry_multiplicity
  _atom_site_fract_x
  _atom_site_fract_y
  _atom_site_fract_z
  _atom_site_occupancy
  Mn  Mn1       1.0  0.24999991133636548  0.2500000473202757  0.25000000251637056  1.0000
  Mn  Mn2       1.0  0.7499999851791795  0.7499999650566357  0.7499997764516405  1.0000
  Ta  Ta1       1.0  2.3248563418982248e-08  3.0326431521238206e-08  2.54866296318668e-08  1.0000
  Br  Br1       1.0  0.24824102917887994  0.2482410669077401  0.7517589634357552  1.0000
  Br  Br2       1.0  0.751758924344557  0.7517589269363454  0.2482411622136158  1.0000
  Br  Br3       1.0  0.7517590322306894  0.2482409902938233  0.24824103863534264  1.0000
  Br  Br4       1.0  0.24824110812106567  0.7517589243645754  0.7517589657866011  1.0000
  Br  Br5       1.0  0.24824098337015874  0.7517589785010429  0.24824108365260414  1.0000
  Br  Br6       1.0  0.751759006750837  0.2482410675718987  0.7517589755733997  1.0000
