data_image0
_chemical_formula_structural       Mn2TaI6
_chemical_formula_sum              "Mn2 Ta1 I6"
_cell_length_a       7.8562974462470025
_cell_length_b       7.856297312558112
_cell_length_c       7.856297573371579
_cell_angle_alpha    59.99999959721095
_cell_angle_beta     59.999997935119495
_cell_angle_gamma    60.00000140772356

_space_group_name_H-M_alt    "P 1"
_space_group_IT_number       1

loop_
  _space_group_symop_operation_xyz
  'x, y, z'

loop_
  _atom_site_type_symbol
  _atom_site_label
  _atom_site_symmetry_multiplicity
  _atom_site_fract_x
  _atom_site_fract_y
  _atom_site_fract_z
  _atom_site_occupancy
  Mn  Mn1       1.0  0.24999993575837964  0.2500000473689826  0.24999997546042096  1.0000
  Mn  Mn2       1.0  0.7500000021493017  0.7499999940082277  0.7499999666367491  1.0000
  Ta  Ta1       1.0  0.9999999788449119  0.9999999532319813  7.34203439252663e-08  1.0000
  I   I1        1.0  0.24916660144067404  0.2491666169070989  0.7508333837346073  1.0000
  I   I2        1.0  0.7508334316305895  0.7508334696791994  0.24916655181943712  1.0000
  I   I3        1.0  0.7508334082793473  0.2491665996869393  0.2491666024405839  1.0000
  I   I4        1.0  0.24916662365079476  0.7508333668614443  0.7508333835200643  1.0000
  I   I5        1.0  0.24916667381300991  0.7508333101212106  0.24916666871547677  1.0000
  I   I6        1.0  0.7508333451566079  0.2491666423967678  0.7508333943838467  1.0000
