data_image0
_chemical_formula_structural       Mn2TeBr6
_chemical_formula_sum              "Mn2 Te1 Br6"
_cell_length_a       7.293592233224705
_cell_length_b       7.293592260624632
_cell_length_c       7.2935922675506974
_cell_angle_alpha    59.99999874817316
_cell_angle_beta     59.99999962251065
_cell_angle_gamma    59.99999979007579

_space_group_name_H-M_alt    "P 1"
_space_group_IT_number       1

loop_
  _space_group_symop_operation_xyz
  'x, y, z'

loop_
  _atom_site_type_symbol
  _atom_site_label
  _atom_site_symmetry_multiplicity
  _atom_site_fract_x
  _atom_site_fract_y
  _atom_site_fract_z
  _atom_site_occupancy
  Mn  Mn1       1.0  0.24999991601908791  0.25000007049989037  0.25000009261731587  1.0000
  Mn  Mn2       1.0  0.7499999926202664  0.7500000335037658  0.7500001019774846  1.0000
  Te  Te1       1.0  0.9999998782714088  1.847127336789304e-08  1.735199651055718e-08  1.0000
  Br  Br1       1.0  0.2616909035034054  0.2616909545342014  0.7383089903139045  1.0000
  Br  Br2       1.0  0.7383091860510416  0.7383090436794387  0.26169085959946325  1.0000
  Br  Br3       1.0  0.7383091418063015  0.2616908977526276  0.2616908726612149  1.0000
  Br  Br4       1.0  0.2616909248813728  0.7383090265759182  0.7383090503072841  1.0000
  Br  Br5       1.0  0.2616909541047033  0.7383091083347161  0.2616909179508691  1.0000
  Br  Br6       1.0  0.7383090943998044  0.26169085629478855  0.7383090995308537  1.0000
