data_image0
_chemical_formula_structural       Mn2VF6
_chemical_formula_sum              "Mn2 V1 F6"
_cell_length_a       5.559143414331489
_cell_length_b       5.559143609596351
_cell_length_c       5.559143126929444
_cell_angle_alpha    60.000003292638645
_cell_angle_beta     60.00000076292349
_cell_angle_gamma    59.99999862806833

_space_group_name_H-M_alt    "P 1"
_space_group_IT_number       1

loop_
  _space_group_symop_operation_xyz
  'x, y, z'

loop_
  _atom_site_type_symbol
  _atom_site_label
  _atom_site_symmetry_multiplicity
  _atom_site_fract_x
  _atom_site_fract_y
  _atom_site_fract_z
  _atom_site_occupancy
  Mn  Mn1       1.0  0.24999983346006224  0.25000011086255675  0.2500002366843249  1.0000
  Mn  Mn2       1.0  0.7500001464113264  0.7500000395729655  0.7499997546477346  1.0000
  V   V1        1.0  0.9999999815579215  0.9999999867812936  0.9999999888478169  1.0000
  F   F1        1.0  0.24530211209746688  0.24530213831218245  0.7546977502511626  1.0000
  F   F2        1.0  0.7546979725156043  0.7546977477491948  0.24530218238657153  1.0000
  F   F3        1.0  0.7546978627895147  0.2453020772148923  0.24530209179004087  1.0000
  F   F4        1.0  0.24530205848338962  0.7546979872990361  0.7546978746647856  1.0000
  F   F5        1.0  0.2453020910132364  0.7546978045947408  0.2453021444376513  1.0000
  F   F6        1.0  0.7546979400771004  0.24530209248222906  0.7546979515618857  1.0000
