data_image0
_chemical_formula_structural       Mn2VI6
_chemical_formula_sum              "Mn2 V1 I6"
_cell_length_a       7.610108864312879
_cell_length_b       7.61010884412413
_cell_length_c       7.610108807624444
_cell_angle_alpha    59.9999999376869
_cell_angle_beta     60.000000854146926
_cell_angle_gamma    60.00000061560809

_space_group_name_H-M_alt    "P 1"
_space_group_IT_number       1

loop_
  _space_group_symop_operation_xyz
  'x, y, z'

loop_
  _atom_site_type_symbol
  _atom_site_label
  _atom_site_symmetry_multiplicity
  _atom_site_fract_x
  _atom_site_fract_y
  _atom_site_fract_z
  _atom_site_occupancy
  Mn  Mn1       1.0  0.2499999117236692  0.2500000598482089  0.25000001050173276  1.0000
  Mn  Mn2       1.0  0.7499999503261005  0.7500000894201447  0.7499999624196854  1.0000
  V   V1        1.0  1.0161066387022157e-08  2.4140486612195292e-08  0.9999999973036817  1.0000
  I   I1        1.0  0.24990313439529424  0.24990306901847997  0.7500968993357269  1.0000
  I   I2        1.0  0.7500968811226335  0.7500968565480317  0.24990314549570072  1.0000
  I   I3        1.0  0.7500969075853873  0.24990312321859762  0.24990306710379404  1.0000
  I   I4        1.0  0.2499031944962908  0.7500968248790358  0.75009686930449  1.0000
  I   I5        1.0  0.24990310126294243  0.7500968723429307  0.24990315958629983  1.0000
  I   I6        1.0  0.7500969070969848  0.2499030838015309  0.750096885361528  1.0000
