data_image0
_chemical_formula_structural       Mn2VBr6
_chemical_formula_sum              "Mn2 V1 Br6"
_cell_length_a       6.954641157103944
_cell_length_b       6.95464114371767
_cell_length_c       6.9546410646641625
_cell_angle_alpha    60.0000003055753
_cell_angle_beta     60.000000296255294
_cell_angle_gamma    59.999999947285914

_space_group_name_H-M_alt    "P 1"
_space_group_IT_number       1

loop_
  _space_group_symop_operation_xyz
  'x, y, z'

loop_
  _atom_site_type_symbol
  _atom_site_label
  _atom_site_symmetry_multiplicity
  _atom_site_fract_x
  _atom_site_fract_y
  _atom_site_fract_z
  _atom_site_occupancy
  Mn  Mn1       1.0  0.2499999050167553  0.25000004296533235  0.25000011873230416  1.0000
  Mn  Mn2       1.0  0.7500000926015082  0.750000007383765  0.750000390658833  1.0000
  V   V1        1.0  0.9999999851058975  8.45302475302523e-08  0.9999999579924838  1.0000
  Br  Br1       1.0  0.2528894261793849  0.25288959663322164  0.7471104716975033  1.0000
  Br  Br2       1.0  0.7471105172695373  0.7471103920792374  0.2528893665870383  1.0000
  Br  Br3       1.0  0.7471104704534032  0.252889563748161  0.2528894238849386  1.0000
  Br  Br4       1.0  0.25288944914659106  0.747110456663141  0.747110440670309  1.0000
  Br  Br5       1.0  0.2528896208327213  0.7471104567899371  0.25288941682591065  1.0000
  Br  Br6       1.0  0.7471105331617576  0.2528894033661033  0.7471104063460589  1.0000
