data_image0
_chemical_formula_structural       Mn2VCl6
_chemical_formula_sum              "Mn2 V1 Cl6"
_cell_length_a       6.564872925196783
_cell_length_b       6.564872902748261
_cell_length_c       6.564872930969463
_cell_angle_alpha    59.99999967832152
_cell_angle_beta     59.99999965805238
_cell_angle_gamma    60.000000095389005

_space_group_name_H-M_alt    "P 1"
_space_group_IT_number       1

loop_
  _space_group_symop_operation_xyz
  'x, y, z'

loop_
  _atom_site_type_symbol
  _atom_site_label
  _atom_site_symmetry_multiplicity
  _atom_site_fract_x
  _atom_site_fract_y
  _atom_site_fract_z
  _atom_site_occupancy
  Mn  Mn1       1.0  0.24999998312668767  0.2500000124086905  0.2500000096061931  1.0000
  Mn  Mn2       1.0  0.7499999982393076  0.7499999961827987  0.7499999837826079  1.0000
  V   V1        1.0  4.24637878909129e-09  0.9999999925375868  0.9999999894219475  1.0000
  Cl  Cl1       1.0  0.25237823477370086  0.2523782346105281  0.7476217718374523  1.0000
  Cl  Cl2       1.0  0.7476217700799619  0.7476217721153576  0.2523782427287499  1.0000
  Cl  Cl3       1.0  0.7476217472462967  0.25237824622561117  0.25237825918537693  1.0000
  Cl  Cl4       1.0  0.25237823866785825  0.7476217698282912  0.7476217525702771  1.0000
  Cl  Cl5       1.0  0.25237825014502685  0.7476217348039497  0.2523782517600063  1.0000
  Cl  Cl6       1.0  0.7476217716941511  0.25237824207228293  0.747621740296349  1.0000
