data_image0
_chemical_formula_structural       Mn2WBr6
_chemical_formula_sum              "Mn2 W1 Br6"
_cell_length_a       7.208497674253872
_cell_length_b       7.208497636083452
_cell_length_c       7.208497781950781
_cell_angle_alpha    59.999998215693935
_cell_angle_beta     59.999999091971624
_cell_angle_gamma    60.00000052387399

_space_group_name_H-M_alt    "P 1"
_space_group_IT_number       1

loop_
  _space_group_symop_operation_xyz
  'x, y, z'

loop_
  _atom_site_type_symbol
  _atom_site_label
  _atom_site_symmetry_multiplicity
  _atom_site_fract_x
  _atom_site_fract_y
  _atom_site_fract_z
  _atom_site_occupancy
  Mn  Mn1       1.0  0.24999991385210107  0.2500000112972666  0.2500000468869267  1.0000
  Mn  Mn2       1.0  0.7499998183317523  0.7500000678723926  0.7499996593965211  1.0000
  W   W1        1.0  0.9999999536432237  0.9999999949029106  7.705524184738048e-08  1.0000
  Br  Br1       1.0  0.24931215190467168  0.24931226416101168  0.7506877735563718  1.0000
  Br  Br2       1.0  0.7506878257829502  0.7506879050572005  0.24931227684674975  1.0000
  Br  Br3       1.0  0.7506877937919958  0.24931214551846304  0.24931231444623764  1.0000
  Br  Br4       1.0  0.24931248741359824  0.7506876753987443  0.7506876598535398  1.0000
  Br  Br5       1.0  0.2493122198344359  0.7506877251264156  0.24931236584173658  1.0000
  Br  Br6       1.0  0.7506878393094198  0.24931220452866276  0.7506878232666554  1.0000
