data_image0
_chemical_formula_structural       Mn2WI6
_chemical_formula_sum              "Mn2 W1 I6"
_cell_length_a       7.791036411171843
_cell_length_b       7.7910364371486285
_cell_length_c       7.7910364351076185
_cell_angle_alpha    59.99999927810642
_cell_angle_beta     60.00000012202537
_cell_angle_gamma    59.99999969874847

_space_group_name_H-M_alt    "P 1"
_space_group_IT_number       1

loop_
  _space_group_symop_operation_xyz
  'x, y, z'

loop_
  _atom_site_type_symbol
  _atom_site_label
  _atom_site_symmetry_multiplicity
  _atom_site_fract_x
  _atom_site_fract_y
  _atom_site_fract_z
  _atom_site_occupancy
  Mn  Mn1       1.0  0.25000005431090955  0.249999974875303  0.25000000915013165  1.0000
  Mn  Mn2       1.0  0.7499999517415077  0.7499999890775922  0.7499999467970099  1.0000
  W   W1        1.0  0.999999997320959  0.9999999591282024  0.9999999601661581  1.0000
  I   I1        1.0  0.24867814208110203  0.2486781449181328  0.7513218497580286  1.0000
  I   I2        1.0  0.751321874808232  0.751321924358242  0.24867811485228075  1.0000
  I   I3        1.0  0.7513218362729563  0.24867814397797705  0.24867817583877344  1.0000
  I   I4        1.0  0.24867815780199976  0.7513218781386299  0.7513218828008176  1.0000
  I   I5        1.0  0.24867812168129302  0.7513218497143854  0.2486781676569195  1.0000
  I   I6        1.0  0.7513218672744427  0.24867812995843136  0.7513218980783355  1.0000
