data_image0
_chemical_formula_structural       Mn2WCl6
_chemical_formula_sum              "Mn2 W1 Cl6"
_cell_length_a       6.706269971448472
_cell_length_b       6.706270190051814
_cell_length_c       6.706270259937065
_cell_angle_alpha    60.00000492111428
_cell_angle_beta     60.00000023824578
_cell_angle_gamma    60.000004101887185

_space_group_name_H-M_alt    "P 1"
_space_group_IT_number       1

loop_
  _space_group_symop_operation_xyz
  'x, y, z'

loop_
  _atom_site_type_symbol
  _atom_site_label
  _atom_site_symmetry_multiplicity
  _atom_site_fract_x
  _atom_site_fract_y
  _atom_site_fract_z
  _atom_site_occupancy
  Mn  Mn1       1.0  0.24999972599204856  0.24999999186689087  0.2500003718698  1.0000
  Mn  Mn2       1.0  0.7500007554608082  0.7499999902108199  0.7499999944930998  1.0000
  W   W1        1.0  0.99999997097375  0.9999999269492631  0.999999884030607  1.0000
  Cl  Cl1       1.0  0.25276999152542207  0.2527704126681607  0.747229723168133  1.0000
  Cl  Cl2       1.0  0.7472299417791826  0.7472295712357653  0.2527700500023846  1.0000
  Cl  Cl3       1.0  0.7472296435392659  0.2527704090698617  0.25277027293817445  1.0000
  Cl  Cl4       1.0  0.2527701123280458  0.7472297300668672  0.7472296753601918  1.0000
  Cl  Cl5       1.0  0.25277013339147525  0.747229920980094  0.25277016623545173  1.0000
  Cl  Cl6       1.0  0.7472297280143751  0.25277004100862327  0.7472298506727652  1.0000
