data_image0
_chemical_formula_structural       Mn2YBr6
_chemical_formula_sum              "Mn2 Y1 Br6"
_cell_length_a       7.275688491997298
_cell_length_b       7.2756882618002
_cell_length_c       7.275688390707501
_cell_angle_alpha    60.00000046651224
_cell_angle_beta     60.00000019336004
_cell_angle_gamma    59.99999971120357

_space_group_name_H-M_alt    "P 1"
_space_group_IT_number       1

loop_
  _space_group_symop_operation_xyz
  'x, y, z'

loop_
  _atom_site_type_symbol
  _atom_site_label
  _atom_site_symmetry_multiplicity
  _atom_site_fract_x
  _atom_site_fract_y
  _atom_site_fract_z
  _atom_site_occupancy
  Mn  Mn1       1.0  0.2500002486834657  0.2499997692245781  0.25000003027845286  1.0000
  Mn  Mn2       1.0  0.7500000127012962  0.7500000079426916  0.7499997898797071  1.0000
  Y   Y1        1.0  4.051008607882605e-08  1.1783372389054685e-08  9.58872095644543e-09  1.0000
  Br  Br1       1.0  0.2636144476371487  0.2636144772152108  0.7363855156758939  1.0000
  Br  Br2       1.0  0.7363854504494144  0.7363855423528562  0.26361459996027625  1.0000
  Br  Br3       1.0  0.7363854955750214  0.2636144420064566  0.2636145273352529  1.0000
  Br  Br4       1.0  0.2636145204193438  0.7363855809282875  0.736385479558264  1.0000
  Br  Br5       1.0  0.2636143612731934  0.7363856051097246  0.26361453414330877  1.0000
  Br  Br6       1.0  0.7363854250749751  0.2636145592254828  0.7363855209963974  1.0000
