data_image0
_chemical_formula_structural       Mn2YF6
_chemical_formula_sum              "Mn2 Y1 F6"
_cell_length_a       5.8368611020172985
_cell_length_b       5.836861310537312
_cell_length_c       5.8368611129429535
_cell_angle_alpha    60.0000018254611
_cell_angle_beta     60.00000290302964
_cell_angle_gamma    60.00000369088097

_space_group_name_H-M_alt    "P 1"
_space_group_IT_number       1

loop_
  _space_group_symop_operation_xyz
  'x, y, z'

loop_
  _atom_site_type_symbol
  _atom_site_label
  _atom_site_symmetry_multiplicity
  _atom_site_fract_x
  _atom_site_fract_y
  _atom_site_fract_z
  _atom_site_occupancy
  Mn  Mn1       1.0  0.2500000481306141  0.24999998242291302  0.24999990488710824  1.0000
  Mn  Mn2       1.0  0.7499998849787598  0.7499997877984254  0.7499998744187777  1.0000
  Y   Y1        1.0  0.9999999863919726  0.9999999874102388  0.9999999291496632  1.0000
  F   F1        1.0  0.25830529565635774  0.25830542338290474  0.741694708818622  1.0000
  F   F2        1.0  0.7416946033762103  0.741694716138094  0.25830544254946364  1.0000
  F   F3        1.0  0.7416946916829937  0.2583053873295098  0.25830533034941483  1.0000
  F   F4        1.0  0.258305511289767  0.7416945822297183  0.7416946992054783  1.0000
  F   F5        1.0  0.2583053298737056  0.7416946677105934  0.25830541420718417  1.0000
  F   F6        1.0  0.7416946136995095  0.25830552216945124  0.7416946571593138  1.0000
