data_image0
_chemical_formula_structural       Mn2YCl6
_chemical_formula_sum              "Mn2 Y1 Cl6"
_cell_length_a       6.792366970963402
_cell_length_b       6.792367102294149
_cell_length_c       6.7923671150470595
_cell_angle_alpha    60.00000028279108
_cell_angle_beta     59.999998342136706
_cell_angle_gamma    59.99999857680564

_space_group_name_H-M_alt    "P 1"
_space_group_IT_number       1

loop_
  _space_group_symop_operation_xyz
  'x, y, z'

loop_
  _atom_site_type_symbol
  _atom_site_label
  _atom_site_symmetry_multiplicity
  _atom_site_fract_x
  _atom_site_fract_y
  _atom_site_fract_z
  _atom_site_occupancy
  Mn  Mn1       1.0  0.24999998009308338  0.24999985114574186  0.24999997317222963  1.0000
  Mn  Mn2       1.0  0.7499997135694543  0.7500000907668043  0.7500000645439237  1.0000
  Y   Y1        1.0  4.162491292620109e-08  0.9999999567251343  0.9999999964082535  1.0000
  Cl  Cl1       1.0  0.2652443987234293  0.2652444499595789  0.7347556090239105  1.0000
  Cl  Cl2       1.0  0.7347555934668225  0.7347556163681999  0.2652443924174231  1.0000
  Cl  Cl3       1.0  0.7347556296977943  0.2652444306189397  0.26524443330970127  1.0000
  Cl  Cl4       1.0  0.26524455224107335  0.7347555509622258  0.7347556275209303  1.0000
  Cl  Cl5       1.0  0.2652444720818914  0.734755652011046  0.26524438248232257  1.0000
  Cl  Cl6       1.0  0.7347556156175774  0.26524439808865613  0.7347555233732895  1.0000
