data_image0
_chemical_formula_structural       Mn2YI6
_chemical_formula_sum              "Mn2 Y1 I6"
_cell_length_a       7.963200245530814
_cell_length_b       7.963200422933194
_cell_length_c       7.963200257434194
_cell_angle_alpha    60.000000408021464
_cell_angle_beta     60.00000027431482
_cell_angle_gamma    59.999999889832175

_space_group_name_H-M_alt    "P 1"
_space_group_IT_number       1

loop_
  _space_group_symop_operation_xyz
  'x, y, z'

loop_
  _atom_site_type_symbol
  _atom_site_label
  _atom_site_symmetry_multiplicity
  _atom_site_fract_x
  _atom_site_fract_y
  _atom_site_fract_z
  _atom_site_occupancy
  Mn  Mn1       1.0  0.2500000201502837  0.2500000916113381  0.24999997826993706  1.0000
  Mn  Mn2       1.0  0.7500000386022899  0.7500000010689777  0.7499999695967229  1.0000
  Y   Y1        1.0  0.9999999866279302  0.9999999661638721  0.9999999821634733  1.0000
  I   I1        1.0  0.2627970413861152  0.26279704834682366  0.7372029542879232  1.0000
  I   I2        1.0  0.737203010953144  0.7372029243690377  0.2627970241174318  1.0000
  I   I3        1.0  0.737202922086452  0.26279703931934534  0.26279702095146645  1.0000
  I   I4        1.0  0.2627969830065371  0.7372029749226747  0.7372030241274855  1.0000
  I   I5        1.0  0.26279701916921855  0.7372029400939368  0.2627970361850872  1.0000
  I   I6        1.0  0.7372029779954303  0.2627970110898434  0.7372030107122501  1.0000
