data_image0
_chemical_formula_structural       Mn2ZrCl6
_chemical_formula_sum              "Mn2 Zr1 Cl6"
_cell_length_a       6.790081762465489
_cell_length_b       6.790081718286956
_cell_length_c       6.790081528081451
_cell_angle_alpha    60.00000058045007
_cell_angle_beta     60.000000613087785
_cell_angle_gamma    59.99999947409532

_space_group_name_H-M_alt    "P 1"
_space_group_IT_number       1

loop_
  _space_group_symop_operation_xyz
  'x, y, z'

loop_
  _atom_site_type_symbol
  _atom_site_label
  _atom_site_symmetry_multiplicity
  _atom_site_fract_x
  _atom_site_fract_y
  _atom_site_fract_z
  _atom_site_occupancy
  Mn  Mn1       1.0  0.250000228157885  0.24999994993671867  0.24999979972197656  1.0000
  Mn  Mn2       1.0  0.7500001403768988  0.7499998750623277  0.7500001077728157  1.0000
  Zr  Zr1       1.0  0.999999989177642  3.246707269227151e-08  1.7159633570737383e-08  1.0000
  Cl  Cl1       1.0  0.2576957483262928  0.25769592035455335  0.7423042143111387  1.0000
  Cl  Cl2       1.0  0.7423041447327168  0.7423041066618382  0.25769581665824204  1.0000
  Cl  Cl3       1.0  0.742304112324877  0.25769591997509156  0.2576958000199077  1.0000
  Cl  Cl4       1.0  0.25769575869448846  0.7423041629568143  0.7423041904477562  1.0000
  Cl  Cl5       1.0  0.2576957973818166  0.742304156675436  0.2576958545373525  1.0000
  Cl  Cl6       1.0  0.7423040814713954  0.257695872144682  0.7423042003059004  1.0000
