data_image0
_chemical_formula_structural       Mn2ZrF6
_chemical_formula_sum              "Mn2 Zr1 F6"
_cell_length_a       6.105166298571026
_cell_length_b       6.105165791914955
_cell_length_c       6.105166550834525
_cell_angle_alpha    59.99999441768218
_cell_angle_beta     59.99999623773223
_cell_angle_gamma    59.999998212950295

_space_group_name_H-M_alt    "P 1"
_space_group_IT_number       1

loop_
  _space_group_symop_operation_xyz
  'x, y, z'

loop_
  _atom_site_type_symbol
  _atom_site_label
  _atom_site_symmetry_multiplicity
  _atom_site_fract_x
  _atom_site_fract_y
  _atom_site_fract_z
  _atom_site_occupancy
  Mn  Mn1       1.0  0.2500001082488833  0.24999985685034617  0.25000003219075306  1.0000
  Mn  Mn2       1.0  0.7499998039106078  0.7500000379676007  0.7500001134542617  1.0000
  Zr  Zr1       1.0  0.9999999999246393  0.9999999378115279  4.423557270748115e-08  1.0000
  F   F1        1.0  0.23884890910259604  0.2388489741596293  0.7611511085827608  1.0000
  F   F2        1.0  0.7611510094553144  0.7611510149440658  0.23884895887490093  1.0000
  F   F3        1.0  0.7611510034392118  0.23884895782409796  0.23884893890435965  1.0000
  F   F4        1.0  0.23884901621902876  0.7611510854437544  0.7611509591954665  1.0000
  F   F5        1.0  0.23884893694511158  0.7611510773848104  0.23884900938653209  1.0000
  F   F6        1.0  0.7611511354020942  0.23884904612623228  0.7611509876808668  1.0000
