data_image0
_chemical_formula_structural       Mn2ZrI6
_chemical_formula_sum              "Mn2 Zr1 I6"
_cell_length_a       7.900436210988994
_cell_length_b       7.900436152101542
_cell_length_c       7.900436044122539
_cell_angle_alpha    60.000001203024475
_cell_angle_beta     59.99999949287108
_cell_angle_gamma    59.99999861971234

_space_group_name_H-M_alt    "P 1"
_space_group_IT_number       1

loop_
  _space_group_symop_operation_xyz
  'x, y, z'

loop_
  _atom_site_type_symbol
  _atom_site_label
  _atom_site_symmetry_multiplicity
  _atom_site_fract_x
  _atom_site_fract_y
  _atom_site_fract_z
  _atom_site_occupancy
  Mn  Mn1       1.0  0.24999990947643141  0.25000006239696176  0.25000000408264467  1.0000
  Mn  Mn2       1.0  0.7500000145897563  0.749999973259918  0.7500000482810992  1.0000
  Zr  Zr1       1.0  3.351213805010223e-08  3.1004486020057046e-08  0.9999999183773239  1.0000
  I   I1        1.0  0.25452737733032915  0.2545274153919649  0.7454725984447343  1.0000
  I   I2        1.0  0.7454726004313386  0.7454725381030214  0.2545274048645693  1.0000
  I   I3        1.0  0.7454726493712235  0.2545274116121157  0.2545273315993545  1.0000
  I   I4        1.0  0.254527356542636  0.7454726240447621  0.7454726722460361  1.0000
  I   I5        1.0  0.2545274394676381  0.7454725773227926  0.2545273925996816  1.0000
  I   I6        1.0  0.7454726222973251  0.25452736532062215  0.7454726310926407  1.0000
