data_image0
_chemical_formula_structural       Mn2ZrBr6
_chemical_formula_sum              "Mn2 Zr1 Br6"
_cell_length_a       7.214927655462764
_cell_length_b       7.214927699967665
_cell_length_c       7.214927691589491
_cell_angle_alpha    60.00000061678699
_cell_angle_beta     60.00000017997673
_cell_angle_gamma    60.000000614153464

_space_group_name_H-M_alt    "P 1"
_space_group_IT_number       1

loop_
  _space_group_symop_operation_xyz
  'x, y, z'

loop_
  _atom_site_type_symbol
  _atom_site_label
  _atom_site_symmetry_multiplicity
  _atom_site_fract_x
  _atom_site_fract_y
  _atom_site_fract_z
  _atom_site_occupancy
  Mn  Mn1       1.0  0.24999988819725333  0.2499999790584407  0.25000010196513334  1.0000
  Mn  Mn2       1.0  0.7500001079920132  0.749999960940534  0.7500000473643935  1.0000
  Zr  Zr1       1.0  9.780104019332611e-09  1.8672666152156185e-08  2.1810012212633297e-08  1.0000
  Br  Br1       1.0  0.255886962599609  0.2558870285184246  0.7441129810592708  1.0000
  Br  Br2       1.0  0.7441130340250999  0.7441129725910922  0.2558869642453546  1.0000
  Br  Br3       1.0  0.7441130089134248  0.25588704347590363  0.25588695912471116  1.0000
  Br  Br4       1.0  0.25588695264596256  0.7441130340217917  0.7441129655184859  1.0000
  Br  Br5       1.0  0.25588698618588485  0.7441129907179515  0.2558870143584697  1.0000
  Br  Br6       1.0  0.7441130464250012  0.25588696965120333  0.7441129457973854  1.0000
