data_image0
_chemical_formula_structural       Mo2AsS6
_chemical_formula_sum              "Mo2 As1 S6"
_cell_length_a       6.240111651275511
_cell_length_b       6.240111628747528
_cell_length_c       6.24011166538307
_cell_angle_alpha    59.99999872425949
_cell_angle_beta     59.999999310916856
_cell_angle_gamma    59.99999960626983

_space_group_name_H-M_alt    "P 1"
_space_group_IT_number       1

loop_
  _space_group_symop_operation_xyz
  'x, y, z'

loop_
  _atom_site_type_symbol
  _atom_site_label
  _atom_site_symmetry_multiplicity
  _atom_site_fract_x
  _atom_site_fract_y
  _atom_site_fract_z
  _atom_site_occupancy
  Mo  Mo1       1.0  0.24999976577556257  0.24999988699394698  0.25000012831394625  1.0000
  Mo  Mo2       1.0  0.7500000061766794  0.7499998160349151  0.7499997975443652  1.0000
  As  As1       1.0  0.9999999578886778  0.9999999764476347  4.8857198397429654e-08  1.0000
  S   S1        1.0  0.26284958071467557  0.26284984239256065  0.737150239343997  1.0000
  S   S2        1.0  0.7371503388563633  0.7371502060709845  0.2628497861352228  1.0000
  S   S3        1.0  0.7371502576227119  0.26284968605974574  0.26284984087057484  1.0000
  S   S4        1.0  0.26284993000365287  0.7371502466046714  0.7371502767467651  1.0000
  S   S5        1.0  0.262849788934842  0.737150539835319  0.26284967549754923  1.0000
  S   S6        1.0  0.7371503665345401  0.2628498501375182  0.7371501494172975  1.0000
