data_image0
_chemical_formula_structural       Mo2AsO6
_chemical_formula_sum              "Mo2 As1 O6"
_cell_length_a       5.0836961227850805
_cell_length_b       5.083696210540519
_cell_length_c       5.083696206421844
_cell_angle_alpha    59.99999992906239
_cell_angle_beta     59.99999990043829
_cell_angle_gamma    60.000000350784106

_space_group_name_H-M_alt    "P 1"
_space_group_IT_number       1

loop_
  _space_group_symop_operation_xyz
  'x, y, z'

loop_
  _atom_site_type_symbol
  _atom_site_label
  _atom_site_symmetry_multiplicity
  _atom_site_fract_x
  _atom_site_fract_y
  _atom_site_fract_z
  _atom_site_occupancy
  Mo  Mo1       1.0  0.249999603365641  0.2500001951429161  0.2500001145390918  1.0000
  Mo  Mo2       1.0  0.7499997310060761  0.7499997783594159  0.7500003968534396  1.0000
  As  As1       1.0  2.6177940411091224e-08  1.686413552177556e-08  0.9999999194667812  1.0000
  O   O1        1.0  0.25096208256095737  0.2509623239893193  0.7490378177574348  1.0000
  O   O2        1.0  0.7490380826083268  0.7490376374672035  0.2509620718153693  1.0000
  O   O3        1.0  0.7490377967482323  0.25096222416138897  0.2509621156910503  1.0000
  O   O4        1.0  0.2509623672715155  0.7490378770265407  0.7490377655700721  1.0000
  O   O5        1.0  0.25096236593103066  0.749037847096196  0.25096204512955156  1.0000
  O   O6        1.0  0.74903791962139  0.25096211436032706  0.7490377508114487  1.0000
