data_image0
_chemical_formula_structural       Mo2AsCl6
_chemical_formula_sum              "Mo2 As1 Cl6"
_cell_length_a       6.649668123939766
_cell_length_b       6.649668259046915
_cell_length_c       6.649667781306122
_cell_angle_alpha    59.9999992117234
_cell_angle_beta     59.999999149640715
_cell_angle_gamma    59.99999869227044

_space_group_name_H-M_alt    "P 1"
_space_group_IT_number       1

loop_
  _space_group_symop_operation_xyz
  'x, y, z'

loop_
  _atom_site_type_symbol
  _atom_site_label
  _atom_site_symmetry_multiplicity
  _atom_site_fract_x
  _atom_site_fract_y
  _atom_site_fract_z
  _atom_site_occupancy
  Mo  Mo1       1.0  0.2499999424291525  0.24999998806863621  0.2500000644497622  1.0000
  Mo  Mo2       1.0  0.7499999902696203  0.7500000378784507  0.7499999291499801  1.0000
  As  As1       1.0  1.6856181720496893e-08  0.9999999963163724  6.948233434262088e-09  1.0000
  Cl  Cl1       1.0  0.2539907497038737  0.253990565931543  0.7460093761217386  1.0000
  Cl  Cl2       1.0  0.7460092878336897  0.7460093955520679  0.2539906664667342  1.0000
  Cl  Cl3       1.0  0.7460093398708509  0.2539907301246169  0.25399063923043863  1.0000
  Cl  Cl4       1.0  0.25399067291660116  0.7460092847715869  0.7460093619577712  1.0000
  Cl  Cl5       1.0  0.253990607227785  0.7460092958322808  0.25399074749882067  1.0000
  Cl  Cl6       1.0  0.746009376969477  0.2539907006457896  0.7460092245593436  1.0000
