data_image0
_chemical_formula_structural       Mo2AsF6
_chemical_formula_sum              "Mo2 As1 F6"
_cell_length_a       4.673452172217412
_cell_length_b       4.673451667322017
_cell_length_c       4.6734527641206105
_cell_angle_alpha    59.9999968833263
_cell_angle_beta     59.999994612627916
_cell_angle_gamma    59.99999024818496

_space_group_name_H-M_alt    "P 1"
_space_group_IT_number       1

loop_
  _space_group_symop_operation_xyz
  'x, y, z'

loop_
  _atom_site_type_symbol
  _atom_site_label
  _atom_site_symmetry_multiplicity
  _atom_site_fract_x
  _atom_site_fract_y
  _atom_site_fract_z
  _atom_site_occupancy
  Mo  Mo1       1.0  0.24999823187256143  0.2499975346723977  0.25000286529470067  1.0000
  Mo  Mo2       1.0  0.7500018591502007  0.7500023266030282  0.7499982377528885  1.0000
  As  As1       1.0  0.9999996655437816  0.9999987945041681  1.3648252633580543e-06  1.0000
  F   F1        1.0  0.2836219014245175  0.28362224829552196  0.716377054355342  1.0000
  F   F2        1.0  0.7163769856373728  0.7163775631876265  0.28362237962179937  1.0000
  F   F3        1.0  0.7163784989190867  0.28362189965763984  0.28362302343001944  1.0000
  F   F4        1.0  0.28362123745568946  0.7163797593789651  0.7163755991901544  1.0000
  F   F5        1.0  0.283622165679398  0.7163787545039098  0.2836231476378725  1.0000
  F   F6        1.0  0.7163794506537798  0.2836211487016612  0.7163762709565255  1.0000
