data_image0
_chemical_formula_structural       Mo2AsBr6
_chemical_formula_sum              "Mo2 As1 Br6"
_cell_length_a       6.958525702447596
_cell_length_b       6.958525376416871
_cell_length_c       6.9585256047795925
_cell_angle_alpha    59.99999990586647
_cell_angle_beta     60.000001154724835
_cell_angle_gamma    60.000000721417265

_space_group_name_H-M_alt    "P 1"
_space_group_IT_number       1

loop_
  _space_group_symop_operation_xyz
  'x, y, z'

loop_
  _atom_site_type_symbol
  _atom_site_label
  _atom_site_symmetry_multiplicity
  _atom_site_fract_x
  _atom_site_fract_y
  _atom_site_fract_z
  _atom_site_occupancy
  Mo  Mo1       1.0  0.24999994237100065  0.2499999958435775  0.2500000021111094  1.0000
  Mo  Mo2       1.0  0.7499999703911611  0.7500000156917564  0.7500000068389002  1.0000
  As  As1       1.0  3.83676109443413e-08  0.9999999894396178  0.9999999990301601  1.0000
  Br  Br1       1.0  0.2588498370414583  0.25884977542653326  0.7411501834355763  1.0000
  Br  Br2       1.0  0.7411502220675029  0.7411501903471436  0.25884978384437857  1.0000
  Br  Br3       1.0  0.7411502321876504  0.25884976137101645  0.2588498286463039  1.0000
  Br  Br4       1.0  0.2588497831901198  0.741150206162724  0.7411501998576234  1.0000
  Br  Br5       1.0  0.258849812348205  0.7411502231209661  0.2588497800466193  1.0000
  Br  Br6       1.0  0.7411501623640504  0.2588498464964751  0.7411502177482159  1.0000
