data_image0
_chemical_formula_structural       Mo2AsI6
_chemical_formula_sum              "Mo2 As1 I6"
_cell_length_a       7.668195007561549
_cell_length_b       7.668195200089904
_cell_length_c       7.6681950874199805
_cell_angle_alpha    59.99999939882717
_cell_angle_beta     60.00000022095565
_cell_angle_gamma    59.99999861452941

_space_group_name_H-M_alt    "P 1"
_space_group_IT_number       1

loop_
  _space_group_symop_operation_xyz
  'x, y, z'

loop_
  _atom_site_type_symbol
  _atom_site_label
  _atom_site_symmetry_multiplicity
  _atom_site_fract_x
  _atom_site_fract_y
  _atom_site_fract_z
  _atom_site_occupancy
  Mo  Mo1       1.0  0.250000041437919  0.24999999872962866  0.24999992497900544  1.0000
  Mo  Mo2       1.0  0.7499999624747662  0.7500000073691111  0.7499999858915343  1.0000
  As  As1       1.0  0.9999999960148988  0.9999999984028253  0.9999999962706988  1.0000
  I   I1        1.0  0.2597546948791514  0.25975466670039843  0.7402453498205219  1.0000
  I   I2        1.0  0.7402453235751252  0.7402453138435413  0.2597546761000013  1.0000
  I   I3        1.0  0.7402453329402514  0.2597546729830906  0.2597546983041957  1.0000
  I   I4        1.0  0.25975467336036134  0.7402453395043468  0.7402453477154307  1.0000
  I   I5        1.0  0.2597546602604597  0.7402453208982558  0.2597546942524388  1.0000
  I   I6        1.0  0.7402453199086346  0.2597546931863577  0.7402453157831084  1.0000
