data_image0
_chemical_formula_structural       Mo2BeF6
_chemical_formula_sum              "Mo2 Be1 F6"
_cell_length_a       5.389296900472453
_cell_length_b       5.389294887989901
_cell_length_c       5.38929521851989
_cell_angle_alpha    60.000003223472994
_cell_angle_beta     60.0000028575421
_cell_angle_gamma    59.99999735325746

_space_group_name_H-M_alt    "P 1"
_space_group_IT_number       1

loop_
  _space_group_symop_operation_xyz
  'x, y, z'

loop_
  _atom_site_type_symbol
  _atom_site_label
  _atom_site_symmetry_multiplicity
  _atom_site_fract_x
  _atom_site_fract_y
  _atom_site_fract_z
  _atom_site_occupancy
  Mo  Mo1       1.0  0.24996135406550637  0.24998981164272246  0.2500294452996562  1.0000
  Mo  Mo2       1.0  0.7499795790023768  0.7499957806147737  0.7500096824795138  1.0000
  Be  Be1       1.0  9.805055004965572e-06  1.3544406582074386e-06  0.9999939081253355  1.0000
  F   F1        1.0  0.23145639776669732  0.23145135025502273  0.7685450313389044  1.0000
  F   F2        1.0  0.7685558225108221  0.7685436094595921  0.2314505293475196  1.0000
  F   F3        1.0  0.7685580347432738  0.2314544715873984  0.23144898095272654  1.0000
  F   F4        1.0  0.23146009042958623  0.7685552142597013  0.7685398082827057  1.0000
  F   F5        1.0  0.23145857779864992  0.7685534263528278  0.23144615153391568  1.0000
  F   F6        1.0  0.7685603988378258  0.23145542773996122  0.7685361501908774  1.0000
