data_image0
_chemical_formula_structural       Mo2BF6
_chemical_formula_sum              "Mo2 B1 F6"
_cell_length_a       4.429405706524988
_cell_length_b       4.4294058651624955
_cell_length_c       4.429405844487336
_cell_angle_alpha    59.999998774676406
_cell_angle_beta     59.99999931144356
_cell_angle_gamma    59.99999740908723

_space_group_name_H-M_alt    "P 1"
_space_group_IT_number       1

loop_
  _space_group_symop_operation_xyz
  'x, y, z'

loop_
  _atom_site_type_symbol
  _atom_site_label
  _atom_site_symmetry_multiplicity
  _atom_site_fract_x
  _atom_site_fract_y
  _atom_site_fract_z
  _atom_site_occupancy
  Mo  Mo1       1.0  0.25000023945009553  0.24999986291402998  0.2499998063766886  1.0000
  Mo  Mo2       1.0  0.7499998218845867  0.750000119628249  0.7500001234344695  1.0000
  B   B1        1.0  0.9999999443334805  2.765033123417384e-09  5.12847735553469e-08  1.0000
  F   F1        1.0  0.2555047249348199  0.25550487262305527  0.7444951553085729  1.0000
  F   F2        1.0  0.7444952468436786  0.7444951126842576  0.2555048540203862  1.0000
  F   F3        1.0  0.7444951410073609  0.25550485485424795  0.2555048878727116  1.0000
  F   F4        1.0  0.25550481046710244  0.7444952382893129  0.7444951002665314  1.0000
  F   F5        1.0  0.2555048442862866  0.7444951083175121  0.25550490088208117  1.0000
  F   F6        1.0  0.744495233480455  0.25550483274928504  0.7444951340139938  1.0000
