data_image0
_chemical_formula_structural       Mo2BeBr6
_chemical_formula_sum              "Mo2 Be1 Br6"
_cell_length_a       6.742027260847924
_cell_length_b       6.742026859833393
_cell_length_c       6.742027084875873
_cell_angle_alpha    59.99999896687139
_cell_angle_beta     59.99999937877997
_cell_angle_gamma    60.00000018761267

_space_group_name_H-M_alt    "P 1"
_space_group_IT_number       1

loop_
  _space_group_symop_operation_xyz
  'x, y, z'

loop_
  _atom_site_type_symbol
  _atom_site_label
  _atom_site_symmetry_multiplicity
  _atom_site_fract_x
  _atom_site_fract_y
  _atom_site_fract_z
  _atom_site_occupancy
  Mo  Mo1       1.0  0.2500001790231528  0.25000007841635763  0.249999969107723  1.0000
  Mo  Mo2       1.0  0.7500000477477565  0.7499998791988685  0.7500003433582284  1.0000
  Be  Be1       1.0  0.9999999692754645  0.9999999945502516  3.588594348076894e-08  1.0000
  Br  Br1       1.0  0.247438343992089  0.2474384947958693  0.7525615075274197  1.0000
  Br  Br2       1.0  0.7525616380362361  0.7525615136836619  0.24743835604776956  1.0000
  Br  Br3       1.0  0.7525614687974356  0.24743851978333456  0.24743831032156136  1.0000
  Br  Br4       1.0  0.24743842100380944  0.7525615649926646  0.7525615196883988  1.0000
  Br  Br5       1.0  0.24743847045139447  0.7525615472194509  0.2474383313799024  1.0000
  Br  Br6       1.0  0.7525614597302333  0.24743839586310482  0.7525616234482594  1.0000
