data_image0
_chemical_formula_structural       Mo2BCl6
_chemical_formula_sum              "Mo2 B1 Cl6"
_cell_length_a       6.47131132068446
_cell_length_b       6.471311060605147
_cell_length_c       6.471312412372533
_cell_angle_alpha    59.99999325286846
_cell_angle_beta     59.99999343239262
_cell_angle_gamma    59.999996837836974

_space_group_name_H-M_alt    "P 1"
_space_group_IT_number       1

loop_
  _space_group_symop_operation_xyz
  'x, y, z'

loop_
  _atom_site_type_symbol
  _atom_site_label
  _atom_site_symmetry_multiplicity
  _atom_site_fract_x
  _atom_site_fract_y
  _atom_site_fract_z
  _atom_site_occupancy
  Mo  Mo1       1.0  0.24999991998581067  0.25000016888822796  0.2500000519474478  1.0000
  Mo  Mo2       1.0  0.7499998413907337  0.7500003533660095  0.7499999661639153  1.0000
  B   B1        1.0  1.779085241273373e-08  0.9999999091563412  3.652640297967e-08  1.0000
  Cl  Cl1       1.0  0.22256996414255098  0.2225699395054991  0.7774300386962406  1.0000
  Cl  Cl2       1.0  0.7774300717440146  0.7774299733391957  0.22256992279904825  1.0000
  Cl  Cl3       1.0  0.7774300801983005  0.22256987843679116  0.22257001364058518  1.0000
  Cl  Cl4       1.0  0.22257005070969627  0.7774299795231954  0.7774299926881688  1.0000
  Cl  Cl5       1.0  0.22257004378039885  0.7774298723379126  0.2225699516400148  1.0000
  Cl  Cl6       1.0  0.7774300234511964  0.22256992505963244  0.7774300148195753  1.0000
