data_image0
_chemical_formula_structural       Mo2BI6
_chemical_formula_sum              "Mo2 B1 I6"
_cell_length_a       7.347202262971236
_cell_length_b       7.347202029813241
_cell_length_c       7.347202307361316
_cell_angle_alpha    60.00000044015254
_cell_angle_beta     60.00000122888848
_cell_angle_gamma    59.999999186777465

_space_group_name_H-M_alt    "P 1"
_space_group_IT_number       1

loop_
  _space_group_symop_operation_xyz
  'x, y, z'

loop_
  _atom_site_type_symbol
  _atom_site_label
  _atom_site_symmetry_multiplicity
  _atom_site_fract_x
  _atom_site_fract_y
  _atom_site_fract_z
  _atom_site_occupancy
  Mo  Mo1       1.0  0.2500000355387637  0.24999997162589377  0.2500000753061299  1.0000
  Mo  Mo2       1.0  0.7500000021893539  0.7500000065601573  0.7500000989065159  1.0000
  B   B1        1.0  2.9362116450996975e-09  3.833994501546605e-08  0.9999999861672336  1.0000
  I   I1        1.0  0.23721549900117075  0.23721546062129933  0.7627844948342206  1.0000
  I   I2        1.0  0.7627844747508674  0.7627845208986569  0.23721545109767647  1.0000
  I   I3        1.0  0.7627844807379933  0.23721547609415408  0.23721548621658306  1.0000
  I   I4        1.0  0.2372154888384807  0.7627845320970684  0.762784460717024  1.0000
  I   I5        1.0  0.23721545780603198  0.7627845081973778  0.2372154894730505  1.0000
  I   I6        1.0  0.7627845618879496  0.23721548165734935  0.7627844633470474  1.0000
