data_image0
_chemical_formula_structural       Mo2BeCl6
_chemical_formula_sum              "Mo2 Be1 Cl6"
_cell_length_a       6.27132593390529
_cell_length_b       6.271325055663219
_cell_length_c       6.27132510535316
_cell_angle_alpha    60.00000114978582
_cell_angle_beta     60.00000438837211
_cell_angle_gamma    60.000003773745554

_space_group_name_H-M_alt    "P 1"
_space_group_IT_number       1

loop_
  _space_group_symop_operation_xyz
  'x, y, z'

loop_
  _atom_site_type_symbol
  _atom_site_label
  _atom_site_symmetry_multiplicity
  _atom_site_fract_x
  _atom_site_fract_y
  _atom_site_fract_z
  _atom_site_occupancy
  Mo  Mo1       1.0  0.2500001511597531  0.2499999264576569  0.24999994752042146  1.0000
  Mo  Mo2       1.0  0.7500001615200917  0.7499998985015907  0.7500002590503221  1.0000
  Be  Be1       1.0  0.9999999881899052  7.81171258304012e-09  0.9999999860535979  1.0000
  Cl  Cl1       1.0  0.24708563713990433  0.24708563003890077  0.7529143538759946  1.0000
  Cl  Cl2       1.0  0.7529143043308824  0.75291444684808  0.24708551210102075  1.0000
  Cl  Cl3       1.0  0.7529143804869898  0.24708568663860025  0.24708556134216073  1.0000
  Cl  Cl4       1.0  0.24708548017353374  0.752914411730589  0.7529143869193401  1.0000
  Cl  Cl5       1.0  0.24708555946942365  0.7529143724220178  0.24708561515323316  1.0000
  Cl  Cl6       1.0  0.752914340249661  0.24708560877147157  0.7529143753559544  1.0000
