data_image0
_chemical_formula_structural       Mo2BeI6
_chemical_formula_sum              "Mo2 Be1 I6"
_cell_length_a       7.38334422952636
_cell_length_b       7.383344351794556
_cell_length_c       7.383344194454352
_cell_angle_alpha    59.99999982351316
_cell_angle_beta     59.999999560720354
_cell_angle_gamma    59.999998818478765

_space_group_name_H-M_alt    "P 1"
_space_group_IT_number       1

loop_
  _space_group_symop_operation_xyz
  'x, y, z'

loop_
  _atom_site_type_symbol
  _atom_site_label
  _atom_site_symmetry_multiplicity
  _atom_site_fract_x
  _atom_site_fract_y
  _atom_site_fract_z
  _atom_site_occupancy
  Mo  Mo1       1.0  0.25000003588897995  0.24999990648301418  0.2500000412957704  1.0000
  Mo  Mo2       1.0  0.7499999713151685  0.7500000628194441  0.749999943177205  1.0000
  Be  Be1       1.0  0.9999999916274375  1.6587941208109374e-09  2.909048068110778e-08  1.0000
  I   I1        1.0  0.24574396925593306  0.2457440024152747  0.7542560365500474  1.0000
  I   I2        1.0  0.7542560021350946  0.7542560133334213  0.2457440008455615  1.0000
  I   I3        1.0  0.7542560243240906  0.24574398697080824  0.24574396047400898  1.0000
  I   I4        1.0  0.24574399185158888  0.754256058636183  0.7542559854241334  1.0000
  I   I5        1.0  0.24574394743715897  0.7542560227601456  0.2457439948258963  1.0000
  I   I6        1.0  0.7542560608728521  0.245743943224724  0.7542560151321387  1.0000
