data_image0
_chemical_formula_structural       Mo2BBr6
_chemical_formula_sum              "Mo2 B1 Br6"
_cell_length_a       6.836234056013611
_cell_length_b       6.836234034584037
_cell_length_c       6.836233994292819
_cell_angle_alpha    59.99999938116521
_cell_angle_beta     60.000000482987666
_cell_angle_gamma    60.00000092475132

_space_group_name_H-M_alt    "P 1"
_space_group_IT_number       1

loop_
  _space_group_symop_operation_xyz
  'x, y, z'

loop_
  _atom_site_type_symbol
  _atom_site_label
  _atom_site_symmetry_multiplicity
  _atom_site_fract_x
  _atom_site_fract_y
  _atom_site_fract_z
  _atom_site_occupancy
  Mo  Mo1       1.0  0.24999985724588558  0.25000006221917864  0.2500000702142491  1.0000
  Mo  Mo2       1.0  0.7500000344484968  0.7500000146688333  0.7499998370858633  1.0000
  B   B1        1.0  0.9999999493946422  5.553802180156507e-08  0.9999998775845844  1.0000
  Br  Br1       1.0  0.23124928350850144  0.2312492618778069  0.768750750446282  1.0000
  Br  Br2       1.0  0.7687507489276991  0.7687507272243007  0.23124930152273687  1.0000
  Br  Br3       1.0  0.7687507854491255  0.23124924501662678  0.23124928251959478  1.0000
  Br  Br4       1.0  0.2312492743374537  0.768750697505205  0.7687508170970091  1.0000
  Br  Br5       1.0  0.23124926978743382  0.7687506777565839  0.23124933016545896  1.0000
  Br  Br6       1.0  0.7687507959709754  0.23124924684975717  0.7687507651834196  1.0000
