data_image0
_chemical_formula_structural       Mo2CI6
_chemical_formula_sum              "Mo2 C1 I6"
_cell_length_a       7.383996763240158
_cell_length_b       7.383996723910161
_cell_length_c       7.383996787901516
_cell_angle_alpha    60.000000739827065
_cell_angle_beta     59.999999997710425
_cell_angle_gamma    59.99999919692959

_space_group_name_H-M_alt    "P 1"
_space_group_IT_number       1

loop_
  _space_group_symop_operation_xyz
  'x, y, z'

loop_
  _atom_site_type_symbol
  _atom_site_label
  _atom_site_symmetry_multiplicity
  _atom_site_fract_x
  _atom_site_fract_y
  _atom_site_fract_z
  _atom_site_occupancy
  Mo  Mo1       1.0  0.2500000632408153  0.24999993534380957  0.24999995762526372  1.0000
  Mo  Mo2       1.0  0.7499998949360808  0.7500000664391115  0.7500000024703835  1.0000
  C   C1        1.0  0.9999999888800403  0.9999999817548764  2.551678242636752e-08  1.0000
  I   I1        1.0  0.25290781027668063  0.25290779735670404  0.7470922162419421  1.0000
  I   I2        1.0  0.7470921768695847  0.7470922160367512  0.252907812946241  1.0000
  I   I3        1.0  0.7470922393189432  0.2529077636270636  0.2529078150779358  1.0000
  I   I4        1.0  0.2529078540077374  0.7470922033242565  0.7470921639269053  1.0000
  I   I5        1.0  0.2529077929241674  0.7470922442177557  0.25290779734684776  1.0000
  I   I6        1.0  0.7470921798634271  0.2529077841035281  0.7470922071797145  1.0000
