data_image0
_chemical_formula_structural       Mo2GaBr6
_chemical_formula_sum              "Mo2 Ga1 Br6"
_cell_length_a       6.9084614318198465
_cell_length_b       6.908461590047151
_cell_length_c       6.908461535898062
_cell_angle_alpha    60.00000164083827
_cell_angle_beta     60.00000080727934
_cell_angle_gamma    60.00000114277286

_space_group_name_H-M_alt    "P 1"
_space_group_IT_number       1

loop_
  _space_group_symop_operation_xyz
  'x, y, z'

loop_
  _atom_site_type_symbol
  _atom_site_label
  _atom_site_symmetry_multiplicity
  _atom_site_fract_x
  _atom_site_fract_y
  _atom_site_fract_z
  _atom_site_occupancy
  Mo  Mo1       1.0  0.2500000456116114  0.24999996675098413  0.24999997892768971  1.0000
  Mo  Mo2       1.0  0.7499999853922996  0.7499999534375076  0.7499999772270559  1.0000
  Ga  Ga1       1.0  0.9999999790477409  1.772818511018947e-08  1.3192039246951201e-08  1.0000
  Br  Br1       1.0  0.25501025369383745  0.2550102532290317  0.7449897508636847  1.0000
  Br  Br2       1.0  0.7449897743031908  0.7449897662372966  0.2550102469006024  1.0000
  Br  Br3       1.0  0.7449897524268964  0.2550102654951679  0.2550102146720561  1.0000
  Br  Br4       1.0  0.2550102212906743  0.7449897663808899  0.7449897852095912  1.0000
  Br  Br5       1.0  0.25501023114975974  0.7449897575787555  0.25501025560496976  1.0000
  Br  Br6       1.0  0.7449897636214595  0.2550102512506623  0.74498978001318  1.0000
