data_image0
_chemical_formula_structural       Mo2GaF6
_chemical_formula_sum              "Mo2 Ga1 F6"
_cell_length_a       4.6907803724383665
_cell_length_b       4.690780121516273
_cell_length_c       4.690780280490531
_cell_angle_alpha    60.00000022954807
_cell_angle_beta     60.0000001202936
_cell_angle_gamma    60.00000055393838

_space_group_name_H-M_alt    "P 1"
_space_group_IT_number       1

loop_
  _space_group_symop_operation_xyz
  'x, y, z'

loop_
  _atom_site_type_symbol
  _atom_site_label
  _atom_site_symmetry_multiplicity
  _atom_site_fract_x
  _atom_site_fract_y
  _atom_site_fract_z
  _atom_site_occupancy
  Mo  Mo1       1.0  0.2500000014464179  0.2500000218951355  0.24999999622650387  1.0000
  Mo  Mo2       1.0  0.7499999816640743  0.7499999638578873  0.7500000338761283  1.0000
  Ga  Ga1       1.0  2.2752039515607123e-08  0.9999999686684566  3.200369080540651e-08  1.0000
  F   F1        1.0  0.26984450737941823  0.2698444857369587  0.7301554879599054  1.0000
  F   F2        1.0  0.7301555065634066  0.730155518292798  0.26984447921504673  1.0000
  F   F3        1.0  0.7301554810279499  0.26984451466717885  0.26984451059581893  1.0000
  F   F4        1.0  0.2698445016345717  0.7301554945845022  0.73015552290436  1.0000
  F   F5        1.0  0.2698445183269652  0.7301554813960078  0.26984447034910913  1.0000
  F   F6        1.0  0.7301554698305078  0.26984454091048216  0.7301554813935792  1.0000
