data_image0
_chemical_formula_structural       Mo2GaO6
_chemical_formula_sum              "Mo2 Ga1 O6"
_cell_length_a       5.085307393706549
_cell_length_b       5.08530735923012
_cell_length_c       5.08530748432765
_cell_angle_alpha    59.99999638928362
_cell_angle_beta     59.99999452801975
_cell_angle_gamma    59.999998414545026

_space_group_name_H-M_alt    "P 1"
_space_group_IT_number       1

loop_
  _space_group_symop_operation_xyz
  'x, y, z'

loop_
  _atom_site_type_symbol
  _atom_site_label
  _atom_site_symmetry_multiplicity
  _atom_site_fract_x
  _atom_site_fract_y
  _atom_site_fract_z
  _atom_site_occupancy
  Mo  Mo1       1.0  0.2500002954614828  0.24999994472861398  0.24999958573425213  1.0000
  Mo  Mo2       1.0  0.7500002842184731  0.7500001352356829  0.7500006952633707  1.0000
  Ga  Ga1       1.0  1.2958900223067442e-08  0.9999999951832019  1.559344282859287e-08  1.0000
  O   O1        1.0  0.2579733940618225  0.25797325614490285  0.7420267102011943  1.0000
  O   O2        1.0  0.7420266033689922  0.7420266359642748  0.25797322039649756  1.0000
  O   O3        1.0  0.7420265172780912  0.2579736081726324  0.2579730362290731  1.0000
  O   O4        1.0  0.257972961820322  0.7420264356656774  0.7420268220318433  1.0000
  O   O5        1.0  0.25797343512138676  0.7420268515107633  0.25797319727519286  1.0000
  O   O6        1.0  0.74202653515198  0.2579731152587828  0.7420266879400944  1.0000
