data_image0
_chemical_formula_structural       Mo2GaI6
_chemical_formula_sum              "Mo2 Ga1 I6"
_cell_length_a       7.563843352258579
_cell_length_b       7.563843047939187
_cell_length_c       7.563843121445738
_cell_angle_alpha    59.9999997087763
_cell_angle_beta     59.999999838113474
_cell_angle_gamma    59.999999391173205

_space_group_name_H-M_alt    "P 1"
_space_group_IT_number       1

loop_
  _space_group_symop_operation_xyz
  'x, y, z'

loop_
  _atom_site_type_symbol
  _atom_site_label
  _atom_site_symmetry_multiplicity
  _atom_site_fract_x
  _atom_site_fract_y
  _atom_site_fract_z
  _atom_site_occupancy
  Mo  Mo1       1.0  0.25000001011848444  0.25000000212429946  0.24999999955959878  1.0000
  Mo  Mo2       1.0  0.7499999763686328  0.7500000355186749  0.7500000110993187  1.0000
  Ga  Ga1       1.0  1.6160320313453145e-08  6.476839299812385e-09  0.999999999258054  1.0000
  I   I1        1.0  0.2563916240099889  0.25639164900909306  0.7436083531558108  1.0000
  I   I2        1.0  0.7436083649297769  0.743608340057587  0.2563916369363146  1.0000
  I   I3        1.0  0.743608355854137  0.2563916426365113  0.2563916311458473  1.0000
  I   I4        1.0  0.25639163855971  0.743608352907008  0.7436083767682441  1.0000
  I   I5        1.0  0.25639163853131486  0.7436083473450223  0.2563916458436041  1.0000
  I   I6        1.0  0.7436083690055305  0.2563916271487694  0.7436083501689009  1.0000
