data_image0
_chemical_formula_structural       Mo2GaSe6
_chemical_formula_sum              "Mo2 Ga1 Se6"
_cell_length_a       6.326709015140208
_cell_length_b       6.326708880109492
_cell_length_c       6.326708737852591
_cell_angle_alpha    60.000001921658516
_cell_angle_beta     60.00000140851455
_cell_angle_gamma    60.00000051423663

_space_group_name_H-M_alt    "P 1"
_space_group_IT_number       1

loop_
  _space_group_symop_operation_xyz
  'x, y, z'

loop_
  _atom_site_type_symbol
  _atom_site_label
  _atom_site_symmetry_multiplicity
  _atom_site_fract_x
  _atom_site_fract_y
  _atom_site_fract_z
  _atom_site_occupancy
  Mo  Mo1       1.0  0.2500001200997833  0.24999988714214888  0.250000031888723  1.0000
  Mo  Mo2       1.0  0.7500000566395861  0.7500001124754113  0.7499997674948664  1.0000
  Ga  Ga1       1.0  2.437184224807308e-08  0.9999999980641661  0.9999998907847549  1.0000
  Se  Se1       1.0  0.27415813811903517  0.2741582003681652  0.7258418445148968  1.0000
  Se  Se2       1.0  0.7258418157342291  0.7258418108643929  0.2741582296285172  1.0000
  Se  Se3       1.0  0.7258417471607196  0.2741580911012074  0.27415829597740504  1.0000
  Se  Se4       1.0  0.2741581688995831  0.7258419240030157  0.7258417998684589  1.0000
  Se  Se5       1.0  0.274158136058308  0.7258418424039548  0.2741582411031763  1.0000
  Se  Se6       1.0  0.7258418077299313  0.27415812236862447  0.7258418944953526  1.0000
