data_image0
_chemical_formula_structural       Mo2IrF6
_chemical_formula_sum              "Mo2 Ir1 F6"
_cell_length_a       5.921898885720845
_cell_length_b       5.921889794963091
_cell_length_c       5.921895895359184
_cell_angle_alpha    60.00001873828785
_cell_angle_beta     60.00003638664303
_cell_angle_gamma    60.00002243962556

_space_group_name_H-M_alt    "P 1"
_space_group_IT_number       1

loop_
  _space_group_symop_operation_xyz
  'x, y, z'

loop_
  _atom_site_type_symbol
  _atom_site_label
  _atom_site_symmetry_multiplicity
  _atom_site_fract_x
  _atom_site_fract_y
  _atom_site_fract_z
  _atom_site_occupancy
  Mo  Mo1       1.0  0.25001854940869983  0.24999632729146634  0.24999955493071307  1.0000
  Mo  Mo2       1.0  0.7500054523516252  0.7500141472808539  0.7499890756212344  1.0000
  Ir  Ir1       1.0  0.999998644323256  0.9999986970555448  1.7852449446077862e-06  1.0000
  F   F1        1.0  0.24295617716751688  0.2429561754686447  0.757038042246183  1.0000
  F   F2        1.0  0.7570385168596127  0.7570459312909411  0.24296027528537623  1.0000
  F   F3        1.0  0.7570344244889532  0.2429527032664538  0.24296189141518976  1.0000
  F   F4        1.0  0.24295331571445009  0.7570445908695367  0.7570419732960445  1.0000
  F   F5        1.0  0.24295663267818807  0.7570424475531242  0.2429583218936489  1.0000
  F   F6        1.0  0.7570385175245239  0.24294929976815294  0.7570487011305889  1.0000
