data_image0
_chemical_formula_structural       Mo2IrCl6
_chemical_formula_sum              "Mo2 Ir1 Cl6"
_cell_length_a       6.668601094010275
_cell_length_b       6.66860125337503
_cell_length_c       6.668601250100683
_cell_angle_alpha    60.00000056029717
_cell_angle_beta     59.99999852666805
_cell_angle_gamma    60.000001068302566

_space_group_name_H-M_alt    "P 1"
_space_group_IT_number       1

loop_
  _space_group_symop_operation_xyz
  'x, y, z'

loop_
  _atom_site_type_symbol
  _atom_site_label
  _atom_site_symmetry_multiplicity
  _atom_site_fract_x
  _atom_site_fract_y
  _atom_site_fract_z
  _atom_site_occupancy
  Mo  Mo1       1.0  0.25000002327226784  0.250000059610729  0.2499999395135632  1.0000
  Mo  Mo2       1.0  0.7500000873454468  0.7499999859908327  0.74999989869922  1.0000
  Ir  Ir1       1.0  2.3437433080715393e-09  0.9999999981634156  0.9999999847507721  1.0000
  Cl  Cl1       1.0  0.24868483528232704  0.24868495943229296  0.7513151203310822  1.0000
  Cl  Cl2       1.0  0.7513151070961256  0.7513150402546604  0.24868494942251895  1.0000
  Cl  Cl3       1.0  0.7513150702577739  0.24868488188313323  0.24868494346560852  1.0000
  Cl  Cl4       1.0  0.24868488181075932  0.7513150939282237  0.7513150988907591  1.0000
  Cl  Cl5       1.0  0.24868491077178115  0.751315074807859  0.24868493146830215  1.0000
  Cl  Cl6       1.0  0.7513150729717817  0.24868490467666726  0.7513151367013462  1.0000
