data_image0
_chemical_formula_structural       Mo2IrBr6
_chemical_formula_sum              "Mo2 Ir1 Br6"
_cell_length_a       6.976062694893743
_cell_length_b       6.9760626014797165
_cell_length_c       6.976062869923365
_cell_angle_alpha    60.00000003417429
_cell_angle_beta     59.999998054303546
_cell_angle_gamma    59.99999964554728

_space_group_name_H-M_alt    "P 1"
_space_group_IT_number       1

loop_
  _space_group_symop_operation_xyz
  'x, y, z'

loop_
  _atom_site_type_symbol
  _atom_site_label
  _atom_site_symmetry_multiplicity
  _atom_site_fract_x
  _atom_site_fract_y
  _atom_site_fract_z
  _atom_site_occupancy
  Mo  Mo1       1.0  0.249999887307605  0.2500000752840531  0.25000006565913707  1.0000
  Mo  Mo2       1.0  0.7499998982081166  0.7499999291491418  0.7500002386540507  1.0000
  Ir  Ir1       1.0  2.2889262058549933e-08  0.9999999859548865  0.9999999783762455  1.0000
  Br  Br1       1.0  0.24972499746166055  0.24972495507618997  0.750274988266418  1.0000
  Br  Br2       1.0  0.7502750745096929  0.7502750440900829  0.2497249059594286  1.0000
  Br  Br3       1.0  0.7502750771727328  0.24972498114699476  0.24972491463689447  1.0000
  Br  Br4       1.0  0.24972498690685735  0.7502750267974745  0.7502750121156219  1.0000
  Br  Br5       1.0  0.24972503212532388  0.7502750172701504  0.24972490962920463  1.0000
  Br  Br6       1.0  0.7502750397456227  0.24972498716304012  0.7502749877472797  1.0000
