data_image0
_chemical_formula_structural       Mo2NF6
_chemical_formula_sum              "Mo2 N1 F6"
_cell_length_a       4.376767518998373
_cell_length_b       4.376816907559509
_cell_length_c       4.37654629511098
_cell_angle_alpha    60.00243790331324
_cell_angle_beta     60.00411349420546
_cell_angle_gamma    60.00255665934021

_space_group_name_H-M_alt    "P 1"
_space_group_IT_number       1

loop_
  _space_group_symop_operation_xyz
  'x, y, z'

loop_
  _atom_site_type_symbol
  _atom_site_label
  _atom_site_symmetry_multiplicity
  _atom_site_fract_x
  _atom_site_fract_y
  _atom_site_fract_z
  _atom_site_occupancy
  Mo  Mo1       1.0  0.24999368142252107  0.24999257307192876  0.24999054047287422  1.0000
  Mo  Mo2       1.0  0.7500058512433291  0.7500030231356436  0.7499843382965491  1.0000
  N   N1        1.0  1.6817494159745967e-06  0.9999995215102323  1.3542799331530835e-06  1.0000
  F   F1        1.0  0.2703836564321837  0.27038135471713903  0.7296151239760204  1.0000
  F   F2        1.0  0.7296166578855161  0.7296193703973145  0.270391717488053  1.0000
  F   F3        1.0  0.729596072294195  0.2703970584583731  0.2703799436969824  1.0000
  F   F4        1.0  0.27040156966085305  0.7296061990030073  0.7296258435590579  1.0000
  F   F5        1.0  0.27040336850986224  0.7295922917674872  0.2703849950628126  1.0000
  F   F6        1.0  0.7295974664366792  0.27040866837522  0.729626047536068  1.0000
