data_image0
_chemical_formula_structural       Mo2NO6
_chemical_formula_sum              "Mo2 N1 O6"
_cell_length_a       4.6362717281567205
_cell_length_b       4.636271705007736
_cell_length_c       4.636271713200904
_cell_angle_alpha    59.999999983947355
_cell_angle_beta     59.99999994846255
_cell_angle_gamma    59.999999814522056

_space_group_name_H-M_alt    "P 1"
_space_group_IT_number       1

loop_
  _space_group_symop_operation_xyz
  'x, y, z'

loop_
  _atom_site_type_symbol
  _atom_site_label
  _atom_site_symmetry_multiplicity
  _atom_site_fract_x
  _atom_site_fract_y
  _atom_site_fract_z
  _atom_site_occupancy
  Mo  Mo1       1.0  0.2499999632989607  0.25000001407432754  0.24999999457249406  1.0000
  Mo  Mo2       1.0  0.7499999967155829  0.7500000131647337  0.7499999491510672  1.0000
  N   N1        1.0  2.1421579666025672e-07  0.9999999550917973  0.9999998829926201  1.0000
  O   O1        1.0  0.2503803372736525  0.2503803078383167  0.7496196916327481  1.0000
  O   O2        1.0  0.7496195634720517  0.749619605809409  0.25038043989545955  1.0000
  O   O3        1.0  0.7496195928176081  0.25038039161384856  0.2503803805113197  1.0000
  O   O4        1.0  0.25038034344792576  0.7496196620418025  0.7496196826651599  1.0000
  O   O5        1.0  0.2503803404739945  0.7496196509366396  0.2503803562097375  1.0000
  O   O6        1.0  0.7496196507353772  0.2503803947940345  0.7496196144363354  1.0000
