data_image0
_chemical_formula_structural       Mo2NCl6
_chemical_formula_sum              "Mo2 N1 Cl6"
_cell_length_a       6.389762729467709
_cell_length_b       6.389763069374948
_cell_length_c       6.3897630026852745
_cell_angle_alpha    59.99999839170121
_cell_angle_beta     59.99999861469164
_cell_angle_gamma    60.000000898759

_space_group_name_H-M_alt    "P 1"
_space_group_IT_number       1

loop_
  _space_group_symop_operation_xyz
  'x, y, z'

loop_
  _atom_site_type_symbol
  _atom_site_label
  _atom_site_symmetry_multiplicity
  _atom_site_fract_x
  _atom_site_fract_y
  _atom_site_fract_z
  _atom_site_occupancy
  Mo  Mo1       1.0  0.24999989845266457  0.25000019366491  0.2500000189552913  1.0000
  Mo  Mo2       1.0  0.7499997507491639  0.750000013642732  0.7500003629264006  1.0000
  N   N1        1.0  1.9734148561292292e-07  0.9999999175806232  0.9999999941840548  1.0000
  Cl  Cl1       1.0  0.2438726098828747  0.24387235921085632  0.756127472360986  1.0000
  Cl  Cl2       1.0  0.7561274411239629  0.7561274992519916  0.24387242449464516  1.0000
  Cl  Cl3       1.0  0.7561274827331858  0.24387267579157074  0.2438724002114092  1.0000
  Cl  Cl4       1.0  0.24387257615658922  0.756127337926382  0.7561275355804504  1.0000
  Cl  Cl5       1.0  0.24387256077756783  0.7561274432469001  0.2438724541358196  1.0000
  Cl  Cl6       1.0  0.7561274906645266  0.243872581971434  0.7561273403443985  1.0000
