data_image0
_chemical_formula_structural       Mo2PBr6
_chemical_formula_sum              "Mo2 P1 Br6"
_cell_length_a       6.957582089963726
_cell_length_b       6.957582096203655
_cell_length_c       6.957582633156383
_cell_angle_alpha    59.999997608723596
_cell_angle_beta     59.999997666954435
_cell_angle_gamma    59.9999979897569

_space_group_name_H-M_alt    "P 1"
_space_group_IT_number       1

loop_
  _space_group_symop_operation_xyz
  'x, y, z'

loop_
  _atom_site_type_symbol
  _atom_site_label
  _atom_site_symmetry_multiplicity
  _atom_site_fract_x
  _atom_site_fract_y
  _atom_site_fract_z
  _atom_site_occupancy
  Mo  Mo1       1.0  0.2500001632168553  0.25000000417115475  0.2499999520694839  1.0000
  Mo  Mo2       1.0  0.7500000627261588  0.7499998593671503  0.7500000887525791  1.0000
  P   P1        1.0  8.968313346553735e-09  2.2883932182293365e-08  0.999999948141857  1.0000
  Br  Br1       1.0  0.2571714625039545  0.2571715508223251  0.7428284491267207  1.0000
  Br  Br2       1.0  0.7428284435131002  0.7428284957874396  0.2571714660896824  1.0000
  Br  Br3       1.0  0.7428284322746531  0.25717148833030107  0.25717152866101606  1.0000
  Br  Br4       1.0  0.25717148479031077  0.7428285301146239  0.742828538841933  1.0000
  Br  Br5       1.0  0.25717150041000425  0.7428285244016817  0.2571714575503812  1.0000
  Br  Br6       1.0  0.7428284505177095  0.25717151692717555  0.7428285672064191  1.0000
