data_image0
_chemical_formula_structural       Mo2PI6
_chemical_formula_sum              "Mo2 P1 I6"
_cell_length_a       7.5552113265395215
_cell_length_b       7.5552113577162485
_cell_length_c       7.555211164100253
_cell_angle_alpha    60.00000078803547
_cell_angle_beta     59.99999992328658
_cell_angle_gamma    60.000000673373684

_space_group_name_H-M_alt    "P 1"
_space_group_IT_number       1

loop_
  _space_group_symop_operation_xyz
  'x, y, z'

loop_
  _atom_site_type_symbol
  _atom_site_label
  _atom_site_symmetry_multiplicity
  _atom_site_fract_x
  _atom_site_fract_y
  _atom_site_fract_z
  _atom_site_occupancy
  Mo  Mo1       1.0  0.25000005628679894  0.2499999974944705  0.25000001888575185  1.0000
  Mo  Mo2       1.0  0.7499999858742576  0.7500000508415596  0.7500000197020216  1.0000
  P   P1        1.0  8.258905188152126e-09  2.1073776112614094e-08  3.430647976722694e-08  1.0000
  I   I1        1.0  0.2580010208930408  0.25800100624339384  0.7419989498229985  1.0000
  I   I2        1.0  0.7419989768849766  0.7419989918397855  0.2580009984293868  1.0000
  I   I3        1.0  0.7419989510277878  0.25800100043079993  0.2580010147592467  1.0000
  I   I4        1.0  0.2580010223125401  0.7419989700943646  0.7419989674325296  1.0000
  I   I5        1.0  0.2580009899388749  0.7419989641176382  0.2580010267127853  1.0000
  I   I6        1.0  0.7419989903333348  0.25800099019692946  0.7419989654127075  1.0000
