data_image0
_chemical_formula_structural       Mo2PF6
_chemical_formula_sum              "Mo2 P1 F6"
_cell_length_a       4.388234137639086
_cell_length_b       4.388234173674436
_cell_length_c       4.388233907535671
_cell_angle_alpha    59.99999783179517
_cell_angle_beta     60.00000033730296
_cell_angle_gamma    59.999997997639355

_space_group_name_H-M_alt    "P 1"
_space_group_IT_number       1

loop_
  _space_group_symop_operation_xyz
  'x, y, z'

loop_
  _atom_site_type_symbol
  _atom_site_label
  _atom_site_symmetry_multiplicity
  _atom_site_fract_x
  _atom_site_fract_y
  _atom_site_fract_z
  _atom_site_occupancy
  Mo  Mo1       1.0  0.25000005691136423  0.24999989083500743  0.25000006031756317  1.0000
  Mo  Mo2       1.0  0.7499999777601601  0.7500001330157979  0.7499999514737696  1.0000
  P   P1        1.0  0.9999998723131275  0.9999999804631832  2.347778253863846e-08  1.0000
  F   F1        1.0  0.25933000982457866  0.25933012209646994  0.7406699487481575  1.0000
  F   F2        1.0  0.7406699897089954  0.740669904545313  0.2593300154096712  1.0000
  F   F3        1.0  0.7406699463308667  0.25933015406612747  0.25932999008346713  1.0000
  F   F4        1.0  0.2593300878618017  0.7406698949034499  0.7406699478597375  1.0000
  F   F5        1.0  0.25933007797912977  0.7406699290950208  0.2593300243635552  1.0000
  F   F6        1.0  0.7406698857780193  0.2593301338294296  0.7406699304258674  1.0000
