data_image0
_chemical_formula_structural       Mo2RhCl6
_chemical_formula_sum              "Mo2 Rh1 Cl6"
_cell_length_a       6.59195478943408
_cell_length_b       6.591954533271091
_cell_length_c       6.591954925446849
_cell_angle_alpha    60.00000031995914
_cell_angle_beta     59.99999830807046
_cell_angle_gamma    60.00000153282886

_space_group_name_H-M_alt    "P 1"
_space_group_IT_number       1

loop_
  _space_group_symop_operation_xyz
  'x, y, z'

loop_
  _atom_site_type_symbol
  _atom_site_label
  _atom_site_symmetry_multiplicity
  _atom_site_fract_x
  _atom_site_fract_y
  _atom_site_fract_z
  _atom_site_occupancy
  Mo  Mo1       1.0  0.24999999295114111  0.25000007389134715  0.2500000687033817  1.0000
  Mo  Mo2       1.0  0.7499999517859622  0.7499999875737359  0.7500001212799304  1.0000
  Rh  Rh1       1.0  1.8861698330805048e-08  0.9999999907103062  0.9999999967309982  1.0000
  Cl  Cl1       1.0  0.2509604429697298  0.2509603775056587  0.7490395413000006  1.0000
  Cl  Cl2       1.0  0.7490395596275612  0.7490395892045342  0.2509603561455246  1.0000
  Cl  Cl3       1.0  0.749039555356061  0.250960462960696  0.2509603776957992  1.0000
  Cl  Cl4       1.0  0.2509604178512104  0.7490395446241537  0.7490396065444486  1.0000
  Cl  Cl5       1.0  0.25096043341240004  0.7490395446691731  0.2509604162934399  1.0000
  Cl  Cl6       1.0  0.749039638013525  0.25096042575690136  0.749039516178858  1.0000
