data_image0
_chemical_formula_structural       Mo2RuBr6
_chemical_formula_sum              "Mo2 Ru1 Br6"
_cell_length_a       6.973060443550923
_cell_length_b       6.973060423584038
_cell_length_c       6.973060326086429
_cell_angle_alpha    59.999999695900826
_cell_angle_beta     59.9999993589908
_cell_angle_gamma    59.999999410788526

_space_group_name_H-M_alt    "P 1"
_space_group_IT_number       1

loop_
  _space_group_symop_operation_xyz
  'x, y, z'

loop_
  _atom_site_type_symbol
  _atom_site_label
  _atom_site_symmetry_multiplicity
  _atom_site_fract_x
  _atom_site_fract_y
  _atom_site_fract_z
  _atom_site_occupancy
  Mo  Mo1       1.0  0.2500000002977  0.250000128350029  0.24999997885231554  1.0000
  Mo  Mo2       1.0  0.7500000628233884  0.7499999160926104  0.7500001113887318  1.0000
  Ru  Ru1       1.0  1.7061700865163887e-08  0.9999999736540742  1.1812565240277588e-08  1.0000
  Br  Br1       1.0  0.25079767372436257  0.25079773687033097  0.7492022872373943  1.0000
  Br  Br2       1.0  0.7492023074862861  0.749202290008359  0.2507976691772563  1.0000
  Br  Br3       1.0  0.749202274405738  0.25079772577054815  0.2507976967240508  1.0000
  Br  Br4       1.0  0.2507976617930423  0.7492023169156973  0.7492022757268471  1.0000
  Br  Br5       1.0  0.25079768732656343  0.7492022434654242  0.25079771009657403  1.0000
  Br  Br6       1.0  0.74920230865563  0.25079767451677315  0.7492022690010114  1.0000
