data_image0
_chemical_formula_structural       Mo2RhF6
_chemical_formula_sum              "Mo2 Rh1 F6"
_cell_length_a       5.8357896331985195
_cell_length_b       5.835791620138382
_cell_length_c       5.835791175365089
_cell_angle_alpha    59.99999992671522
_cell_angle_beta     59.999991073396096
_cell_angle_gamma    59.9999976624038

_space_group_name_H-M_alt    "P 1"
_space_group_IT_number       1

loop_
  _space_group_symop_operation_xyz
  'x, y, z'

loop_
  _atom_site_type_symbol
  _atom_site_label
  _atom_site_symmetry_multiplicity
  _atom_site_fract_x
  _atom_site_fract_y
  _atom_site_fract_z
  _atom_site_occupancy
  Mo  Mo1       1.0  0.249997832302701  0.2500017050210502  0.25000004655969454  1.0000
  Mo  Mo2       1.0  0.7500020519507811  0.7499989911196993  0.749998344945043  1.0000
  Rh  Rh1       1.0  0.999999986629525  0.9999999748158586  1.8035229781011453e-07  1.0000
  F   F1        1.0  0.24330256855278798  0.2433038039092487  0.7566970510650238  1.0000
  F   F2        1.0  0.75669762318801  0.7566959163460846  0.2433035475639219  1.0000
  F   F3        1.0  0.7566972268985958  0.24330300355742734  0.2433034430450824  1.0000
  F   F4        1.0  0.24330272205084663  0.7566965131261472  0.7566972296853818  1.0000
  F   F5        1.0  0.24330237370887284  0.7566964984854437  0.24330406827449413  1.0000
  F   F6        1.0  0.7566973388512155  0.2433036205187792  0.7566963580884541  1.0000
