data_image0
_chemical_formula_structural       Mo2RuCl6
_chemical_formula_sum              "Mo2 Ru1 Cl6"
_cell_length_a       6.6424065831516925
_cell_length_b       6.642406807111323
_cell_length_c       6.642406731031855
_cell_angle_alpha    60.00000132080881
_cell_angle_beta     60.0000002557086
_cell_angle_gamma    60.00000134175219

_space_group_name_H-M_alt    "P 1"
_space_group_IT_number       1

loop_
  _space_group_symop_operation_xyz
  'x, y, z'

loop_
  _atom_site_type_symbol
  _atom_site_label
  _atom_site_symmetry_multiplicity
  _atom_site_fract_x
  _atom_site_fract_y
  _atom_site_fract_z
  _atom_site_occupancy
  Mo  Mo1       1.0  0.25000004463009606  0.25000002807338956  0.2499998625940571  1.0000
  Mo  Mo2       1.0  0.7500000834111966  0.7499998445226693  0.7499997780348173  1.0000
  Ru  Ru1       1.0  1.043026090773348e-08  2.2863818299537027e-16  2.6399916360274953e-08  1.0000
  Cl  Cl1       1.0  0.2512224085500045  0.25122249063014584  0.7487775915636317  1.0000
  Cl  Cl2       1.0  0.7487775400135822  0.7487775866307044  0.2512225242467086  1.0000
  Cl  Cl3       1.0  0.7487775556407603  0.25122241007908114  0.25122249134678726  1.0000
  Cl  Cl4       1.0  0.25122245159084533  0.7487775381138845  0.7487776280484388  1.0000
  Cl  Cl5       1.0  0.2512223726809417  0.7487775826059369  0.251222494868885  1.0000
  Cl  Cl6       1.0  0.7487775379366143  0.25122250940552854  0.7487776114624651  1.0000
