data_image0
_chemical_formula_structural       Mo2SBr6
_chemical_formula_sum              "Mo2 S1 Br6"
_cell_length_a       6.943409928779157
_cell_length_b       6.943409612051094
_cell_length_c       6.943409734098771
_cell_angle_alpha    59.99999958943453
_cell_angle_beta     60.00000101622155
_cell_angle_gamma    59.9999993413173

_space_group_name_H-M_alt    "P 1"
_space_group_IT_number       1

loop_
  _space_group_symop_operation_xyz
  'x, y, z'

loop_
  _atom_site_type_symbol
  _atom_site_label
  _atom_site_symmetry_multiplicity
  _atom_site_fract_x
  _atom_site_fract_y
  _atom_site_fract_z
  _atom_site_occupancy
  Mo  Mo1       1.0  0.2500000618167593  0.2500000282909465  0.24999990977475087  1.0000
  Mo  Mo2       1.0  0.7499999389203204  0.750000106039585  0.7499999932283904  1.0000
  S   S1        1.0  0.9999999989249486  0.9999999982361045  1.8702048465949687e-08  1.0000
  Br  Br1       1.0  0.25792828822575403  0.2579283582978155  0.7420716420888288  1.0000
  Br  Br2       1.0  0.7420716916674988  0.7420716190460181  0.25792833974807255  1.0000
  Br  Br3       1.0  0.742071640898626  0.25792827925757006  0.25792838742004753  1.0000
  Br  Br4       1.0  0.25792837590093537  0.7420716522249812  0.7420716593833535  1.0000
  Br  Br5       1.0  0.25792836094391186  0.7420716708522279  0.25792835782457596  1.0000
  Br  Br6       1.0  0.7420716410729502  0.25792828003317353  0.7420717068317537  1.0000
