data_image0
_chemical_formula_structural       Mo2SCl6
_chemical_formula_sum              "Mo2 S1 Cl6"
_cell_length_a       6.70189602909029
_cell_length_b       6.701895729814333
_cell_length_c       6.701896082859634
_cell_angle_alpha    59.99999761659995
_cell_angle_beta     59.99999648737571
_cell_angle_gamma    59.999998719057004

_space_group_name_H-M_alt    "P 1"
_space_group_IT_number       1

loop_
  _space_group_symop_operation_xyz
  'x, y, z'

loop_
  _atom_site_type_symbol
  _atom_site_label
  _atom_site_symmetry_multiplicity
  _atom_site_fract_x
  _atom_site_fract_y
  _atom_site_fract_z
  _atom_site_occupancy
  Mo  Mo1       1.0  0.25000002906606517  0.24999986800743335  0.25000025429216965  1.0000
  Mo  Mo2       1.0  0.7500001833486365  0.7499998324548491  0.7500003334964168  1.0000
  S   S1        1.0  1.945705293873443e-08  3.6549201239427177e-09  0.9999998019296319  1.0000
  Cl  Cl1       1.0  0.24910568299009164  0.24910568499051558  0.7508942112758489  1.0000
  Cl  Cl2       1.0  0.7508941915120195  0.7508943882736779  0.2491055025940459  1.0000
  Cl  Cl3       1.0  0.7508942527787642  0.24910573279008844  0.24910565528057038  1.0000
  Cl  Cl4       1.0  0.2491055404103184  0.7508945689066545  0.7508942849446896  1.0000
  Cl  Cl5       1.0  0.2491056887034103  0.7508942301419655  0.24910572687670796  1.0000
  Cl  Cl6       1.0  0.7508944055027565  0.2491057060627031  0.7508942411096963  1.0000
