data_image0
_chemical_formula_structural       Mo2SI6
_chemical_formula_sum              "Mo2 S1 I6"
_cell_length_a       7.538771492980291
_cell_length_b       7.53877124222862
_cell_length_c       7.538771286478014
_cell_angle_alpha    59.99999975833069
_cell_angle_beta     59.999999803487235
_cell_angle_gamma    59.99999914559118

_space_group_name_H-M_alt    "P 1"
_space_group_IT_number       1

loop_
  _space_group_symop_operation_xyz
  'x, y, z'

loop_
  _atom_site_type_symbol
  _atom_site_label
  _atom_site_symmetry_multiplicity
  _atom_site_fract_x
  _atom_site_fract_y
  _atom_site_fract_z
  _atom_site_occupancy
  Mo  Mo1       1.0  0.2499999780211436  0.2499999924826187  0.250000002860096  1.0000
  Mo  Mo2       1.0  0.7499999966606525  0.7500000148135372  0.7499999891077866  1.0000
  S   S1        1.0  2.5218335168437825e-09  1.6245948713469022e-09  9.865070762049468e-09  1.0000
  I   I1        1.0  0.2653681180948315  0.26536806515804123  0.7346319131665013  1.0000
  I   I2        1.0  0.7346319013614679  0.7346319502610886  0.2653680775556885  1.0000
  I   I3        1.0  0.7346319364378199  0.26536810087089946  0.26536806241213995  1.0000
  I   I4        1.0  0.2653681045868326  0.7346318544382215  0.7346319144189749  1.0000
  I   I5        1.0  0.2653680788054897  0.7346319014735566  0.26536813578970814  1.0000
  I   I6        1.0  0.7346318926271164  0.2653681155701684  0.7346318847644118  1.0000
