data_image0
_chemical_formula_structural       N2CCl6
_chemical_formula_sum              "N2 C1 Cl6"
_cell_length_a       8.035712473638505
_cell_length_b       8.035891199737897
_cell_length_c       8.03582323116084
_cell_angle_alpha    59.97600198639725
_cell_angle_beta     59.980860347077204
_cell_angle_gamma    59.976374610635546

_space_group_name_H-M_alt    "P 1"
_space_group_IT_number       1

loop_
  _space_group_symop_operation_xyz
  'x, y, z'

loop_
  _atom_site_type_symbol
  _atom_site_label
  _atom_site_symmetry_multiplicity
  _atom_site_fract_x
  _atom_site_fract_y
  _atom_site_fract_z
  _atom_site_occupancy
  N   N1        1.0  0.2542136901653519  0.2538353551551082  0.2541331891122178  1.0000
  N   N2        1.0  0.7531740939941132  0.7527677730679291  0.7530565196426183  1.0000
  C   C1        1.0  0.9831147316080721  0.9834049961767536  0.9831484706634707  1.0000
  Cl  Cl1       1.0  0.18129320793728146  0.18065661139587566  0.8205842591894373  1.0000
  Cl  Cl2       1.0  0.8258127905252802  0.8266164177793818  0.17473684190946356  1.0000
  Cl  Cl3       1.0  0.8208566235934361  0.1809265758641929  0.18107817417353073  1.0000
  Cl  Cl4       1.0  0.17461832800717086  0.8265236208420427  0.8259470186556782  1.0000
  Cl  Cl5       1.0  0.1808968454027798  0.8199381724033418  0.1810265211883666  1.0000
  Cl  Cl6       1.0  0.8260195742772556  0.17533073797576595  0.8262890972238273  1.0000
