data_image0
_chemical_formula_structural       N2CF6
_chemical_formula_sum              "N2 C1 F6"
_cell_length_a       4.998836910955953
_cell_length_b       4.998780075701713
_cell_length_c       4.998860536898311
_cell_angle_alpha    59.99962007375915
_cell_angle_beta     59.999773315544665
_cell_angle_gamma    59.99985546228348

_space_group_name_H-M_alt    "P 1"
_space_group_IT_number       1

loop_
  _space_group_symop_operation_xyz
  'x, y, z'

loop_
  _atom_site_type_symbol
  _atom_site_label
  _atom_site_symmetry_multiplicity
  _atom_site_fract_x
  _atom_site_fract_y
  _atom_site_fract_z
  _atom_site_occupancy
  N   N1        1.0  0.250001806185893  0.24999516507637715  0.2500047446633889  1.0000
  N   N2        1.0  0.7499911479940533  0.7499961040970544  0.7500090212526481  1.0000
  C   C1        1.0  1.0596066086670246e-05  1.6055507688526918e-05  0.9999769560112782  1.0000
  F   F1        1.0  0.2192470369642063  0.21925767553678144  0.7807488668182389  1.0000
  F   F2        1.0  0.7807362988659319  0.7807345907856278  0.21926345839379485  1.0000
  F   F3        1.0  0.7807442845857695  0.2192575558401359  0.2192591275906892  1.0000
  F   F4        1.0  0.2192535683478247  0.7807376237031405  0.7807491375156781  1.0000
  F   F5        1.0  0.2192560430384277  0.7807391619164878  0.21925343079265203  1.0000
  F   F6        1.0  0.7807587876091789  0.21925522874175693  0.7807439472528689  1.0000
