data_image0
_chemical_formula_structural       Na2AsF6
_chemical_formula_sum              "Na2 As1 F6"
_cell_length_a       5.65811618085528
_cell_length_b       5.65811626835361
_cell_length_c       5.658116374982978
_cell_angle_alpha    59.99999810075507
_cell_angle_beta     59.99999780309546
_cell_angle_gamma    60.000001720476774

_space_group_name_H-M_alt    "P 1"
_space_group_IT_number       1

loop_
  _space_group_symop_operation_xyz
  'x, y, z'

loop_
  _atom_site_type_symbol
  _atom_site_label
  _atom_site_symmetry_multiplicity
  _atom_site_fract_x
  _atom_site_fract_y
  _atom_site_fract_z
  _atom_site_occupancy
  Na  Na1       1.0  0.2500000057369378  0.24999994862745958  0.2500000647958621  1.0000
  Na  Na2       1.0  0.7499999562099418  0.7500000839862458  0.7499999962589841  1.0000
  As  As1       1.0  0.9999999901462128  1.7316644091498154e-08  4.575500502438461e-08  1.0000
  F   F1        1.0  0.23821680855532218  0.2382168016913994  0.7617831650439537  1.0000
  F   F2        1.0  0.761783281632184  0.7617831768077957  0.23821675644022158  1.0000
  F   F3        1.0  0.7617830965336376  0.2382169053486759  0.23821691535961056  1.0000
  F   F4        1.0  0.23821701954751592  0.7617829281236187  0.761783086899664  1.0000
  F   F5        1.0  0.2382168490742524  0.7617830461533053  0.23821697137539974  1.0000
  F   F6        1.0  0.7617829933928794  0.23821704490407392  0.7617830335962251  1.0000
