data_image0
_chemical_formula_structural       Na2AsBr6
_chemical_formula_sum              "Na2 As1 Br6"
_cell_length_a       7.395933483629779
_cell_length_b       7.39593351879002
_cell_length_c       7.395933626000305
_cell_angle_alpha    60.00000072149834
_cell_angle_beta     59.99999957178289
_cell_angle_gamma    60.000000843064015

_space_group_name_H-M_alt    "P 1"
_space_group_IT_number       1

loop_
  _space_group_symop_operation_xyz
  'x, y, z'

loop_
  _atom_site_type_symbol
  _atom_site_label
  _atom_site_symmetry_multiplicity
  _atom_site_fract_x
  _atom_site_fract_y
  _atom_site_fract_z
  _atom_site_occupancy
  Na  Na1       1.0  0.25000002268328025  0.2500000302007573  0.2499999690550818  1.0000
  Na  Na2       1.0  0.7500000014999724  0.7500000326433004  0.7500000059262121  1.0000
  As  As1       1.0  1.6968243253355408e-08  3.8087324722809596e-08  1.033085792431815e-08  1.0000
  Br  Br1       1.0  0.2500946983067823  0.25009470514285287  0.7499053393388502  1.0000
  Br  Br2       1.0  0.7499052730154016  0.7499052914623807  0.25009476009291776  1.0000
  Br  Br3       1.0  0.7499052893709373  0.2500946847573305  0.2500946806365517  1.0000
  Br  Br4       1.0  0.25009475695691863  0.7499051992418996  0.7499052685835882  1.0000
  Br  Br5       1.0  0.25009470913830406  0.7499052739734248  0.2500947177522749  1.0000
  Br  Br6       1.0  0.7499052398526501  0.25009474747136623  0.7499052506242726  1.0000
