data_image0
_chemical_formula_structural       Na2AsCl6
_chemical_formula_sum              "Na2 As1 Cl6"
_cell_length_a       6.899527531151595
_cell_length_b       6.899527479401849
_cell_length_c       6.899527510858154
_cell_angle_alpha    59.99999978187112
_cell_angle_beta     60.000000687136406
_cell_angle_gamma    60.00000024552695

_space_group_name_H-M_alt    "P 1"
_space_group_IT_number       1

loop_
  _space_group_symop_operation_xyz
  'x, y, z'

loop_
  _atom_site_type_symbol
  _atom_site_label
  _atom_site_symmetry_multiplicity
  _atom_site_fract_x
  _atom_site_fract_y
  _atom_site_fract_z
  _atom_site_occupancy
  Na  Na1       1.0  0.24999997566705692  0.2500000181475245  0.2500000235843288  1.0000
  Na  Na2       1.0  0.7500000223641595  0.749999939060155  0.7500000343827143  1.0000
  As  As1       1.0  1.203479552600221e-07  0.9999999201198642  6.672856749446088e-08  1.0000
  Cl  Cl1       1.0  0.24777925736836068  0.24777912519586787  0.7522207834832462  1.0000
  Cl  Cl2       1.0  0.7522207766379034  0.7522207592321326  0.24777923491112844  1.0000
  Cl  Cl3       1.0  0.7522208381424501  0.24777912980785166  0.2477792073022549  1.0000
  Cl  Cl4       1.0  0.24777912301745228  0.7522209179306485  0.7522208803606445  1.0000
  Cl  Cl5       1.0  0.24777912937209878  0.7522208999136457  0.247779034989303  1.0000
  Cl  Cl6       1.0  0.752220739653061  0.24777929870955637  0.7522207464680654  1.0000
