data_image0
_chemical_formula_structural       Na2AsI6
_chemical_formula_sum              "Na2 As1 I6"
_cell_length_a       7.9944938176635665
_cell_length_b       7.994493809709815
_cell_length_c       7.994493700205403
_cell_angle_alpha    60.00000022969477
_cell_angle_beta     60.0000001881307
_cell_angle_gamma    59.999998955454735

_space_group_name_H-M_alt    "P 1"
_space_group_IT_number       1

loop_
  _space_group_symop_operation_xyz
  'x, y, z'

loop_
  _atom_site_type_symbol
  _atom_site_label
  _atom_site_symmetry_multiplicity
  _atom_site_fract_x
  _atom_site_fract_y
  _atom_site_fract_z
  _atom_site_occupancy
  Na  Na1       1.0  0.25000008701766235  0.2499999711675622  0.2499999261294705  1.0000
  Na  Na2       1.0  0.7499999342298508  0.7500000100177784  0.7500000686629675  1.0000
  As  As1       1.0  0.999999999211458  4.136360899669803e-08  0.9999999809633274  1.0000
  I   I1        1.0  0.2514719636579741  0.25147191438610267  0.7485280674666979  1.0000
  I   I2        1.0  0.7485280246894311  0.7485281005029196  0.2514719356799799  1.0000
  I   I3        1.0  0.7485280616494205  0.2514719203748302  0.25147192308534966  1.0000
  I   I4        1.0  0.2514719530621369  0.7485280500866118  0.7485280803370155  1.0000
  I   I5        1.0  0.25147194385999133  0.7485280691698102  0.2514719278761149  1.0000
  I   I6        1.0  0.7485280319261647  0.2514719227394297  0.7485280917902178  1.0000
