data_image0
_chemical_formula_structural       Na2BiBr6
_chemical_formula_sum              "Na2 Bi1 Br6"
_cell_length_a       7.629520912035423
_cell_length_b       7.629520999501691
_cell_length_c       7.629520903396024
_cell_angle_alpha    60.00000002708948
_cell_angle_beta     59.99999950180365
_cell_angle_gamma    59.999999540729796

_space_group_name_H-M_alt    "P 1"
_space_group_IT_number       1

loop_
  _space_group_symop_operation_xyz
  'x, y, z'

loop_
  _atom_site_type_symbol
  _atom_site_label
  _atom_site_symmetry_multiplicity
  _atom_site_fract_x
  _atom_site_fract_y
  _atom_site_fract_z
  _atom_site_occupancy
  Na  Na1       1.0  0.2499999730794233  0.2500000432602722  0.2500000016557245  1.0000
  Na  Na2       1.0  0.7500000253513172  0.749999988516969  0.7499999884644182  1.0000
  Bi  Bi1       1.0  2.0561599411307695e-08  6.421083982569262e-09  0.9999999170416488  1.0000
  Br  Br1       1.0  0.2612781944801586  0.26127825697488205  0.738721777243138  1.0000
  Br  Br2       1.0  0.7387217584548541  0.7387217796181724  0.26127821879928076  1.0000
  Br  Br3       1.0  0.7387217898189432  0.26127820785722344  0.2612782249005967  1.0000
  Br  Br4       1.0  0.2612781905420358  0.7387218191042049  0.7387217766623333  1.0000
  Br  Br5       1.0  0.26127823595733496  0.7387217496145707  0.2612782708006784  1.0000
  Br  Br6       1.0  0.7387218117777721  0.261278156951533  0.738721812322178  1.0000
