data_image0
_chemical_formula_structural       Na2BiI6
_chemical_formula_sum              "Na2 Bi1 I6"
_cell_length_a       8.260263750002396
_cell_length_b       8.260263825184843
_cell_length_c       8.260263609943427
_cell_angle_alpha    60.00000084858425
_cell_angle_beta     60.00000092193945
_cell_angle_gamma    59.999998529281235

_space_group_name_H-M_alt    "P 1"
_space_group_IT_number       1

loop_
  _space_group_symop_operation_xyz
  'x, y, z'

loop_
  _atom_site_type_symbol
  _atom_site_label
  _atom_site_symmetry_multiplicity
  _atom_site_fract_x
  _atom_site_fract_y
  _atom_site_fract_z
  _atom_site_occupancy
  Na  Na1       1.0  0.2500000016098825  0.2500000041480972  0.25000000080782914  1.0000
  Na  Na2       1.0  0.7499999828581663  0.7500000406154899  0.7499999847962474  1.0000
  Bi  Bi1       1.0  0.9999999903115615  1.1713287488290399e-07  0.9999999474883969  1.0000
  I   I1        1.0  0.26153930154912935  0.26153930228430916  0.738460708462226  1.0000
  I   I2        1.0  0.738460659142605  0.7384606208983201  0.26153934739925616  1.0000
  I   I3        1.0  0.7384607416715411  0.2615392447922866  0.2615392812354674  1.0000
  I   I4        1.0  0.2615392707981136  0.7384607243538746  0.738460694279296  1.0000
  I   I5        1.0  0.2615392893955629  0.7384606969057331  0.26153931144313053  1.0000
  I   I6        1.0  0.7384607579512923  0.2615392514827024  0.738460723595727  1.0000
