data_image0
_chemical_formula_structural       Na2BiCl6
_chemical_formula_sum              "Na2 Bi1 Cl6"
_cell_length_a       7.205751868687133
_cell_length_b       7.205751612335093
_cell_length_c       7.205751945024261
_cell_angle_alpha    59.99999875053095
_cell_angle_beta     59.99999837221131
_cell_angle_gamma    60.00000082843664

_space_group_name_H-M_alt    "P 1"
_space_group_IT_number       1

loop_
  _space_group_symop_operation_xyz
  'x, y, z'

loop_
  _atom_site_type_symbol
  _atom_site_label
  _atom_site_symmetry_multiplicity
  _atom_site_fract_x
  _atom_site_fract_y
  _atom_site_fract_z
  _atom_site_occupancy
  Na  Na1       1.0  0.25000001553156787  0.2499999821383769  0.25000003084686906  1.0000
  Na  Na2       1.0  0.7499999766192021  0.7500000025044625  0.7500000370335832  1.0000
  Bi  Bi1       1.0  0.9999999034157651  0.9999999388116336  1.8158203754159702e-07  1.0000
  Cl  Cl1       1.0  0.25746617167234154  0.2574661803773561  0.7425338338230426  1.0000
  Cl  Cl2       1.0  0.7425338750901309  0.7425339096454461  0.2574661387959942  1.0000
  Cl  Cl3       1.0  0.7425338393782479  0.25746618266271115  0.25746624703089815  1.0000
  Cl  Cl4       1.0  0.25746633260755913  0.7425336711050186  0.7425336395504235  1.0000
  Cl  Cl5       1.0  0.2574662186750573  0.7425337624179194  0.2574662926348888  1.0000
  Cl  Cl6       1.0  0.7425336778106507  0.25746636499776715  0.7425336031991887  1.0000
