data_image0
_chemical_formula_structural       Na2BiF6
_chemical_formula_sum              "Na2 Bi1 F6"
_cell_length_a       6.007220805830452
_cell_length_b       6.007220605882607
_cell_length_c       6.007220265265089
_cell_angle_alpha    60.000002161080644
_cell_angle_beta     59.99999851673163
_cell_angle_gamma    59.99999845157608

_space_group_name_H-M_alt    "P 1"
_space_group_IT_number       1

loop_
  _space_group_symop_operation_xyz
  'x, y, z'

loop_
  _atom_site_type_symbol
  _atom_site_label
  _atom_site_symmetry_multiplicity
  _atom_site_fract_x
  _atom_site_fract_y
  _atom_site_fract_z
  _atom_site_occupancy
  Na  Na1       1.0  0.24999994308558485  0.249999951817491  0.2500000209176288  1.0000
  Na  Na2       1.0  0.7499999913766648  0.7500000899130774  0.7499999776597386  1.0000
  Bi  Bi1       1.0  5.533362843865662e-09  1.2232726894025091e-08  0.9999999794643109  1.0000
  F   F1        1.0  0.25105887913088254  0.25105878389545994  0.7489411863242604  1.0000
  F   F2        1.0  0.7489411244335269  0.7489412292920773  0.2510588219374822  1.0000
  F   F3        1.0  0.7489411965981052  0.25105882360615495  0.2510587878738128  1.0000
  F   F4        1.0  0.25105880799569924  0.7489411691935044  0.748941270019094  1.0000
  F   F5        1.0  0.25105887172268443  0.7489411143383643  0.2510587878431892  1.0000
  F   F6        1.0  0.7489412520867702  0.25105880914250334  0.7489411735207558  1.0000
