data_image0
_chemical_formula_structural       Na2GaBr6
_chemical_formula_sum              "Na2 Ga1 Br6"
_cell_length_a       7.219064933146556
_cell_length_b       7.219065091600451
_cell_length_c       7.219064897757447
_cell_angle_alpha    59.99999966749987
_cell_angle_beta     60.000001306573246
_cell_angle_gamma    60.00000235059895

_space_group_name_H-M_alt    "P 1"
_space_group_IT_number       1

loop_
  _space_group_symop_operation_xyz
  'x, y, z'

loop_
  _atom_site_type_symbol
  _atom_site_label
  _atom_site_symmetry_multiplicity
  _atom_site_fract_x
  _atom_site_fract_y
  _atom_site_fract_z
  _atom_site_occupancy
  Na  Na1       1.0  0.2500000217357125  0.24999998655850414  0.2499999750856809  1.0000
  Na  Na2       1.0  0.7500000041178284  0.7500000037856075  0.7499999988520337  1.0000
  Ga  Ga1       1.0  0.9999999409786954  4.7503177865120494e-08  1.5813336790061933e-07  1.0000
  Br  Br1       1.0  0.2491045052699844  0.24910451533329306  0.7508955037175121  1.0000
  Br  Br2       1.0  0.750895427052099  0.7508954868866118  0.2491045235150222  1.0000
  Br  Br3       1.0  0.750895456797896  0.2491045970685351  0.24910451733715633  1.0000
  Br  Br4       1.0  0.24910467785597987  0.7508953355931453  0.7508953493135713  1.0000
  Br  Br5       1.0  0.24910459735807008  0.7508954685547882  0.24910449957417452  1.0000
  Br  Br6       1.0  0.7508953629457821  0.24910463206456585  0.7508954464598778  1.0000
