data_image0
_chemical_formula_structural       Na2GaCl6
_chemical_formula_sum              "Na2 Ga1 Cl6"
_cell_length_a       6.8531236012466
_cell_length_b       6.853124002930282
_cell_length_c       6.853124015881957
_cell_angle_alpha    59.99999615956861
_cell_angle_beta     60.000002702432845
_cell_angle_gamma    60.00000437729641

_space_group_name_H-M_alt    "P 1"
_space_group_IT_number       1

loop_
  _space_group_symop_operation_xyz
  'x, y, z'

loop_
  _atom_site_type_symbol
  _atom_site_label
  _atom_site_symmetry_multiplicity
  _atom_site_fract_x
  _atom_site_fract_y
  _atom_site_fract_z
  _atom_site_occupancy
  Na  Na1       1.0  0.24999986364961882  0.2499999549935371  0.2500001073202135  1.0000
  Na  Na2       1.0  0.7500000993174799  0.7500000079513403  0.7499999393826255  1.0000
  Ga  Ga1       1.0  0.9999998989219846  0.9999999696187222  4.9678569966490966e-08  1.0000
  Cl  Cl1       1.0  0.24383992207225189  0.24384014980650273  0.7561599576127386  1.0000
  Cl  Cl2       1.0  0.7561600401588578  0.7561600579756953  0.24383994223322242  1.0000
  Cl  Cl3       1.0  0.7561600391852885  0.24383998813830035  0.2438400576245185  1.0000
  Cl  Cl4       1.0  0.2438401568797526  0.7561600034007262  0.7561599122222582  1.0000
  Cl  Cl5       1.0  0.243839884809713  0.7561599683244147  0.24384004913391966  1.0000
  Cl  Cl6       1.0  0.7561600535142743  0.2438399320707852  0.7561599784202077  1.0000
