data_image0
_chemical_formula_structural       Na2GaI6
_chemical_formula_sum              "Na2 Ga1 I6"
_cell_length_a       7.876420535022663
_cell_length_b       7.8764204957526935
_cell_length_c       7.876420507606546
_cell_angle_alpha    59.999999932915216
_cell_angle_beta     60.00000044215002
_cell_angle_gamma    60.00000008402725

_space_group_name_H-M_alt    "P 1"
_space_group_IT_number       1

loop_
  _space_group_symop_operation_xyz
  'x, y, z'

loop_
  _atom_site_type_symbol
  _atom_site_label
  _atom_site_symmetry_multiplicity
  _atom_site_fract_x
  _atom_site_fract_y
  _atom_site_fract_z
  _atom_site_occupancy
  Na  Na1       1.0  0.2499999932249636  0.2500000138186099  0.24999999785010832  1.0000
  Na  Na2       1.0  0.7499999973865991  0.7499999839226391  0.7500000033041684  1.0000
  Ga  Ga1       1.0  0.9999999805123269  0.9999999968900978  1.510762438868008e-08  1.0000
  I   I1        1.0  0.2504636773783924  0.250463674642855  0.7495363261491009  1.0000
  I   I2        1.0  0.7495363476325925  0.7495363386479051  0.2504636652660562  1.0000
  I   I3        1.0  0.7495363260888872  0.25046367571493494  0.25046366322364705  1.0000
  I   I4        1.0  0.2504636797901413  0.7495363158065097  0.7495363295979623  1.0000
  I   I5        1.0  0.2504636580640492  0.7495363320705922  0.2504636690292127  1.0000
  I   I6        1.0  0.7495363378932843  0.250463667225608  0.749536328674703  1.0000
