data_image0
_chemical_formula_structural       Na2GaF6
_chemical_formula_sum              "Na2 Ga1 F6"
_cell_length_a       5.640234094376165
_cell_length_b       5.640235663773765
_cell_length_c       5.640235714087959
_cell_angle_alpha    60.00000164765099
_cell_angle_beta     60.00000270909741
_cell_angle_gamma    60.00000604097419

_space_group_name_H-M_alt    "P 1"
_space_group_IT_number       1

loop_
  _space_group_symop_operation_xyz
  'x, y, z'

loop_
  _atom_site_type_symbol
  _atom_site_label
  _atom_site_symmetry_multiplicity
  _atom_site_fract_x
  _atom_site_fract_y
  _atom_site_fract_z
  _atom_site_occupancy
  Na  Na1       1.0  0.2499999343808969  0.25000000749400597  0.2500000687347214  1.0000
  Na  Na2       1.0  0.7500000121296007  0.749999942138647  0.7499999078496407  1.0000
  Ga  Ga1       1.0  3.3086051828670897e-08  5.428606584227644e-08  0.9999999421301407  1.0000
  F   F1        1.0  0.23866417588189215  0.23866413774835707  0.7613359566337696  1.0000
  F   F2        1.0  0.7613356814789248  0.7613358705132427  0.2386641788219712  1.0000
  F   F3        1.0  0.7613359129838213  0.2386641493602666  0.23866396394464476  1.0000
  F   F4        1.0  0.23866414775787534  0.7613358936444173  0.7613359779841606  1.0000
  F   F5        1.0  0.23866403328413502  0.7613360625898935  0.23866384280133573  1.0000
  F   F6        1.0  0.7613359874633117  0.2386640021292177  0.7613360586240623  1.0000
