data_image0
_chemical_formula_structural       Na2NF6
_chemical_formula_sum              "Na2 N1 F6"
_cell_length_a       5.184032637235268
_cell_length_b       5.184032770911095
_cell_length_c       5.184032681997273
_cell_angle_alpha    59.99999984897282
_cell_angle_beta     60.00000027591914
_cell_angle_gamma    59.99999995209059

_space_group_name_H-M_alt    "P 1"
_space_group_IT_number       1

loop_
  _space_group_symop_operation_xyz
  'x, y, z'

loop_
  _atom_site_type_symbol
  _atom_site_label
  _atom_site_symmetry_multiplicity
  _atom_site_fract_x
  _atom_site_fract_y
  _atom_site_fract_z
  _atom_site_occupancy
  Na  Na1       1.0  0.2500000073406833  0.2499999941569729  0.24999999297519648  1.0000
  Na  Na2       1.0  0.7500000239792366  0.7499999966461167  0.7499999882203989  1.0000
  N   N1        1.0  2.8033801641004072e-08  9.450132270551713e-09  0.999999958110031  1.0000
  F   F1        1.0  0.23304517175146802  0.23304512424529653  0.7669548494111033  1.0000
  F   F2        1.0  0.7669548044002927  0.7669548783704585  0.2330451669652398  1.0000
  F   F3        1.0  0.7669548426428295  0.23304511484302648  0.23304518578913183  1.0000
  F   F4        1.0  0.23304513679409086  0.7669548712349973  0.7669548430004978  1.0000
  F   F5        1.0  0.23304513286855694  0.7669548672658952  0.2330451766612395  1.0000
  F   F6        1.0  0.7669548590102425  0.23304512826226031  0.7669548585433864  1.0000
