data_image0
_chemical_formula_structural       Na2SbI6
_chemical_formula_sum              "Na2 Sb1 I6"
_cell_length_a       8.164770248241782
_cell_length_b       8.16477033231777
_cell_length_c       8.164770672209066
_cell_angle_alpha    59.99999766783011
_cell_angle_beta     59.99999956428198
_cell_angle_gamma    60.000001557895814

_space_group_name_H-M_alt    "P 1"
_space_group_IT_number       1

loop_
  _space_group_symop_operation_xyz
  'x, y, z'

loop_
  _atom_site_type_symbol
  _atom_site_label
  _atom_site_symmetry_multiplicity
  _atom_site_fract_x
  _atom_site_fract_y
  _atom_site_fract_z
  _atom_site_occupancy
  Na  Na1       1.0  0.24999999062487172  0.2499999740111741  0.2500000849145259  1.0000
  Na  Na2       1.0  0.7499999894435764  0.75000003903633  0.7499999082091879  1.0000
  Sb  Sb1       1.0  0.9999998710755561  0.9999999624990974  1.1260725171490624e-07  1.0000
  I   I1        1.0  0.25851831419191307  0.2585183299916901  0.7414816537808381  1.0000
  I   I2        1.0  0.741481840941696  0.7414817730579754  0.25851820558444133  1.0000
  I   I3        1.0  0.7414817042680042  0.2585182986537642  0.2585182879137088  1.0000
  I   I4        1.0  0.25851829164396745  0.7414816498921952  0.7414817270894679  1.0000
  I   I5        1.0  0.2585182858526481  0.7414816994619703  0.2585182787537375  1.0000
  I   I6        1.0  0.7414817115446413  0.25851827008449196  0.7414817421533666  1.0000
