data_image0
_chemical_formula_structural       Na2SbCl6
_chemical_formula_sum              "Na2 Sb1 Cl6"
_cell_length_a       7.072453715313266
_cell_length_b       7.072453878232174
_cell_length_c       7.072453850451835
_cell_angle_alpha    59.99999895386272
_cell_angle_beta     60.000000244616075
_cell_angle_gamma    60.000001254151904

_space_group_name_H-M_alt    "P 1"
_space_group_IT_number       1

loop_
  _space_group_symop_operation_xyz
  'x, y, z'

loop_
  _atom_site_type_symbol
  _atom_site_label
  _atom_site_symmetry_multiplicity
  _atom_site_fract_x
  _atom_site_fract_y
  _atom_site_fract_z
  _atom_site_occupancy
  Na  Na1       1.0  0.2500000407776779  0.24999999264907663  0.24999997915420133  1.0000
  Na  Na2       1.0  0.7499999775033225  0.7499999814106504  0.7500000265269219  1.0000
  Sb  Sb1       1.0  0.9999999457426253  0.9999999913414422  3.852764801456961e-08  1.0000
  Cl  Cl1       1.0  0.24934510480254327  0.24934519134656258  0.7506548413998493  1.0000
  Cl  Cl2       1.0  0.7506549612362104  0.750654903932961  0.24934506423919747  1.0000
  Cl  Cl3       1.0  0.7506547179295924  0.24934523785589693  0.24934522132160117  1.0000
  Cl  Cl4       1.0  0.2493451787412898  0.7506547777649007  0.7506548215561716  1.0000
  Cl  Cl5       1.0  0.24934519524598325  0.750654798231211  0.24934513248533371  1.0000
  Cl  Cl6       1.0  0.7506548783818114  0.24934512734059847  0.7506548796639066  1.0000
