data_image0
_chemical_formula_structural       Na2SbBr6
_chemical_formula_sum              "Na2 Sb1 Br6"
_cell_length_a       7.4823839339621765
_cell_length_b       7.482383655382101
_cell_length_c       7.482383797731263
_cell_angle_alpha    60.000000714974604
_cell_angle_beta     60.00000018930306
_cell_angle_gamma    59.99999910453226

_space_group_name_H-M_alt    "P 1"
_space_group_IT_number       1

loop_
  _space_group_symop_operation_xyz
  'x, y, z'

loop_
  _atom_site_type_symbol
  _atom_site_label
  _atom_site_symmetry_multiplicity
  _atom_site_fract_x
  _atom_site_fract_y
  _atom_site_fract_z
  _atom_site_occupancy
  Na  Na1       1.0  0.24999998888177094  0.24999997884226127  0.2500000380963031  1.0000
  Na  Na2       1.0  0.7500000185211814  0.7500000216423491  0.7499999335295049  1.0000
  Sb  Sb1       1.0  0.9999998099506173  0.9999999312528113  7.727585906895256e-08  1.0000
  Br  Br1       1.0  0.25535433139167163  0.2553542769252955  0.7446457046244022  1.0000
  Br  Br2       1.0  0.7446457671845598  0.7446458250432609  0.2553542067575509  1.0000
  Br  Br3       1.0  0.7446457863259827  0.2553541741695719  0.2553542363770743  1.0000
  Br  Br4       1.0  0.255354200546976  0.7446458508676073  0.7446457813504558  1.0000
  Br  Br5       1.0  0.25535426809795725  0.7446457608056776  0.25535423139116276  1.0000
  Br  Br6       1.0  0.7446458295770322  0.2553541725685818  0.7446457914680078  1.0000
