data_image0
_chemical_formula_structural       Na2SbF6
_chemical_formula_sum              "Na2 Sb1 F6"
_cell_length_a       5.894633843699319
_cell_length_b       5.894634178203426
_cell_length_c       5.894633922111686
_cell_angle_alpha    59.99999953261813
_cell_angle_beta     59.999998928866646
_cell_angle_gamma    59.99999905196664

_space_group_name_H-M_alt    "P 1"
_space_group_IT_number       1

loop_
  _space_group_symop_operation_xyz
  'x, y, z'

loop_
  _atom_site_type_symbol
  _atom_site_label
  _atom_site_symmetry_multiplicity
  _atom_site_fract_x
  _atom_site_fract_y
  _atom_site_fract_z
  _atom_site_occupancy
  Na  Na1       1.0  0.2499999897076989  0.24999992800902776  0.2500000107249029  1.0000
  Na  Na2       1.0  0.7500000474552627  0.750000025043572  0.7500000099134911  1.0000
  Sb  Sb1       1.0  2.857211526359784e-08  8.310912666304365e-09  1.9159840709214506e-09  1.0000
  F   F1        1.0  0.242785221142754  0.24278526643051104  0.7572147936140969  1.0000
  F   F2        1.0  0.7572147650276133  0.7572147925862374  0.24278518596685308  1.0000
  F   F3        1.0  0.7572147519523494  0.24278531887077565  0.24278509356618871  1.0000
  F   F4        1.0  0.24278526374075104  0.7572146985914072  0.7572147563140228  1.0000
  F   F5        1.0  0.24278521128348696  0.7572147188598938  0.2427852641356252  1.0000
  F   F6        1.0  0.757214707968531  0.24278528821364576  0.7572148003229782  1.0000
