data_image0
_chemical_formula_structural       Na2YBr6
_chemical_formula_sum              "Na2 Y1 Br6"
_cell_length_a       7.677962382117788
_cell_length_b       7.677962293061598
_cell_length_c       7.677962495049273
_cell_angle_alpha    60.00000164537569
_cell_angle_beta     60.00000009764726
_cell_angle_gamma    60.000002166829624

_space_group_name_H-M_alt    "P 1"
_space_group_IT_number       1

loop_
  _space_group_symop_operation_xyz
  'x, y, z'

loop_
  _atom_site_type_symbol
  _atom_site_label
  _atom_site_symmetry_multiplicity
  _atom_site_fract_x
  _atom_site_fract_y
  _atom_site_fract_z
  _atom_site_occupancy
  Na  Na1       1.0  0.2499999763720478  0.24999998460807624  0.25000002829391776  1.0000
  Na  Na2       1.0  0.7499999891502257  0.7500000128445223  0.7499999706525542  1.0000
  Y   Y1        1.0  0.9999998566875579  0.9999999968097056  0.9999998557457466  1.0000
  Br  Br1       1.0  0.2545893066297703  0.2545893138166666  0.7454106573129498  1.0000
  Br  Br2       1.0  0.7454108349547934  0.7454108096522372  0.254589137194644  1.0000
  Br  Br3       1.0  0.745410686497292  0.2545892759370904  0.2545892755247246  1.0000
  Br  Br4       1.0  0.2545891607004295  0.7454108012726625  0.7454108260608946  1.0000
  Br  Br5       1.0  0.25458934363588703  0.7454106543670735  0.254589361284539  1.0000
  Br  Br6       1.0  0.7454108476744743  0.2545891484780799  0.7454108890695267  1.0000
