data_image0
_chemical_formula_structural       Na2YI6
_chemical_formula_sum              "Na2 Y1 I6"
_cell_length_a       8.302383148336256
_cell_length_b       8.30238316768073
_cell_length_c       8.302382681827172
_cell_angle_alpha    60.000002840253025
_cell_angle_beta     60.00000193778166
_cell_angle_gamma    59.99999745114027

_space_group_name_H-M_alt    "P 1"
_space_group_IT_number       1

loop_
  _space_group_symop_operation_xyz
  'x, y, z'

loop_
  _atom_site_type_symbol
  _atom_site_label
  _atom_site_symmetry_multiplicity
  _atom_site_fract_x
  _atom_site_fract_y
  _atom_site_fract_z
  _atom_site_occupancy
  Na  Na1       1.0  0.25000001160635826  0.25000005898640154  0.24999996163383587  1.0000
  Na  Na2       1.0  0.7499999820842511  0.7499999763357272  0.7500000079672363  1.0000
  Y   Y1        1.0  2.888393788800791e-08  0.9999999926241352  0.9999999711788609  1.0000
  I   I1        1.0  0.255751447596276  0.25575150219788656  0.7442485400329462  1.0000
  I   I2        1.0  0.7442485183915297  0.7442484785428558  0.2557514960041644  1.0000
  I   I3        1.0  0.7442486044579397  0.2557514448069111  0.2557514070546144  1.0000
  I   I4        1.0  0.2557513899774939  0.7442485757634916  0.7442486092975346  1.0000
  I   I5        1.0  0.25575138296330857  0.7442485413974268  0.2557514737583549  1.0000
  I   I6        1.0  0.7442486318714452  0.2557514304922772  0.7442485314405393  1.0000
