data_image0
_chemical_formula_structural       Na2YF6
_chemical_formula_sum              "Na2 Y1 F6"
_cell_length_a       5.971738988203139
_cell_length_b       5.971739169432429
_cell_length_c       5.971737847516488
_cell_angle_alpha    60.00000907366157
_cell_angle_beta     60.000010788180504
_cell_angle_gamma    60.00000753142303

_space_group_name_H-M_alt    "P 1"
_space_group_IT_number       1

loop_
  _space_group_symop_operation_xyz
  'x, y, z'

loop_
  _atom_site_type_symbol
  _atom_site_label
  _atom_site_symmetry_multiplicity
  _atom_site_fract_x
  _atom_site_fract_y
  _atom_site_fract_z
  _atom_site_occupancy
  Na  Na1       1.0  0.2500000448179593  0.25000004648679075  0.24999997719311967  1.0000
  Na  Na2       1.0  0.7499999656469348  0.7499999671846624  0.7499999681563239  1.0000
  Y   Y1        1.0  0.9999999800774528  3.0763519172046175e-08  7.9759490571558e-09  1.0000
  F   F1        1.0  0.25452537093977207  0.25452547654108004  0.7454746053866934  1.0000
  F   F2        1.0  0.7454745502841877  0.7454746540317461  0.2545254416767842  1.0000
  F   F3        1.0  0.7454745034206474  0.25452530945519647  0.25452545042468694  1.0000
  F   F4        1.0  0.2545254513617333  0.745474616027501  0.7454745852804865  1.0000
  F   F5        1.0  0.2545254873347118  0.7454745345884197  0.25452533414022493  1.0000
  F   F6        1.0  0.7454746374677811  0.2545254319123047  0.7454745525074705  1.0000
