data_image0
_chemical_formula_structural       Na2YCl6
_chemical_formula_sum              "Na2 Y1 Cl6"
_cell_length_a       7.2424473707413215
_cell_length_b       7.242447155267252
_cell_length_c       7.242447884384601
_cell_angle_alpha    59.99998970504772
_cell_angle_beta     59.999997934042646
_cell_angle_gamma    59.99999691625598

_space_group_name_H-M_alt    "P 1"
_space_group_IT_number       1

loop_
  _space_group_symop_operation_xyz
  'x, y, z'

loop_
  _atom_site_type_symbol
  _atom_site_label
  _atom_site_symmetry_multiplicity
  _atom_site_fract_x
  _atom_site_fract_y
  _atom_site_fract_z
  _atom_site_occupancy
  Na  Na1       1.0  0.25000011944714884  0.25000000931047844  0.24999998068016893  1.0000
  Na  Na2       1.0  0.749999953666349  0.7500000127118475  0.7500000056284947  1.0000
  Y   Y1        1.0  3.618650967014328e-08  2.536598459407691e-08  0.9999998932825769  1.0000
  Cl  Cl1       1.0  0.2533913814875358  0.2533916576265206  0.7466086313455549  1.0000
  Cl  Cl2       1.0  0.7466084211802676  0.746608472623961  0.25339150234780633  1.0000
  Cl  Cl3       1.0  0.7466085503669209  0.25339138749081086  0.25339162490156647  1.0000
  Cl  Cl4       1.0  0.2533914862727722  0.746608456969674  0.7466084504751973  1.0000
  Cl  Cl5       1.0  0.25339147644575316  0.746608444010053  0.2533914533344575  1.0000
  Cl  Cl6       1.0  0.7466085704341923  0.2533915323535212  0.7466084653642133  1.0000
