data_image0
_chemical_formula_structural       Nb2AsO6
_chemical_formula_sum              "Nb2 As1 O6"
_cell_length_a       4.9847149151054255
_cell_length_b       4.984714761744209
_cell_length_c       4.9847148285060765
_cell_angle_alpha    60.000000038605826
_cell_angle_beta     60.00000019336075
_cell_angle_gamma    59.99999940745537

_space_group_name_H-M_alt    "P 1"
_space_group_IT_number       1

loop_
  _space_group_symop_operation_xyz
  'x, y, z'

loop_
  _atom_site_type_symbol
  _atom_site_label
  _atom_site_symmetry_multiplicity
  _atom_site_fract_x
  _atom_site_fract_y
  _atom_site_fract_z
  _atom_site_occupancy
  Nb  Nb1       1.0  0.2499999511520077  0.25000016627843064  0.24999993861497574  1.0000
  Nb  Nb2       1.0  0.7499999604240873  0.7499997887620251  0.7500000953300646  1.0000
  As  As1       1.0  1.5677414629623702e-08  0.9999999877149953  0.999999986266998  1.0000
  O   O1        1.0  0.25479434006008966  0.2547943632864323  0.7452056367828209  1.0000
  O   O2        1.0  0.7452057074617774  0.745205670378053  0.2547942999079827  1.0000
  O   O3        1.0  0.7452056841016163  0.25479432644457545  0.25479436378522585  1.0000
  O   O4        1.0  0.25479432064763646  0.7452056826499011  0.7452056587363426  1.0000
  O   O5        1.0  0.25479439221926703  0.7452056473245117  0.2547943083499802  1.0000
  O   O6        1.0  0.7452056269668449  0.2547943740549693  0.7452056967983907  1.0000
