data_image0
_chemical_formula_structural       Nb2AsI6
_chemical_formula_sum              "Nb2 As1 I6"
_cell_length_a       7.694553006909033
_cell_length_b       7.69455295531397
_cell_length_c       7.69455300746062
_cell_angle_alpha    59.99999968432748
_cell_angle_beta     60.00000008207151
_cell_angle_gamma    60.00000069177965

_space_group_name_H-M_alt    "P 1"
_space_group_IT_number       1

loop_
  _space_group_symop_operation_xyz
  'x, y, z'

loop_
  _atom_site_type_symbol
  _atom_site_label
  _atom_site_symmetry_multiplicity
  _atom_site_fract_x
  _atom_site_fract_y
  _atom_site_fract_z
  _atom_site_occupancy
  Nb  Nb1       1.0  0.2499999222607436  0.25000008103889576  0.250000035541068  1.0000
  Nb  Nb2       1.0  0.7500001043791422  0.749999878616534  0.7500001187752048  1.0000
  As  As1       1.0  1.2119613459602888e-09  4.138429722828756e-08  1.899011091152093e-08  1.0000
  I   I1        1.0  0.2587960664466224  0.2587961632197695  0.741203882883805  1.0000
  I   I2        1.0  0.7412039005746569  0.7412038537369947  0.25879607764800583  1.0000
  I   I3        1.0  0.741203910025056  0.2587961321157073  0.25879609698894185  1.0000
  I   I4        1.0  0.25879610865631086  0.7412038514152791  0.741203798542026  1.0000
  I   I5        1.0  0.25879614449904315  0.7412038281939747  0.2587961089778548  1.0000
  I   I6        1.0  0.7412038405459266  0.25879616170382597  0.741203862569696  1.0000
