data_image0
_chemical_formula_structural       Nb2AsCl6
_chemical_formula_sum              "Nb2 As1 Cl6"
_cell_length_a       6.592918558030482
_cell_length_b       6.592919004629439
_cell_length_c       6.59291883544481
_cell_angle_alpha    60.000000965082315
_cell_angle_beta     60.000000228815054
_cell_angle_gamma    60.00000213614278

_space_group_name_H-M_alt    "P 1"
_space_group_IT_number       1

loop_
  _space_group_symop_operation_xyz
  'x, y, z'

loop_
  _atom_site_type_symbol
  _atom_site_label
  _atom_site_symmetry_multiplicity
  _atom_site_fract_x
  _atom_site_fract_y
  _atom_site_fract_z
  _atom_site_occupancy
  Nb  Nb1       1.0  0.24999987008393534  0.25000041982586163  0.24999982681992672  1.0000
  Nb  Nb2       1.0  0.7500002297168439  0.7499996953219248  0.7499999770735595  1.0000
  As  As1       1.0  0.9999999683863284  0.9999999739926607  7.88642078143475e-08  1.0000
  Cl  Cl1       1.0  0.2544671499251404  0.25446717974819816  0.7455327997583634  1.0000
  Cl  Cl2       1.0  0.7455329627397345  0.745532781213222  0.25446713698419193  1.0000
  Cl  Cl3       1.0  0.7455328417329447  0.2544673062904735  0.25446711659536436  1.0000
  Cl  Cl4       1.0  0.25446720667862543  0.7455325952256002  0.7455329790703636  1.0000
  Cl  Cl5       1.0  0.2544670223377223  0.7455327406265212  0.2544673035413077  1.0000
  Cl  Cl6       1.0  0.7455327446224365  0.2544673169335841  0.7455327911233945  1.0000
