data_image0
_chemical_formula_structural       Nb2AsS6
_chemical_formula_sum              "Nb2 As1 S6"
_cell_length_a       6.335387102063622
_cell_length_b       6.335387165778711
_cell_length_c       6.335387296949171
_cell_angle_alpha    59.99999956824526
_cell_angle_beta     59.99999864848525
_cell_angle_gamma    60.00000097393446

_space_group_name_H-M_alt    "P 1"
_space_group_IT_number       1

loop_
  _space_group_symop_operation_xyz
  'x, y, z'

loop_
  _atom_site_type_symbol
  _atom_site_label
  _atom_site_symmetry_multiplicity
  _atom_site_fract_x
  _atom_site_fract_y
  _atom_site_fract_z
  _atom_site_occupancy
  Nb  Nb1       1.0  0.24999977899262063  0.24999992952870181  0.25000051044606  1.0000
  Nb  Nb2       1.0  0.7500004796659913  0.7499999529064796  0.7499989016327223  1.0000
  As  As1       1.0  7.988258322931238e-08  0.9999999845345547  0.9999999314874151  1.0000
  S   S1        1.0  0.2590212854968  0.2590219762142444  0.7409782132027646  1.0000
  S   S2        1.0  0.740978554451772  0.7409781672003395  0.2590221742926823  1.0000
  S   S3        1.0  0.7409782920992554  0.2590213653564683  0.25902190678747017  1.0000
  S   S4        1.0  0.2590218040491477  0.7409786601340905  0.7409780974614153  1.0000
  S   S5        1.0  0.25902132614219714  0.7409784474261613  0.2590219029578855  1.0000
  S   S6        1.0  0.7409784209475803  0.2590215316680542  0.7409783668912103  1.0000
