data_image0
_chemical_formula_structural       Nb2AsF6
_chemical_formula_sum              "Nb2 As1 F6"
_cell_length_a       5.630490134936467
_cell_length_b       5.630490696195536
_cell_length_c       5.6304893371573765
_cell_angle_alpha    59.99998328452784
_cell_angle_beta     60.00000119475535
_cell_angle_gamma    59.999983365552225

_space_group_name_H-M_alt    "P 1"
_space_group_IT_number       1

loop_
  _space_group_symop_operation_xyz
  'x, y, z'

loop_
  _atom_site_type_symbol
  _atom_site_label
  _atom_site_symmetry_multiplicity
  _atom_site_fract_x
  _atom_site_fract_y
  _atom_site_fract_z
  _atom_site_occupancy
  Nb  Nb1       1.0  0.250001419119946  0.2500070831860089  0.24999688400621026  1.0000
  Nb  Nb2       1.0  0.7500008056496957  0.750007204282516  0.7500006171046991  1.0000
  As  As1       1.0  0.9999996103702314  0.9999987079306275  0.9999999883484296  1.0000
  F   F1        1.0  0.2597610818485827  0.2597586485370194  0.740240207842313  1.0000
  F   F2        1.0  0.7402398953849416  0.7402379588965731  0.25975895134157995  1.0000
  F   F3        1.0  0.7402393012580605  0.25975869664198137  0.25976117477921573  1.0000
  F   F4        1.0  0.25975961709367157  0.7402381196107982  0.7402403551362732  1.0000
  F   F5        1.0  0.25975993814737597  0.7402369057076327  0.2597607761135776  1.0000
  F   F6        1.0  0.740238150432334  0.2597566412179461  0.7402411498546626  1.0000
