data_image0
_chemical_formula_structural       Nb2AsBr6
_chemical_formula_sum              "Nb2 As1 Br6"
_cell_length_a       6.68209307132649
_cell_length_b       6.682093276188015
_cell_length_c       6.682093184058844
_cell_angle_alpha    59.99999770670674
_cell_angle_beta     59.999997438624426
_cell_angle_gamma    60.00000145359757

_space_group_name_H-M_alt    "P 1"
_space_group_IT_number       1

loop_
  _space_group_symop_operation_xyz
  'x, y, z'

loop_
  _atom_site_type_symbol
  _atom_site_label
  _atom_site_symmetry_multiplicity
  _atom_site_fract_x
  _atom_site_fract_y
  _atom_site_fract_z
  _atom_site_occupancy
  Nb  Nb1       1.0  0.25000007206676206  0.2500001629562655  0.2499998986463237  1.0000
  Nb  Nb2       1.0  0.7499998715872119  0.7500003459044526  0.7499999771411143  1.0000
  As  As1       1.0  7.671718923688087e-08  0.9999998735315528  6.228905660152451e-08  1.0000
  Br  Br1       1.0  0.26029569702206284  0.26029541080935953  0.7397044914993633  1.0000
  Br  Br2       1.0  0.7397044469245994  0.7397043209119152  0.26029557842963186  1.0000
  Br  Br3       1.0  0.7397043455822025  0.2602956134491727  0.2602957031525296  1.0000
  Br  Br4       1.0  0.2602955479674936  0.7397043510473544  0.7397043950423028  1.0000
  Br  Br5       1.0  0.26029570477473196  0.7397042725493758  0.26029555960773837  1.0000
  Br  Br6       1.0  0.7397042298648917  0.2602956516238835  0.7397043496400965  1.0000
