data_image0
_chemical_formula_structural       Nb2AsBr6
_chemical_formula_sum              "Nb2 As1 Br6"
_cell_length_a       6.682681827049898
_cell_length_b       6.682681972543222
_cell_length_c       6.682681831138847
_cell_angle_alpha    60.00000166624533
_cell_angle_beta     60.00000176279221
_cell_angle_gamma    60.00000457432825

_space_group_name_H-M_alt    "P 1"
_space_group_IT_number       1

loop_
  _space_group_symop_operation_xyz
  'x, y, z'

loop_
  _atom_site_type_symbol
  _atom_site_label
  _atom_site_symmetry_multiplicity
  _atom_site_fract_x
  _atom_site_fract_y
  _atom_site_fract_z
  _atom_site_occupancy
  Nb  Nb1       1.0  0.24999997394227322  0.2500000350742272  0.2500001479969433  1.0000
  Nb  Nb2       1.0  0.7500002964157717  0.7500000337468261  0.749999850994745  1.0000
  As  As1       1.0  3.5097468307481244e-09  0.9999999065315595  1.0633196037812296e-07  1.0000
  Br  Br1       1.0  0.2602882537578643  0.26028820046821005  0.7397117048009457  1.0000
  Br  Br2       1.0  0.7397118261478983  0.7397118280331164  0.26028822701530724  1.0000
  Br  Br3       1.0  0.7397116547148804  0.26028821073842495  0.26028823715743044  1.0000
  Br  Br4       1.0  0.2602882036723677  0.7397117151308796  0.7397117474965054  1.0000
  Br  Br5       1.0  0.2602881575777934  0.7397117809198732  0.2602882335896972  1.0000
  Br  Br6       1.0  0.739711633034989  0.26028828606844784  0.7397117503056887  1.0000
