data_image0
_chemical_formula_structural       Nb2AsCl6
_chemical_formula_sum              "Nb2 As1 Cl6"
_cell_length_a       6.592858836132955
_cell_length_b       6.592858791867931
_cell_length_c       6.59285823655818
_cell_angle_alpha    60.000001400108744
_cell_angle_beta     60.000002057835424
_cell_angle_gamma    60.00000436572814

_space_group_name_H-M_alt    "P 1"
_space_group_IT_number       1

loop_
  _space_group_symop_operation_xyz
  'x, y, z'

loop_
  _atom_site_type_symbol
  _atom_site_label
  _atom_site_symmetry_multiplicity
  _atom_site_fract_x
  _atom_site_fract_y
  _atom_site_fract_z
  _atom_site_occupancy
  Nb  Nb1       1.0  0.250000226696395  0.24999978265644693  0.2499998015706028  1.0000
  Nb  Nb2       1.0  0.7499991989521417  0.7500004811565124  0.7500012956962091  1.0000
  As  As1       1.0  4.751962715813406e-08  0.9999999572732711  0.9999998656425761  1.0000
  Cl  Cl1       1.0  0.2544702035737695  0.25446968217779187  0.7455300713539479  1.0000
  Cl  Cl2       1.0  0.7455299601814863  0.745530174802414  0.25446941780591353  1.0000
  Cl  Cl3       1.0  0.7455302448847168  0.254470105528799  0.254469647841098  1.0000
  Cl  Cl4       1.0  0.2544698270669991  0.7455299427928511  0.7455302784403036  1.0000
  Cl  Cl5       1.0  0.25447023404735725  0.7455301493754  0.2544694750069191  1.0000
  Cl  Cl6       1.0  0.7455300629054484  0.25446973361238484  0.7455301484181637  1.0000
