data_image0
_chemical_formula_structural       Nb2AsI6
_chemical_formula_sum              "Nb2 As1 I6"
_cell_length_a       7.6945665587703225
_cell_length_b       7.694566529122595
_cell_length_c       7.694566688204479
_cell_angle_alpha    59.999999114182046
_cell_angle_beta     59.999999520237914
_cell_angle_gamma    60.00000065268643

_space_group_name_H-M_alt    "P 1"
_space_group_IT_number       1

loop_
  _space_group_symop_operation_xyz
  'x, y, z'

loop_
  _atom_site_type_symbol
  _atom_site_label
  _atom_site_symmetry_multiplicity
  _atom_site_fract_x
  _atom_site_fract_y
  _atom_site_fract_z
  _atom_site_occupancy
  Nb  Nb1       1.0  0.2499999098320338  0.25000009812872875  0.25000000564684316  1.0000
  Nb  Nb2       1.0  0.7500000107795858  0.7499999187447688  0.7499999224610976  1.0000
  As  As1       1.0  2.60419573683255e-08  0.9999999984082995  0.9999999851756349  1.0000
  I   I1        1.0  0.25879904504653806  0.2587990802445056  0.7412009373429128  1.0000
  I   I2        1.0  0.7412009786873955  0.7412009063866752  0.25879909728304695  1.0000
  I   I3        1.0  0.7412009029871818  0.25879906854325846  0.25879910154624947  1.0000
  I   I4        1.0  0.25879910751381413  0.7412009037626135  0.7412009689523453  1.0000
  I   I5        1.0  0.2587990680574632  0.7412009129650731  0.2587990645936645  1.0000
  I   I6        1.0  0.7412009550392543  0.2587991070918275  0.7412009159491114  1.0000
