data_image0
_chemical_formula_structural       Nb2AsF6
_chemical_formula_sum              "Nb2 As1 F6"
_cell_length_a       5.630927853381091
_cell_length_b       5.6309250429549325
_cell_length_c       5.630929536477924
_cell_angle_alpha    59.9999429383039
_cell_angle_beta     59.999983659734106
_cell_angle_gamma    59.99997489304224

_space_group_name_H-M_alt    "P 1"
_space_group_IT_number       1

loop_
  _space_group_symop_operation_xyz
  'x, y, z'

loop_
  _atom_site_type_symbol
  _atom_site_label
  _atom_site_symmetry_multiplicity
  _atom_site_fract_x
  _atom_site_fract_y
  _atom_site_fract_z
  _atom_site_occupancy
  Nb  Nb1       1.0  0.2500033185442647  0.2499928250750853  0.25000830669143853  1.0000
  Nb  Nb2       1.0  0.7499989334393303  0.7500075184657908  0.7499971257897353  1.0000
  As  As1       1.0  0.9999997729368529  7.83012971995899e-08  0.9999997937878133  1.0000
  F   F1        1.0  0.2598273329444425  0.25982669442555556  0.7401703532011422  1.0000
  F   F2        1.0  0.7401711042966922  0.7401743951548522  0.2598263861904396  1.0000
  F   F3        1.0  0.7401724033255809  0.2598231289969605  0.2598305676840276  1.0000
  F   F4        1.0  0.25982693075447816  0.7401752700649542  0.7401698798066809  1.0000
  F   F5        1.0  0.2598269682210564  0.7401736026476057  0.25982643679127215  1.0000
  F   F6        1.0  0.7401733527665125  0.259826560367968  0.7401711417316803  1.0000
