data_image0
_chemical_formula_structural       Nb2BCl6
_chemical_formula_sum              "Nb2 B1 Cl6"
_cell_length_a       6.354726684303434
_cell_length_b       6.3547264556137355
_cell_length_c       6.3547268366247165
_cell_angle_alpha    60.00000146235292
_cell_angle_beta     59.99999952924536
_cell_angle_gamma    59.99999987660976

_space_group_name_H-M_alt    "P 1"
_space_group_IT_number       1

loop_
  _space_group_symop_operation_xyz
  'x, y, z'

loop_
  _atom_site_type_symbol
  _atom_site_label
  _atom_site_symmetry_multiplicity
  _atom_site_fract_x
  _atom_site_fract_y
  _atom_site_fract_z
  _atom_site_occupancy
  Nb  Nb1       1.0  0.25000025609196624  0.24999996994060575  0.2499996614707151  1.0000
  Nb  Nb2       1.0  0.7499995494037341  0.7499999849864567  0.750000440646958  1.0000
  B   B1        1.0  0.9999999912453046  0.9999999826543223  1.3050186066738901e-08  1.0000
  Cl  Cl1       1.0  0.22608242761194086  0.2260823711794052  0.7739176500613882  1.0000
  Cl  Cl2       1.0  0.773917652463394  0.7739176049479299  0.22608231832901834  1.0000
  Cl  Cl3       1.0  0.7739175593862608  0.22608248496421438  0.22608232062419858  1.0000
  Cl  Cl4       1.0  0.22608250438890112  0.7739175836734027  0.7739176238238418  1.0000
  Cl  Cl5       1.0  0.22608250159162108  0.7739175976323984  0.2260823580496285  1.0000
  Cl  Cl6       1.0  0.773917572812045  0.22608239005872266  0.7739176262783011  1.0000
