data_image0
_chemical_formula_structural       Nb2BiF6
_chemical_formula_sum              "Nb2 Bi1 F6"
_cell_length_a       5.856232088668664
_cell_length_b       5.856231115575568
_cell_length_c       5.856231786922948
_cell_angle_alpha    59.99998998950507
_cell_angle_beta     59.99999479429293
_cell_angle_gamma    59.99999420456321

_space_group_name_H-M_alt    "P 1"
_space_group_IT_number       1

loop_
  _space_group_symop_operation_xyz
  'x, y, z'

loop_
  _atom_site_type_symbol
  _atom_site_label
  _atom_site_symmetry_multiplicity
  _atom_site_fract_x
  _atom_site_fract_y
  _atom_site_fract_z
  _atom_site_occupancy
  Nb  Nb1       1.0  0.2500008173000566  0.24999892741225213  0.2500002883747259  1.0000
  Nb  Nb2       1.0  0.7499997351455154  0.7500006616975881  0.750001356132975  1.0000
  Bi  Bi1       1.0  4.9074962579495634e-08  0.9999999769951017  2.1407346353038538e-07  1.0000
  F   F1        1.0  0.267524889691856  0.26752443657658853  0.7324749761616719  1.0000
  F   F2        1.0  0.732474872848559  0.7324758364059855  0.2675239004356535  1.0000
  F   F3        1.0  0.7324751236344551  0.26752478176498984  0.2675245162592825  1.0000
  F   F4        1.0  0.2675242460053468  0.7324757944638217  0.7324749635447751  1.0000
  F   F5        1.0  0.26752494235752855  0.7324756185112733  0.267524428309679  1.0000
  F   F6        1.0  0.7324753341837507  0.2675239287715708  0.7324754557407444  1.0000
