data_image0
_chemical_formula_structural       Nb2BiI6
_chemical_formula_sum              "Nb2 Bi1 I6"
_cell_length_a       7.870365790800305
_cell_length_b       7.87036570811569
_cell_length_c       7.8703657186946065
_cell_angle_alpha    60.00000047999063
_cell_angle_beta     59.999999994674866
_cell_angle_gamma    60.000000315842435

_space_group_name_H-M_alt    "P 1"
_space_group_IT_number       1

loop_
  _space_group_symop_operation_xyz
  'x, y, z'

loop_
  _atom_site_type_symbol
  _atom_site_label
  _atom_site_symmetry_multiplicity
  _atom_site_fract_x
  _atom_site_fract_y
  _atom_site_fract_z
  _atom_site_occupancy
  Nb  Nb1       1.0  0.24999999644590215  0.2500000150034406  0.24999998079000513  1.0000
  Nb  Nb2       1.0  0.7499999486135026  0.750000026336554  0.7500000368690396  1.0000
  Bi  Bi1       1.0  0.9999999901749395  0.9999999766577898  1.336567479014763e-09  1.0000
  I   I1        1.0  0.26719433584700697  0.2671942858148946  0.7328056872300338  1.0000
  I   I2        1.0  0.7328057011546569  0.732805704172238  0.2671942821813541  1.0000
  I   I3        1.0  0.7328056963822757  0.2671943119361983  0.2671943106552148  1.0000
  I   I4        1.0  0.2671943154108493  0.7328056920562606  0.7328056897695594  1.0000
  I   I5        1.0  0.2671943428291824  0.732805666959383  0.26719432047436475  1.0000
  I   I6        1.0  0.7328056861552912  0.2671943074662766  0.7328056886793125  1.0000
