data_image0
_chemical_formula_structural       Nb2BBr6
_chemical_formula_sum              "Nb2 B1 Br6"
_cell_length_a       6.533715617558606
_cell_length_b       6.533715474423532
_cell_length_c       6.533715358376972
_cell_angle_alpha    60.00000012747121
_cell_angle_beta     60.000002202220614
_cell_angle_gamma    60.00000334646475

_space_group_name_H-M_alt    "P 1"
_space_group_IT_number       1

loop_
  _space_group_symop_operation_xyz
  'x, y, z'

loop_
  _atom_site_type_symbol
  _atom_site_label
  _atom_site_symmetry_multiplicity
  _atom_site_fract_x
  _atom_site_fract_y
  _atom_site_fract_z
  _atom_site_occupancy
  Nb  Nb1       1.0  0.2499999540285189  0.25000001859080423  0.25000002074894845  1.0000
  Nb  Nb2       1.0  0.750000030906665  0.7500000688939176  0.7499999865807674  1.0000
  B   B1        1.0  0.9999999593705994  0.999999968133502  0.9999999398250159  1.0000
  Br  Br1       1.0  0.24233408800131057  0.2423340126081452  0.7576659461395191  1.0000
  Br  Br2       1.0  0.7576659456156849  0.7576660242650833  0.2423340024646507  1.0000
  Br  Br3       1.0  0.7576658470176935  0.24233409770156195  0.24233406757884027  1.0000
  Br  Br4       1.0  0.2423340833825292  0.7576659148031648  0.7576659570621481  1.0000
  Br  Br5       1.0  0.24233417722068692  0.7576658686124469  0.24233403013018012  1.0000
  Br  Br6       1.0  0.7576659063645739  0.24233405016729273  0.7576660428374445  1.0000
