data_image0
_chemical_formula_structural       Nb2BI6
_chemical_formula_sum              "Nb2 B1 I6"
_cell_length_a       7.256289942763704
_cell_length_b       7.256289910328805
_cell_length_c       7.256290022003025
_cell_angle_alpha    60.00000001210841
_cell_angle_beta     59.999999674139474
_cell_angle_gamma    60.00000163631216

_space_group_name_H-M_alt    "P 1"
_space_group_IT_number       1

loop_
  _space_group_symop_operation_xyz
  'x, y, z'

loop_
  _atom_site_type_symbol
  _atom_site_label
  _atom_site_symmetry_multiplicity
  _atom_site_fract_x
  _atom_site_fract_y
  _atom_site_fract_z
  _atom_site_occupancy
  Nb  Nb1       1.0  0.25000002039877506  0.2499998719448941  0.2500000754134505  1.0000
  Nb  Nb2       1.0  0.7500000170503746  0.7500000394822532  0.7499998738720077  1.0000
  B   B1        1.0  0.9999999933617347  0.9999999864972888  9.137925585640206e-08  1.0000
  I   I1        1.0  0.2457182093215669  0.24571817000073878  0.7542817945590048  1.0000
  I   I2        1.0  0.754281775258527  0.7542818713900062  0.24571823194081832  1.0000
  I   I3        1.0  0.7542817445172856  0.24571823943260607  0.24571810805666772  1.0000
  I   I4        1.0  0.24571824456371194  0.754281788455427  0.7542818457696359  1.0000
  I   I5        1.0  0.24571822047961533  0.7542817551374492  0.24571814165265438  1.0000
  I   I6        1.0  0.7542817803996928  0.24571826599922847  0.7542818454811538  1.0000
