data_image0
_chemical_formula_structural       Nb2BiBr6
_chemical_formula_sum              "Nb2 Bi1 Br6"
_cell_length_a       7.051043348268887
_cell_length_b       7.051043208334465
_cell_length_c       7.051043048186701
_cell_angle_alpha    59.99999988254921
_cell_angle_beta     59.99999816397264
_cell_angle_gamma    59.99999945143739

_space_group_name_H-M_alt    "P 1"
_space_group_IT_number       1

loop_
  _space_group_symop_operation_xyz
  'x, y, z'

loop_
  _atom_site_type_symbol
  _atom_site_label
  _atom_site_symmetry_multiplicity
  _atom_site_fract_x
  _atom_site_fract_y
  _atom_site_fract_z
  _atom_site_occupancy
  Nb  Nb1       1.0  0.25000006808176617  0.2500001359646112  0.2500000201031273  1.0000
  Nb  Nb2       1.0  0.7499999644446386  0.7500001299786739  0.7500002610198738  1.0000
  Bi  Bi1       1.0  0.9999999882556135  0.9999999861042419  0.9999999518361874  1.0000
  Br  Br1       1.0  0.2675017291481819  0.2675017905052346  0.7324981626229197  1.0000
  Br  Br2       1.0  0.7324982870900798  0.7324981558356158  0.26750165675130216  1.0000
  Br  Br3       1.0  0.7324981089973992  0.26750175944095034  0.267501830273455  1.0000
  Br  Br4       1.0  0.2675017189956137  0.7324982112174765  0.732498201541757  1.0000
  Br  Br5       1.0  0.2675019357501471  0.732498137144564  0.2675016725714314  1.0000
  Br  Br6       1.0  0.7324982072328465  0.2675016893453744  0.7324982327043611  1.0000
