data_image0
_chemical_formula_structural       Nb2CBr6
_chemical_formula_sum              "Nb2 C1 Br6"
_cell_length_a       6.680012008845746
_cell_length_b       6.680011901324676
_cell_length_c       6.680012197894086
_cell_angle_alpha    59.99999900737799
_cell_angle_beta     60.00000026176621
_cell_angle_gamma    59.999999842182525

_space_group_name_H-M_alt    "P 1"
_space_group_IT_number       1

loop_
  _space_group_symop_operation_xyz
  'x, y, z'

loop_
  _atom_site_type_symbol
  _atom_site_label
  _atom_site_symmetry_multiplicity
  _atom_site_fract_x
  _atom_site_fract_y
  _atom_site_fract_z
  _atom_site_occupancy
  Nb  Nb1       1.0  0.24999997812321412  0.2500001186593169  0.2499999294800179  1.0000
  Nb  Nb2       1.0  0.7500002772869568  0.7499997472734956  0.7500000590579246  1.0000
  C   C1        1.0  5.74058544166148e-08  2.530157086136162e-07  0.9999999151483728  1.0000
  Br  Br1       1.0  0.2583337735208339  0.2583338753719521  0.7416661941070357  1.0000
  Br  Br2       1.0  0.7416660822163876  0.7416661005676872  0.2583338509407726  1.0000
  Br  Br3       1.0  0.741666005267553  0.25833396257473557  0.25833383059775034  1.0000
  Br  Br4       1.0  0.25833391531725425  0.7416660573676361  0.7416661240968215  1.0000
  Br  Br5       1.0  0.25833385004794035  0.7416660386129679  0.25833392593448173  1.0000
  Br  Br6       1.0  0.7416660527117765  0.258333858488444  0.7416661814282937  1.0000
