data_image0
_chemical_formula_structural       Nb2CrBr6
_chemical_formula_sum              "Nb2 Cr1 Br6"
_cell_length_a       6.654383199330381
_cell_length_b       6.6543833404757375
_cell_length_c       6.654383451268303
_cell_angle_alpha    59.99999906653534
_cell_angle_beta     59.99999855059847
_cell_angle_gamma    59.999999652232944

_space_group_name_H-M_alt    "P 1"
_space_group_IT_number       1

loop_
  _space_group_symop_operation_xyz
  'x, y, z'

loop_
  _atom_site_type_symbol
  _atom_site_label
  _atom_site_symmetry_multiplicity
  _atom_site_fract_x
  _atom_site_fract_y
  _atom_site_fract_z
  _atom_site_occupancy
  Nb  Nb1       1.0  0.24999996108255795  0.2500000786280431  0.25000000525260446  1.0000
  Nb  Nb2       1.0  0.7499999391847875  0.7499998806659982  0.7500000902598819  1.0000
  Cr  Cr1       1.0  0.9999999961084622  2.208610131241132e-08  2.5466401116475385e-08  1.0000
  Br  Br1       1.0  0.25489606163388395  0.254895971035934  0.74510397484395  1.0000
  Br  Br2       1.0  0.7451039294798636  0.745103986417599  0.2548960340880623  1.0000
  Br  Br3       1.0  0.7451040853672243  0.25489597197078784  0.2548959244271904  1.0000
  Br  Br4       1.0  0.2548960202548357  0.7451040167713888  0.7451040311423384  1.0000
  Br  Br5       1.0  0.2548959840079456  0.7451039982876179  0.25489594172439767  1.0000
  Br  Br6       1.0  0.7451040264370735  0.2548960677559139  0.7451039746943714  1.0000
