data_image0
_chemical_formula_structural       Nb2CrI6
_chemical_formula_sum              "Nb2 Cr1 I6"
_cell_length_a       7.438771274182743
_cell_length_b       7.438771109708169
_cell_length_c       7.438771224815855
_cell_angle_alpha    59.99999987001932
_cell_angle_beta     59.99999918514979
_cell_angle_gamma    59.99999951861395

_space_group_name_H-M_alt    "P 1"
_space_group_IT_number       1

loop_
  _space_group_symop_operation_xyz
  'x, y, z'

loop_
  _atom_site_type_symbol
  _atom_site_label
  _atom_site_symmetry_multiplicity
  _atom_site_fract_x
  _atom_site_fract_y
  _atom_site_fract_z
  _atom_site_occupancy
  Nb  Nb1       1.0  0.24999993638723628  0.25000000765998176  0.2500000775036074  1.0000
  Nb  Nb2       1.0  0.7499999901051646  0.7499999225474464  0.7500002097313465  1.0000
  Cr  Cr1       1.0  0.9999999728419107  6.750381055148063e-08  0.9999999341206662  1.0000
  I   I1        1.0  0.2511787530313967  0.25117870240889406  0.7488212206544549  1.0000
  I   I2        1.0  0.748821270861421  0.7488212755451297  0.2511786861604501  1.0000
  I   I3        1.0  0.7488212761316738  0.25117875352519903  0.25117864398104245  1.0000
  I   I4        1.0  0.2511787177648354  0.748821305104111  0.7488212348057577  1.0000
  I   I5        1.0  0.2511787877436768  0.7488212038649348  0.2511787153824769  1.0000
  I   I6        1.0  0.7488212896635628  0.2511787625640491  0.7488212887368444  1.0000
