data_image0
_chemical_formula_structural       Nb2CrF6
_chemical_formula_sum              "Nb2 Cr1 F6"
_cell_length_a       5.699511113025599
_cell_length_b       5.6995081037157425
_cell_length_c       5.699515708540601
_cell_angle_alpha    59.99997548713002
_cell_angle_beta     59.99999551478733
_cell_angle_gamma    59.99994284269689

_space_group_name_H-M_alt    "P 1"
_space_group_IT_number       1

loop_
  _space_group_symop_operation_xyz
  'x, y, z'

loop_
  _atom_site_type_symbol
  _atom_site_label
  _atom_site_symmetry_multiplicity
  _atom_site_fract_x
  _atom_site_fract_y
  _atom_site_fract_z
  _atom_site_occupancy
  Nb  Nb1       1.0  0.24999063770068686  0.24995534553117332  0.2500452846629416  1.0000
  Nb  Nb2       1.0  0.7500231362638976  0.7500539201367936  0.7499635207497661  1.0000
  Cr  Cr1       1.0  0.9999986690826828  0.9999989298671762  0.9999994179170919  1.0000
  F   F1        1.0  0.2392824747221061  0.23927084700734366  0.7607166670600882  1.0000
  F   F2        1.0  0.7607157169759718  0.7607288841637182  0.23927629958073757  1.0000
  F   F3        1.0  0.7607262190111296  0.23926092516175312  0.23929207861467292  1.0000
  F   F4        1.0  0.23926588250901723  0.7607379980401279  0.7607069425830965  1.0000
  F   F5        1.0  0.23926509632480628  0.7607325492996593  0.2392875441723473  1.0000
  F   F6        1.0  0.7607320836949144  0.2392605956112143  0.7607122550276824  1.0000
