data_image0
_chemical_formula_structural       Nb2CoCl6
_chemical_formula_sum              "Nb2 Co1 Cl6"
_cell_length_a       6.378984573477448
_cell_length_b       6.378984468065692
_cell_length_c       6.378984505644189
_cell_angle_alpha    59.999999734059955
_cell_angle_beta     59.999999756449405
_cell_angle_gamma    60.00000014316465

_space_group_name_H-M_alt    "P 1"
_space_group_IT_number       1

loop_
  _space_group_symop_operation_xyz
  'x, y, z'

loop_
  _atom_site_type_symbol
  _atom_site_label
  _atom_site_symmetry_multiplicity
  _atom_site_fract_x
  _atom_site_fract_y
  _atom_site_fract_z
  _atom_site_occupancy
  Nb  Nb1       1.0  0.2500001202622053  0.25000022344414125  0.24999952859232152  1.0000
  Nb  Nb2       1.0  0.7499999784567181  0.7499996777087489  0.7500006715954471  1.0000
  Co  Co1       1.0  0.9999999773086332  1.9199684121087534e-08  3.6234089501997845e-08  1.0000
  Cl  Cl1       1.0  0.25267134438040745  0.2526714724099808  0.7473286286386852  1.0000
  Cl  Cl2       1.0  0.7473286108210201  0.7473285823403815  0.2526711808677766  1.0000
  Cl  Cl3       1.0  0.7473285608479725  0.25267158287980485  0.25267124963532617  1.0000
  Cl  Cl4       1.0  0.2526714036238817  0.7473284603507473  0.7473286895429339  1.0000
  Cl  Cl5       1.0  0.2526715035710597  0.7473285441151203  0.2526713560512734  1.0000
  Cl  Cl6       1.0  0.7473285073627359  0.25267143575647427  0.7473286574166952  1.0000
