data_image0
_chemical_formula_structural       Nb2CoBr6
_chemical_formula_sum              "Nb2 Co1 Br6"
_cell_length_a       6.561255867528662
_cell_length_b       6.561255658594834
_cell_length_c       6.561255939115048
_cell_angle_alpha    59.999999981954836
_cell_angle_beta     60.00000038670676
_cell_angle_gamma    60.000000543631664

_space_group_name_H-M_alt    "P 1"
_space_group_IT_number       1

loop_
  _space_group_symop_operation_xyz
  'x, y, z'

loop_
  _atom_site_type_symbol
  _atom_site_label
  _atom_site_symmetry_multiplicity
  _atom_site_fract_x
  _atom_site_fract_y
  _atom_site_fract_z
  _atom_site_occupancy
  Nb  Nb1       1.0  0.25000011370980685  0.24999999036847437  0.24999996122346035  1.0000
  Nb  Nb2       1.0  0.7500000692542798  0.7500000159045837  0.7499999621541058  1.0000
  Co  Co1       1.0  0.9999999670777874  3.73326357912396e-09  3.5931852653289076e-08  1.0000
  Br  Br1       1.0  0.25415446418829124  0.2541544810060779  0.7458455499447564  1.0000
  Br  Br2       1.0  0.7458455073953258  0.7458455047340277  0.2541545046305038  1.0000
  Br  Br3       1.0  0.7458454553914335  0.2541544946660435  0.25415451020445007  1.0000
  Br  Br4       1.0  0.2541544622398813  0.7458455209401701  0.7458454954499691  1.0000
  Br  Br5       1.0  0.2541544698932869  0.7458454921470677  0.2541544913822869  1.0000
  Br  Br6       1.0  0.7458454975483648  0.2541544954596686  0.7458454881257178  1.0000
