data_image0
_chemical_formula_structural       Nb2CI6
_chemical_formula_sum              "Nb2 C1 I6"
_cell_length_a       7.352243766324881
_cell_length_b       7.352243761361227
_cell_length_c       7.35224380144897
_cell_angle_alpha    60.00000003466098
_cell_angle_beta     59.99999955712152
_cell_angle_gamma    60.00000010503331

_space_group_name_H-M_alt    "P 1"
_space_group_IT_number       1

loop_
  _space_group_symop_operation_xyz
  'x, y, z'

loop_
  _atom_site_type_symbol
  _atom_site_label
  _atom_site_symmetry_multiplicity
  _atom_site_fract_x
  _atom_site_fract_y
  _atom_site_fract_z
  _atom_site_occupancy
  Nb  Nb1       1.0  0.24999992156693668  0.24999992635132462  0.2500001302155751  1.0000
  Nb  Nb2       1.0  0.7499999419296433  0.7500000389204935  0.750000104092599  1.0000
  C   C1        1.0  0.9999999786466103  2.1655543308466022e-08  1.753060029206999e-08  1.0000
  I   I1        1.0  0.25461012101932334  0.25461004013143484  0.7453898905304857  1.0000
  I   I2        1.0  0.7453899065430579  0.7453899417984928  0.25461003443496394  1.0000
  I   I3        1.0  0.7453899556295439  0.25461008853840095  0.25461003996961507  1.0000
  I   I4        1.0  0.2546100764212327  0.7453899600239677  0.7453898725576096  1.0000
  I   I5        1.0  0.2546101303442659  0.745389924983168  0.25461004576483254  1.0000
  I   I6        1.0  0.7453899716841148  0.2546100502835158  0.745389864341045  1.0000
