data_image0
_chemical_formula_structural       Nb2CF6
_chemical_formula_sum              "Nb2 C1 F6"
_cell_length_a       6.198290342751565
_cell_length_b       5.447248807904696
_cell_length_c       4.141222896198151
_cell_angle_alpha    36.256726634942126
_cell_angle_beta     28.377379943699918
_cell_angle_gamma    32.24523084342324

_space_group_name_H-M_alt    "P 1"
_space_group_IT_number       1

loop_
  _space_group_symop_operation_xyz
  'x, y, z'

loop_
  _atom_site_type_symbol
  _atom_site_label
  _atom_site_symmetry_multiplicity
  _atom_site_fract_x
  _atom_site_fract_y
  _atom_site_fract_z
  _atom_site_occupancy
  Nb  Nb1       1.0  0.5614739725155181  0.6396894644668277  0.41522715704913704  1.0000
  Nb  Nb2       1.0  0.8148447184709898  0.49018885978391435  0.6717061583699487  1.0000
  C   C1        1.0  0.3696778734145715  0.4317375347174001  0.17715490668837755  1.0000
  F   F1        1.0  0.577761897181913  0.07842379603922733  0.46470030463065914  1.0000
  F   F2        1.0  0.3111375858112829  0.5283786989597872  0.1273235292497902  1.0000
  F   F3        1.0  0.6290039096060545  0.7549489199005309  0.06438446785012934  1.0000
  F   F4        1.0  0.8237860826048736  0.4880636693754701  0.6568082685837768  1.0000
  F   F5        1.0  0.8969574390800583  0.3101069489570081  0.14683440109023527  1.0000
  F   F6        1.0  0.27400321687912377  0.9655325866981646  0.8661393232478614  1.0000
