data_image0
_chemical_formula_structural       Nb2CCl6
_chemical_formula_sum              "Nb2 C1 Cl6"
_cell_length_a       6.532355907177787
_cell_length_b       6.532355773506026
_cell_length_c       6.5323558751867035
_cell_angle_alpha    59.99999913889671
_cell_angle_beta     59.99999984372123
_cell_angle_gamma    60.000000005328225

_space_group_name_H-M_alt    "P 1"
_space_group_IT_number       1

loop_
  _space_group_symop_operation_xyz
  'x, y, z'

loop_
  _atom_site_type_symbol
  _atom_site_label
  _atom_site_symmetry_multiplicity
  _atom_site_fract_x
  _atom_site_fract_y
  _atom_site_fract_z
  _atom_site_occupancy
  Nb  Nb1       1.0  0.25000020830488684  0.24999972220762373  0.2500001593857072  1.0000
  Nb  Nb2       1.0  0.7499997667427927  0.7500001078176679  0.7500001013914176  1.0000
  C   C1        1.0  1.5391232537918408e-08  0.9999999962502201  0.9999999926484324  1.0000
  Cl  Cl1       1.0  0.2578354570144588  0.2578352876520469  0.7421645811835588  1.0000
  Cl  Cl2       1.0  0.742164525921737  0.7421647467362608  0.2578353484341316  1.0000
  Cl  Cl3       1.0  0.7421645605395919  0.2578353864501598  0.25783534480676684  1.0000
  Cl  Cl4       1.0  0.25783541291492706  0.7421646816861687  0.7421645849244819  1.0000
  Cl  Cl5       1.0  0.2578354233849045  0.742164686754215  0.25783528150000706  1.0000
  Cl  Cl6       1.0  0.7421646318998597  0.25783538513189425  0.7421646023795456  1.0000
