data_image0
_chemical_formula_structural       Nb2FeCl6
_chemical_formula_sum              "Nb2 Fe1 Cl6"
_cell_length_a       6.4837892764955924
_cell_length_b       6.483789375187943
_cell_length_c       6.48378916170891
_cell_angle_alpha    59.999999617260315
_cell_angle_beta     60.00000064041023
_cell_angle_gamma    59.99999997624829

_space_group_name_H-M_alt    "P 1"
_space_group_IT_number       1

loop_
  _space_group_symop_operation_xyz
  'x, y, z'

loop_
  _atom_site_type_symbol
  _atom_site_label
  _atom_site_symmetry_multiplicity
  _atom_site_fract_x
  _atom_site_fract_y
  _atom_site_fract_z
  _atom_site_occupancy
  Nb  Nb1       1.0  0.2500003632352596  0.24999972489446842  0.2499999269066639  1.0000
  Nb  Nb2       1.0  0.7499991248408517  0.7499995449144297  0.7500006042561742  1.0000
  Fe  Fe1       1.0  2.5633257706395208e-08  5.666801537918061e-08  0.9999998354647215  1.0000
  Cl  Cl1       1.0  0.24920542116475086  0.24920507223222138  0.7507946902189929  1.0000
  Cl  Cl2       1.0  0.7507946180065654  0.7507949965956642  0.2492051396675043  1.0000
  Cl  Cl3       1.0  0.7507948814395077  0.2492054985046421  0.24920488639428331  1.0000
  Cl  Cl4       1.0  0.24920542793829106  0.7507948763305109  0.7507948944430781  1.0000
  Cl  Cl5       1.0  0.24920533854499746  0.7507948338025157  0.24920504763999135  1.0000
  Cl  Cl6       1.0  0.7507947995265869  0.2492054031404705  0.750794977250427  1.0000
