data_image0
_chemical_formula_structural       Nb2FeI6
_chemical_formula_sum              "Nb2 Fe1 I6"
_cell_length_a       7.332087015802682
_cell_length_b       7.332087041988742
_cell_length_c       7.332086807012639
_cell_angle_alpha    60.000001197728416
_cell_angle_beta     60.00000106208505
_cell_angle_gamma    60.00000135150395

_space_group_name_H-M_alt    "P 1"
_space_group_IT_number       1

loop_
  _space_group_symop_operation_xyz
  'x, y, z'

loop_
  _atom_site_type_symbol
  _atom_site_label
  _atom_site_symmetry_multiplicity
  _atom_site_fract_x
  _atom_site_fract_y
  _atom_site_fract_z
  _atom_site_occupancy
  Nb  Nb1       1.0  0.24999992523278852  0.24999995656220605  0.2500000850246757  1.0000
  Nb  Nb2       1.0  0.7500000603165983  0.7499999749212212  0.749999944218813  1.0000
  Fe  Fe1       1.0  0.9999999948141565  0.9999999966592189  0.9999999701666074  1.0000
  I   I1        1.0  0.24493077360884954  0.24493079130004547  0.7550692116106686  1.0000
  I   I2        1.0  0.7550692393163019  0.7550692186917356  0.24493078787652028  1.0000
  I   I3        1.0  0.7550692256804721  0.2449307906644078  0.24493078038131713  1.0000
  I   I4        1.0  0.24493076350986875  0.7550692527351829  0.7550692210887133  1.0000
  I   I5        1.0  0.24493073603776672  0.7550692388078194  0.24493080119843774  1.0000
  I   I6        1.0  0.7550692903132589  0.24493078287669515  0.7550691911849201  1.0000
