data_image0
_chemical_formula_structural       Nb2FeF6
_chemical_formula_sum              "Nb2 Fe1 F6"
_cell_length_a       5.461755201784762
_cell_length_b       5.4617538103634375
_cell_length_c       5.4617542551861495
_cell_angle_alpha    60.00000027942498
_cell_angle_beta     59.99999905704868
_cell_angle_gamma    59.99999777620252

_space_group_name_H-M_alt    "P 1"
_space_group_IT_number       1

loop_
  _space_group_symop_operation_xyz
  'x, y, z'

loop_
  _atom_site_type_symbol
  _atom_site_label
  _atom_site_symmetry_multiplicity
  _atom_site_fract_x
  _atom_site_fract_y
  _atom_site_fract_z
  _atom_site_occupancy
  Nb  Nb1       1.0  0.25000085462925226  0.2499994351311541  0.24999953914045986  1.0000
  Nb  Nb2       1.0  0.7499990849634721  0.7499998436813634  0.7500003750326177  1.0000
  Fe  Fe1       1.0  2.3640457983701054e-08  0.9999999798183807  3.7633197136921764e-09  1.0000
  F   F1        1.0  0.25777601103514963  0.25777550355541534  0.7422243462277311  1.0000
  F   F2        1.0  0.7422239900691641  0.7422245040378699  0.2577758429135493  1.0000
  F   F3        1.0  0.7422241000256754  0.2577759555109989  0.2577756014030375  1.0000
  F   F4        1.0  0.2577761374756535  0.7422242942617256  0.742224220286059  1.0000
  F   F5        1.0  0.2577758929078579  0.7422245168591739  0.2577755438394448  1.0000
  F   F6        1.0  0.7422239487294121  0.2577759818202006  0.7422245344197392  1.0000
