data_image0
_chemical_formula_structural       Nb2GeBr6
_chemical_formula_sum              "Nb2 Ge1 Br6"
_cell_length_a       6.796819104269128
_cell_length_b       6.796818989089415
_cell_length_c       6.796818908397474
_cell_angle_alpha    60.000000379048174
_cell_angle_beta     60.00000024757198
_cell_angle_gamma    59.999999168661624

_space_group_name_H-M_alt    "P 1"
_space_group_IT_number       1

loop_
  _space_group_symop_operation_xyz
  'x, y, z'

loop_
  _atom_site_type_symbol
  _atom_site_label
  _atom_site_symmetry_multiplicity
  _atom_site_fract_x
  _atom_site_fract_y
  _atom_site_fract_z
  _atom_site_occupancy
  Nb  Nb1       1.0  0.24999990831108915  0.250000082841888  0.250000064240161  1.0000
  Nb  Nb2       1.0  0.7500000482748517  0.7499999818387861  0.7499998421835726  1.0000
  Ge  Ge1       1.0  0.999999990321971  0.999999972970925  1.8353552104953655e-08  1.0000
  Br  Br1       1.0  0.2574749866425202  0.25747488645588784  0.7425250814133121  1.0000
  Br  Br2       1.0  0.7425250722386527  0.7425250701084857  0.2574749735773298  1.0000
  Br  Br3       1.0  0.7425250829999871  0.2574749121806314  0.2574749641952795  1.0000
  Br  Br4       1.0  0.25747493188095477  0.7425250948380157  0.7425250522577052  1.0000
  Br  Br5       1.0  0.25747490335457374  0.7425250990255157  0.2574749513622229  1.0000
  Br  Br6       1.0  0.7425250743570355  0.2574748971815016  0.7425250567131597  1.0000
