data_image0
_chemical_formula_structural       Nb2GaBr6
_chemical_formula_sum              "Nb2 Ga1 Br6"
_cell_length_a       6.755110470525461
_cell_length_b       6.755110477262333
_cell_length_c       6.755110408757513
_cell_angle_alpha    60.00000138565441
_cell_angle_beta     60.000001506750465
_cell_angle_gamma    60.00000047503398

_space_group_name_H-M_alt    "P 1"
_space_group_IT_number       1

loop_
  _space_group_symop_operation_xyz
  'x, y, z'

loop_
  _atom_site_type_symbol
  _atom_site_label
  _atom_site_symmetry_multiplicity
  _atom_site_fract_x
  _atom_site_fract_y
  _atom_site_fract_z
  _atom_site_occupancy
  Nb  Nb1       1.0  0.25000004381438246  0.24999991186524623  0.25000001392860405  1.0000
  Nb  Nb2       1.0  0.7499999727082901  0.7500000220598736  0.7499999705193708  1.0000
  Ga  Ga1       1.0  0.9999999816975577  3.6261281949335514e-09  0.999999982172025  1.0000
  Br  Br1       1.0  0.2573942814045302  0.25739425827092777  0.7426057228888208  1.0000
  Br  Br2       1.0  0.7426056934354576  0.7426057699335279  0.25739427819128946  1.0000
  Br  Br3       1.0  0.7426057266191889  0.2573942773865063  0.25739425950656786  1.0000
  Br  Br4       1.0  0.25739430393986173  0.7426057272481152  0.7426057358614534  1.0000
  Br  Br5       1.0  0.2573942553841529  0.7426057526886397  0.25739427171159357  1.0000
  Br  Br6       1.0  0.7426057387596052  0.25739427914194446  0.7426057593536673  1.0000
