data_image0
_chemical_formula_structural       Nb2GeI6
_chemical_formula_sum              "Nb2 Ge1 I6"
_cell_length_a       7.570042991123038
_cell_length_b       7.570042974292219
_cell_length_c       7.570042823236394
_cell_angle_alpha    60.000000906380286
_cell_angle_beta     60.00000047901551
_cell_angle_gamma    59.9999995426021

_space_group_name_H-M_alt    "P 1"
_space_group_IT_number       1

loop_
  _space_group_symop_operation_xyz
  'x, y, z'

loop_
  _atom_site_type_symbol
  _atom_site_label
  _atom_site_symmetry_multiplicity
  _atom_site_fract_x
  _atom_site_fract_y
  _atom_site_fract_z
  _atom_site_occupancy
  Nb  Nb1       1.0  0.25000014670099646  0.24999991497270663  0.24999996232867186  1.0000
  Nb  Nb2       1.0  0.7500000516580757  0.7499999309747422  0.7500000053531168  1.0000
  Ge  Ge1       1.0  3.066586240227144e-09  0.9999999724959782  2.0144696661545025e-08  1.0000
  I   I1        1.0  0.2596004771295309  0.25960051912922233  0.7403995014267625  1.0000
  I   I2        1.0  0.7403994113628775  0.7403995517040549  0.25960051138743784  1.0000
  I   I3        1.0  0.7403994914143719  0.2596005114110085  0.25960052359652297  1.0000
  I   I4        1.0  0.2596004961653552  0.7403995092678752  0.7403994964551303  1.0000
  I   I5        1.0  0.2596004987090905  0.7403995236417047  0.259600503764982  1.0000
  I   I6        1.0  0.7403994239570824  0.2596005682240595  0.7403994708781207  1.0000
