data_image0
_chemical_formula_structural       Nb2GaO6
_chemical_formula_sum              "Nb2 Ga1 O6"
_cell_length_a       4.947066914010605
_cell_length_b       4.947066987950732
_cell_length_c       4.947066968942867
_cell_angle_alpha    59.999999091404185
_cell_angle_beta     59.999999190196526
_cell_angle_gamma    59.99999929448889

_space_group_name_H-M_alt    "P 1"
_space_group_IT_number       1

loop_
  _space_group_symop_operation_xyz
  'x, y, z'

loop_
  _atom_site_type_symbol
  _atom_site_label
  _atom_site_symmetry_multiplicity
  _atom_site_fract_x
  _atom_site_fract_y
  _atom_site_fract_z
  _atom_site_occupancy
  Nb  Nb1       1.0  0.2499999263432069  0.2500001445943917  0.24999966975293852  1.0000
  Nb  Nb2       1.0  0.7499998598538699  0.7500002753384312  0.7499997656659799  1.0000
  Ga  Ga1       1.0  2.692522161134606e-08  0.9999999752430093  4.74294789435223e-08  1.0000
  O   O1        1.0  0.26004221010529777  0.2600420722998144  0.7399578156781136  1.0000
  O   O2        1.0  0.7399577908383669  0.7399578574446002  0.2600421819556686  1.0000
  O   O3        1.0  0.739957880703754  0.2600420752142583  0.26004229381413535  1.0000
  O   O4        1.0  0.2600422977781352  0.7399576020088535  0.7399580910133463  1.0000
  O   O5        1.0  0.26004209945454304  0.739957916303437  0.26004229610639473  1.0000
  O   O6        1.0  0.7399579205381905  0.2600420753334508  0.7399578409611947  1.0000
