data_image0
_chemical_formula_structural       Nb2GeF6
_chemical_formula_sum              "Nb2 Ge1 F6"
_cell_length_a       5.648812663006526
_cell_length_b       5.648799736109977
_cell_length_c       5.6488122752445475
_cell_angle_alpha    60.00002159548812
_cell_angle_beta     60.0000377820514
_cell_angle_gamma    60.00004495289702

_space_group_name_H-M_alt    "P 1"
_space_group_IT_number       1

loop_
  _space_group_symop_operation_xyz
  'x, y, z'

loop_
  _atom_site_type_symbol
  _atom_site_label
  _atom_site_symmetry_multiplicity
  _atom_site_fract_x
  _atom_site_fract_y
  _atom_site_fract_z
  _atom_site_occupancy
  Nb  Nb1       1.0  0.2500003544666589  0.2500048289224217  0.24999955133656274  1.0000
  Nb  Nb2       1.0  0.7499989358213003  0.750000920644285  0.7500011368907505  1.0000
  Ge  Ge1       1.0  0.9999998749322425  0.9999989831372743  4.1340923309541516e-07  1.0000
  F   F1        1.0  0.2557432512540181  0.25574347055706736  0.7442557663349585  1.0000
  F   F2        1.0  0.7442550940974076  0.7442553018972448  0.25574456518973754  1.0000
  F   F3        1.0  0.74425520530201  0.255744111447363  0.255744007331799  1.0000
  F   F4        1.0  0.2557454653345336  0.744254853974646  0.74425568997738  1.0000
  F   F5        1.0  0.25574572552048314  0.7442532485022384  0.25574350973285676  1.0000
  F   F6        1.0  0.7442560015082268  0.2557443813392386  0.7442555393936062  1.0000
