data_image0
_chemical_formula_structural       Nb2GaBr6
_chemical_formula_sum              "Nb2 Ga1 Br6"
_cell_length_a       6.755111126792713
_cell_length_b       6.755111169359738
_cell_length_c       6.755111230248038
_cell_angle_alpha    60.00000115787516
_cell_angle_beta     60.00000041977634
_cell_angle_gamma    59.99999981332179

_space_group_name_H-M_alt    "P 1"
_space_group_IT_number       1

loop_
  _space_group_symop_operation_xyz
  'x, y, z'

loop_
  _atom_site_type_symbol
  _atom_site_label
  _atom_site_symmetry_multiplicity
  _atom_site_fract_x
  _atom_site_fract_y
  _atom_site_fract_z
  _atom_site_occupancy
  Nb  Nb1       1.0  0.250000032217538  0.24999992461714615  0.2500000001593117  1.0000
  Nb  Nb2       1.0  0.7499999734532149  0.7499999896060514  0.7500000089736691  1.0000
  Ga  Ga1       1.0  0.9999999847193327  0.999999994560808  0.9999999866741611  1.0000
  Br  Br1       1.0  0.25739423256841876  0.2573942476864841  0.7426057659506489  1.0000
  Br  Br2       1.0  0.7426057328179532  0.7426057771336162  0.25739425835832963  1.0000
  Br  Br3       1.0  0.7426057844335928  0.2573942593056184  0.25739422818274754  1.0000
  Br  Br4       1.0  0.2573942684418805  0.742605749196905  0.7426057442565033  1.0000
  Br  Br5       1.0  0.2573942345213524  0.7426057809608488  0.25739424721418663  1.0000
  Br  Br6       1.0  0.7426057524647247  0.25739427649440266  0.7426057647809694  1.0000
