data_image0
_chemical_formula_structural       Nb2GaCl6
_chemical_formula_sum              "Nb2 Ga1 Cl6"
_cell_length_a       6.582220810034295
_cell_length_b       6.582221050845906
_cell_length_c       6.582220702805494
_cell_angle_alpha    60.00000158977791
_cell_angle_beta     60.000000962657715
_cell_angle_gamma    60.000000488269656

_space_group_name_H-M_alt    "P 1"
_space_group_IT_number       1

loop_
  _space_group_symop_operation_xyz
  'x, y, z'

loop_
  _atom_site_type_symbol
  _atom_site_label
  _atom_site_symmetry_multiplicity
  _atom_site_fract_x
  _atom_site_fract_y
  _atom_site_fract_z
  _atom_site_occupancy
  Nb  Nb1       1.0  0.2500000923625071  0.25000013871320703  0.2500000245190898  1.0000
  Nb  Nb2       1.0  0.750000035712639  0.7500000719126612  0.749999857411415  1.0000
  Ga  Ga1       1.0  3.3525738248438735e-08  2.0467548762670583e-08  0.9999999957920181  1.0000
  Cl  Cl1       1.0  0.25366571416643724  0.25366576339394453  0.7463341458379602  1.0000
  Cl  Cl2       1.0  0.7463343145568259  0.7463342295316286  0.2536658353681134  1.0000
  Cl  Cl3       1.0  0.7463342271442187  0.25366570614603057  0.25366573642191337  1.0000
  Cl  Cl4       1.0  0.2536656211566353  0.7463341807204262  0.7463343515630639  1.0000
  Cl  Cl5       1.0  0.2536657172280409  0.7463342177522971  0.2536657121363443  1.0000
  Cl  Cl6       1.0  0.7463342478823907  0.2536656765569033  0.7463343334726462  1.0000
