data_image0
_chemical_formula_structural       Nb2GaI6
_chemical_formula_sum              "Nb2 Ga1 I6"
_cell_length_a       7.511674981857593
_cell_length_b       7.511674993894735
_cell_length_c       7.511674958675731
_cell_angle_alpha    60.00000086391227
_cell_angle_beta     60.00000015651176
_cell_angle_gamma    59.99999909796131

_space_group_name_H-M_alt    "P 1"
_space_group_IT_number       1

loop_
  _space_group_symop_operation_xyz
  'x, y, z'

loop_
  _atom_site_type_symbol
  _atom_site_label
  _atom_site_symmetry_multiplicity
  _atom_site_fract_x
  _atom_site_fract_y
  _atom_site_fract_z
  _atom_site_occupancy
  Nb  Nb1       1.0  0.24999983709893797  0.2500001378603003  0.2499999874253537  1.0000
  Nb  Nb2       1.0  0.7500000103541069  0.7499999309661889  0.7499999154481989  1.0000
  Ga  Ga1       1.0  0.9999999936806732  0.9999999820649942  5.470861198705922e-09  1.0000
  I   I1        1.0  0.25629062293482613  0.2562906428147918  0.7437093820924264  1.0000
  I   I2        1.0  0.7437094384245954  0.7437093330757559  0.25629065066623274  1.0000
  I   I3        1.0  0.7437094295325354  0.25629057780958747  0.2562906191079895  1.0000
  I   I4        1.0  0.2562906156475801  0.7437093866677749  0.7437094088092613  1.0000
  I   I5        1.0  0.2562906323041994  0.7437093681773587  0.2562906342676599  1.0000
  I   I6        1.0  0.7437094202662139  0.2562906386918359  0.7437093993775291  1.0000
