data_image0
_chemical_formula_structural       Nb2GaI6
_chemical_formula_sum              "Nb2 Ga1 I6"
_cell_length_a       7.511674866856128
_cell_length_b       7.511674895733604
_cell_length_c       7.511674792742038
_cell_angle_alpha    60.00000121273869
_cell_angle_beta     60.00000035732315
_cell_angle_gamma    59.99999890746609

_space_group_name_H-M_alt    "P 1"
_space_group_IT_number       1

loop_
  _space_group_symop_operation_xyz
  'x, y, z'

loop_
  _atom_site_type_symbol
  _atom_site_label
  _atom_site_symmetry_multiplicity
  _atom_site_fract_x
  _atom_site_fract_y
  _atom_site_fract_z
  _atom_site_occupancy
  Nb  Nb1       1.0  0.249999869376656  0.25000014289988093  0.24999997986256012  1.0000
  Nb  Nb2       1.0  0.7500000620967564  0.7499998922799062  0.7499999848079346  1.0000
  Ga  Ga1       1.0  3.260910425206148e-09  0.9999999902172693  0.9999999926108217  1.0000
  I   I1        1.0  0.2562905506190695  0.25629064332934137  0.743709410847475  1.0000
  I   I2        1.0  0.7437094554795449  0.7437093478281569  0.25629058777822133  1.0000
  I   I3        1.0  0.7437094392924744  0.25629058227904444  0.2562905847337977  1.0000
  I   I4        1.0  0.25629058733332694  0.7437094072479984  0.7437094257437095  1.0000
  I   I5        1.0  0.2562906214947539  0.7437093688705415  0.2562906083445662  1.0000
  I   I6        1.0  0.7437094112798786  0.25629062065650154  0.7437094283462682  1.0000
