data_image0
_chemical_formula_structural       Nb2GaTe6
_chemical_formula_sum              "Nb2 Ga1 Te6"
_cell_length_a       6.9957439964572865
_cell_length_b       6.995743980981772
_cell_length_c       6.995744094447213
_cell_angle_alpha    59.99999960605134
_cell_angle_beta     59.99999939400161
_cell_angle_gamma    59.99999953039024

_space_group_name_H-M_alt    "P 1"
_space_group_IT_number       1

loop_
  _space_group_symop_operation_xyz
  'x, y, z'

loop_
  _atom_site_type_symbol
  _atom_site_label
  _atom_site_symmetry_multiplicity
  _atom_site_fract_x
  _atom_site_fract_y
  _atom_site_fract_z
  _atom_site_occupancy
  Nb  Nb1       1.0  0.24999996705355101  0.2499999632354823  0.25000003239333946  1.0000
  Nb  Nb2       1.0  0.7500000794370663  0.750000033263844  0.7499999148215055  1.0000
  Ga  Ga1       1.0  3.2911390926410894e-08  5.2520999020840676e-09  2.3598621926458404e-09  1.0000
  Te  Te1       1.0  0.26443598360159404  0.2644359788804816  0.7355640152642391  1.0000
  Te  Te2       1.0  0.7355640120387258  0.7355639721006456  0.26443604160079603  1.0000
  Te  Te3       1.0  0.7355640233744136  0.26443597415009845  0.26443601751378215  1.0000
  Te  Te4       1.0  0.2644359512575065  0.7355640398562276  0.7355639854657218  1.0000
  Te  Te5       1.0  0.2644359608264443  0.7355640230844882  0.2644360053239675  1.0000
  Te  Te6       1.0  0.73556399184737  0.2644360171823374  0.7355639769216131  1.0000
