data_image0
_chemical_formula_structural       Nb2GeCl6
_chemical_formula_sum              "Nb2 Ge1 Cl6"
_cell_length_a       6.640087747062921
_cell_length_b       6.640087582307109
_cell_length_c       6.640087484969719
_cell_angle_alpha    59.99999668734628
_cell_angle_beta     59.999997955138326
_cell_angle_gamma    59.99999688651705

_space_group_name_H-M_alt    "P 1"
_space_group_IT_number       1

loop_
  _space_group_symop_operation_xyz
  'x, y, z'

loop_
  _atom_site_type_symbol
  _atom_site_label
  _atom_site_symmetry_multiplicity
  _atom_site_fract_x
  _atom_site_fract_y
  _atom_site_fract_z
  _atom_site_occupancy
  Nb  Nb1       1.0  0.24999996452067794  0.24999992806524649  0.24999990880494818  1.0000
  Nb  Nb2       1.0  0.750000071390304  0.7500000645553145  0.7500001750228237  1.0000
  Ge  Ge1       1.0  8.291069437578152e-09  0.9999999907776439  3.0585728495476455e-08  1.0000
  Cl  Cl1       1.0  0.25323211938324935  0.25323221368653986  0.7467678792767244  1.0000
  Cl  Cl2       1.0  0.7467678206726477  0.746767790000853  0.2532320903207338  1.0000
  Cl  Cl3       1.0  0.7467678700739669  0.2532322172359346  0.2532321430445968  1.0000
  Cl  Cl4       1.0  0.2532320638155939  0.7467678362521761  0.7467678032296651  1.0000
  Cl  Cl5       1.0  0.2532322406464639  0.7467679139623749  0.2532320941737963  1.0000
  Cl  Cl6       1.0  0.7467678369127464  0.2532320528355944  0.7467678793328677  1.0000
