data_image0
_chemical_formula_structural       Nb2HfI6
_chemical_formula_sum              "Nb2 Hf1 I6"
_cell_length_a       7.724514020381699
_cell_length_b       7.724514003421092
_cell_length_c       7.7245141081628645
_cell_angle_alpha    59.999998920552486
_cell_angle_beta     59.99999989721736
_cell_angle_gamma    59.99999975583202

_space_group_name_H-M_alt    "P 1"
_space_group_IT_number       1

loop_
  _space_group_symop_operation_xyz
  'x, y, z'

loop_
  _atom_site_type_symbol
  _atom_site_label
  _atom_site_symmetry_multiplicity
  _atom_site_fract_x
  _atom_site_fract_y
  _atom_site_fract_z
  _atom_site_occupancy
  Nb  Nb1       1.0  0.25000006447473916  0.24999998725121575  0.24999987842837357  1.0000
  Nb  Nb2       1.0  0.7499999584008552  0.7499999268719847  0.7499999165251512  1.0000
  Hf  Hf1       1.0  2.5647610869437457e-10  1.2684240083583125e-08  3.8862803171929135e-09  1.0000
  I   I1        1.0  0.25549401841746233  0.2554940508222707  0.7445059765783796  1.0000
  I   I2        1.0  0.7445059590218316  0.7445059727024985  0.2554940854404462  1.0000
  I   I3        1.0  0.7445060137482137  0.255494040488282  0.2554940441909361  1.0000
  I   I4        1.0  0.2554940317444072  0.7445059941351976  0.7445059834301904  1.0000
  I   I5        1.0  0.25549403244799535  0.744505925202946  0.2554940878480951  1.0000
  I   I6        1.0  0.7445059178274864  0.2554940856375826  0.7445060251646723  1.0000
