data_image0
_chemical_formula_structural       Nb2HfF6
_chemical_formula_sum              "Nb2 Hf1 F6"
_cell_length_a       5.838369079367672
_cell_length_b       5.838369437408234
_cell_length_c       5.8383706951258105
_cell_angle_alpha    60.000005928813685
_cell_angle_beta     60.00000120814358
_cell_angle_gamma    59.999999528060705

_space_group_name_H-M_alt    "P 1"
_space_group_IT_number       1

loop_
  _space_group_symop_operation_xyz
  'x, y, z'

loop_
  _atom_site_type_symbol
  _atom_site_label
  _atom_site_symmetry_multiplicity
  _atom_site_fract_x
  _atom_site_fract_y
  _atom_site_fract_z
  _atom_site_occupancy
  Nb  Nb1       1.0  0.24999761336117973  0.2499996746664351  0.2500028582469021  1.0000
  Nb  Nb2       1.0  0.7500027799389701  0.7499992211867234  0.7499971174513722  1.0000
  Hf  Hf1       1.0  0.9999999912078897  1.1537630428986835e-07  0.9999997017765665  1.0000
  F   F1        1.0  0.24550087128569809  0.24550266413270272  0.7544977849991413  1.0000
  F   F2        1.0  0.754498669659207  0.7544981301856512  0.24550236818218762  1.0000
  F   F3        1.0  0.7544986867447732  0.24550148729466087  0.24550209221704802  1.0000
  F   F4        1.0  0.24550164358459656  0.7544986714049277  0.7544977048939505  1.0000
  F   F5        1.0  0.2455004945560159  0.7544982803681228  0.24550309502010276  1.0000
  F   F6        1.0  0.7544992383640521  0.24550188462477746  0.7544972357289652  1.0000
