data_image0
_chemical_formula_structural       Nb2HfCl6
_chemical_formula_sum              "Nb2 Hf1 Cl6"
_cell_length_a       6.704116925697317
_cell_length_b       6.70411675844558
_cell_length_c       6.704116369086431
_cell_angle_alpha    59.99999934099338
_cell_angle_beta     60.00000011264239
_cell_angle_gamma    59.999999184578584

_space_group_name_H-M_alt    "P 1"
_space_group_IT_number       1

loop_
  _space_group_symop_operation_xyz
  'x, y, z'

loop_
  _atom_site_type_symbol
  _atom_site_label
  _atom_site_symmetry_multiplicity
  _atom_site_fract_x
  _atom_site_fract_y
  _atom_site_fract_z
  _atom_site_occupancy
  Nb  Nb1       1.0  0.24999996174409173  0.24999978590440386  0.25000034535648374  1.0000
  Nb  Nb2       1.0  0.7499999751952642  0.7500004209428114  0.749999312416673  1.0000
  Hf  Hf1       1.0  1.136112213364857e-08  0.9999999762508858  1.7191336142833118e-09  1.0000
  Cl  Cl1       1.0  0.25963073121671243  0.2596306760050541  0.7403693101606101  1.0000
  Cl  Cl2       1.0  0.7403692935847797  0.7403693189269799  0.25963081237671054  1.0000
  Cl  Cl3       1.0  0.740369340511849  0.2596305486082532  0.2596308056970022  1.0000
  Cl  Cl4       1.0  0.25963070908355457  0.7403693202707898  0.7403693421123051  1.0000
  Cl  Cl5       1.0  0.2596306476640463  0.7403692637809539  0.25963074848908735  1.0000
  Cl  Cl6       1.0  0.7403693451436747  0.25963069278712786  0.7403693152549806  1.0000
