data_image0
_chemical_formula_structural       Nb2HfBr6
_chemical_formula_sum              "Nb2 Hf1 Br6"
_cell_length_a       6.932517771331735
_cell_length_b       6.932517662973649
_cell_length_c       6.932517546904165
_cell_angle_alpha    60.00000074308891
_cell_angle_beta     60.000000456429895
_cell_angle_gamma    59.99999981621254

_space_group_name_H-M_alt    "P 1"
_space_group_IT_number       1

loop_
  _space_group_symop_operation_xyz
  'x, y, z'

loop_
  _atom_site_type_symbol
  _atom_site_label
  _atom_site_symmetry_multiplicity
  _atom_site_fract_x
  _atom_site_fract_y
  _atom_site_fract_z
  _atom_site_occupancy
  Nb  Nb1       1.0  0.2500000202191066  0.24999995725609192  0.25000005035040757  1.0000
  Nb  Nb2       1.0  0.7499999665564391  0.7499999442016139  0.7500001445752652  1.0000
  Hf  Hf1       1.0  0.999999993522222  1.943333444951229e-08  0.9999999574602865  1.0000
  Br  Br1       1.0  0.25938286879955536  0.2593828592201848  0.7406171211783643  1.0000
  Br  Br2       1.0  0.7406171269247228  0.7406171553041941  0.2593828281024965  1.0000
  Br  Br3       1.0  0.74061713402107  0.25938286494443114  0.25938282834430626  1.0000
  Br  Br4       1.0  0.259382854434466  0.7406171813799499  0.7406171303080858  1.0000
  Br  Br5       1.0  0.2593828640196382  0.7406171615635042  0.2593828266133797  1.0000
  Br  Br6       1.0  0.7406171666828569  0.2593828529608746  0.7406171138332369  1.0000
