data_image0
_chemical_formula_structural       Nb2IrCl6
_chemical_formula_sum              "Nb2 Ir1 Cl6"
_cell_length_a       6.629061164815767
_cell_length_b       6.629060969621287
_cell_length_c       6.629060745125957
_cell_angle_alpha    60.000001931589914
_cell_angle_beta     60.000002709334126
_cell_angle_gamma    60.0000024031657

_space_group_name_H-M_alt    "P 1"
_space_group_IT_number       1

loop_
  _space_group_symop_operation_xyz
  'x, y, z'

loop_
  _atom_site_type_symbol
  _atom_site_label
  _atom_site_symmetry_multiplicity
  _atom_site_fract_x
  _atom_site_fract_y
  _atom_site_fract_z
  _atom_site_occupancy
  Nb  Nb1       1.0  0.25000006897047383  0.25000000360592783  0.24999988456061542  1.0000
  Nb  Nb2       1.0  0.7499998915230266  0.750000199266754  0.7499998830875845  1.0000
  Ir  Ir1       1.0  0.9999999735729957  0.9999999852196879  3.568875129486044e-08  1.0000
  Cl  Cl1       1.0  0.2503599387680211  0.2503598762315  0.7496400461535125  1.0000
  Cl  Cl2       1.0  0.7496400673524917  0.7496400956988127  0.2503599665118071  1.0000
  Cl  Cl3       1.0  0.7496400586766842  0.2503598459010372  0.2503599651296339  1.0000
  Cl  Cl4       1.0  0.25035998838854295  0.7496400188720166  0.7496401575759336  1.0000
  Cl  Cl5       1.0  0.25035995481867956  0.7496401207499785  0.25035989696845945  1.0000
  Cl  Cl6       1.0  0.7496400575478299  0.25035985857049053  0.7496401677106477  1.0000
