data_image0
_chemical_formula_structural       Nb2IrF6
_chemical_formula_sum              "Nb2 Ir1 F6"
_cell_length_a       5.548932486470097
_cell_length_b       5.5489319265760635
_cell_length_c       5.5489320433788905
_cell_angle_alpha    59.99999492943851
_cell_angle_beta     59.99999150231424
_cell_angle_gamma    59.999996741597954

_space_group_name_H-M_alt    "P 1"
_space_group_IT_number       1

loop_
  _space_group_symop_operation_xyz
  'x, y, z'

loop_
  _atom_site_type_symbol
  _atom_site_label
  _atom_site_symmetry_multiplicity
  _atom_site_fract_x
  _atom_site_fract_y
  _atom_site_fract_z
  _atom_site_occupancy
  Nb  Nb1       1.0  0.25000078969440714  0.2500009543917247  0.2499967447357061  1.0000
  Nb  Nb2       1.0  0.7500013205598645  0.74999921030478  0.7500010856390523  1.0000
  Ir  Ir1       1.0  0.999999706587165  0.9999999999999906  3.5755783075571517e-07  1.0000
  F   F1        1.0  0.26466406933109893  0.264664775339244  0.7353366002829265  1.0000
  F   F2        1.0  0.7353355969306777  0.7353353672854617  0.26466377328620305  1.0000
  F   F3        1.0  0.7353355174995257  0.26466473894131465  0.2646645702803319  1.0000
  F   F4        1.0  0.264663981684841  0.7353349622489093  0.7353360426674231  1.0000
  F   F5        1.0  0.2646642440518274  0.7353355197770812  0.26466452527375395  1.0000
  F   F6        1.0  0.7353347637307356  0.26466448821009025  0.7353363385655354  1.0000
