data_image0
_chemical_formula_structural       Nb2IrI6
_chemical_formula_sum              "Nb2 Ir1 I6"
_cell_length_a       7.4756543852329
_cell_length_b       7.475654354780907
_cell_length_c       7.475654486926356
_cell_angle_alpha    59.999999326564
_cell_angle_beta     59.99999930988931
_cell_angle_gamma    60.00000017290183

_space_group_name_H-M_alt    "P 1"
_space_group_IT_number       1

loop_
  _space_group_symop_operation_xyz
  'x, y, z'

loop_
  _atom_site_type_symbol
  _atom_site_label
  _atom_site_symmetry_multiplicity
  _atom_site_fract_x
  _atom_site_fract_y
  _atom_site_fract_z
  _atom_site_occupancy
  Nb  Nb1       1.0  0.2500000111776267  0.250000046456331  0.2499999540464073  1.0000
  Nb  Nb2       1.0  0.7499999974794717  0.7499999509631968  0.7500000238628188  1.0000
  Ir  Ir1       1.0  0.9999999777355942  6.553244897198991e-09  4.129746846091526e-08  1.0000
  I   I1        1.0  0.25052751112502986  0.25052760557632564  0.7494724360872165  1.0000
  I   I2        1.0  0.7494725038818447  0.7494724098646263  0.2505275323117605  1.0000
  I   I3        1.0  0.7494724190281851  0.2505275783870237  0.25052755689163136  1.0000
  I   I4        1.0  0.2505275778180996  0.7494724173941929  0.7494724317551839  1.0000
  I   I5        1.0  0.25052757137964676  0.7494724125282055  0.2505275682293236  1.0000
  I   I6        1.0  0.7494724308339786  0.25052757178483215  0.7494724515590965  1.0000
