data_image0
_chemical_formula_structural       Nb2IrCl6
_chemical_formula_sum              "Nb2 Ir1 Cl6"
_cell_length_a       6.629111460256507
_cell_length_b       6.6291113113014095
_cell_length_c       6.629111633915996
_cell_angle_alpha    60.0000008427389
_cell_angle_beta     60.000002740709704
_cell_angle_gamma    60.000000220321944

_space_group_name_H-M_alt    "P 1"
_space_group_IT_number       1

loop_
  _space_group_symop_operation_xyz
  'x, y, z'

loop_
  _atom_site_type_symbol
  _atom_site_label
  _atom_site_symmetry_multiplicity
  _atom_site_fract_x
  _atom_site_fract_y
  _atom_site_fract_z
  _atom_site_occupancy
  Nb  Nb1       1.0  0.249999998102955  0.2500004103179542  0.24999970511999436  1.0000
  Nb  Nb2       1.0  0.7500001329432011  0.7499998065121114  0.7499999151474341  1.0000
  Ir  Ir1       1.0  0.999999962312982  0.9999999667445509  5.809869816494969e-08  1.0000
  Cl  Cl1       1.0  0.2503571163764198  0.25035718001755836  0.749642933577438  1.0000
  Cl  Cl2       1.0  0.7496428969839256  0.7496427837015905  0.2503571481434351  1.0000
  Cl  Cl3       1.0  0.7496427509870481  0.25035721181021797  0.2503571450059235  1.0000
  Cl  Cl4       1.0  0.25035725391156305  0.7496426780079319  0.7496429643198349  1.0000
  Cl  Cl5       1.0  0.2503570173425664  0.7496428002586256  0.2503573158248143  1.0000
  Cl  Cl6       1.0  0.7496428724511554  0.25035715791794855  0.7496428093316863  1.0000
