data_image0
_chemical_formula_structural       Nb2IrBr6
_chemical_formula_sum              "Nb2 Ir1 Br6"
_cell_length_a       6.8384050775817
_cell_length_b       6.838405445092394
_cell_length_c       6.838405350355366
_cell_angle_alpha    60.00000299203749
_cell_angle_beta     60.00000122589448
_cell_angle_gamma    59.99999895478983

_space_group_name_H-M_alt    "P 1"
_space_group_IT_number       1

loop_
  _space_group_symop_operation_xyz
  'x, y, z'

loop_
  _atom_site_type_symbol
  _atom_site_label
  _atom_site_symmetry_multiplicity
  _atom_site_fract_x
  _atom_site_fract_y
  _atom_site_fract_z
  _atom_site_occupancy
  Nb  Nb1       1.0  0.25000004025058215  0.24999986463746154  0.25000002568634394  1.0000
  Nb  Nb2       1.0  0.7499999174872831  0.7500000112107714  0.7500001689188489  1.0000
  Ir  Ir1       1.0  1.536667844975051e-08  5.014744292574424e-08  0.9999999350716976  1.0000
  Br  Br1       1.0  0.25178884822929576  0.25178890209692006  0.7482111271383762  1.0000
  Br  Br2       1.0  0.748211162874953  0.7482110973289379  0.25178881813860066  1.0000
  Br  Br3       1.0  0.7482111166312024  0.25178891988537966  0.2517887962393192  1.0000
  Br  Br4       1.0  0.2517888391750856  0.7482112049090919  0.7482111534852217  1.0000
  Br  Br5       1.0  0.2517888926946836  0.7482111631873296  0.2517887748143259  1.0000
  Br  Br6       1.0  0.748211159259682  0.25178878967304336  0.7482112040292489  1.0000
