data_image0
_chemical_formula_structural       Nb2IrBr6
_chemical_formula_sum              "Nb2 Ir1 Br6"
_cell_length_a       6.838573096734253
_cell_length_b       6.838572722065952
_cell_length_c       6.838572922615291
_cell_angle_alpha    60.00000148670552
_cell_angle_beta     60.0000020044602
_cell_angle_gamma    60.000001380460965

_space_group_name_H-M_alt    "P 1"
_space_group_IT_number       1

loop_
  _space_group_symop_operation_xyz
  'x, y, z'

loop_
  _atom_site_type_symbol
  _atom_site_label
  _atom_site_symmetry_multiplicity
  _atom_site_fract_x
  _atom_site_fract_y
  _atom_site_fract_z
  _atom_site_occupancy
  Nb  Nb1       1.0  0.2500000825769428  0.2500000226215089  0.25000014999454867  1.0000
  Nb  Nb2       1.0  0.7500000686813942  0.7500000123454824  0.7499999370194304  1.0000
  Ir  Ir1       1.0  0.9999999680382923  0.9999999641812719  1.7804989658516017e-08  1.0000
  Br  Br1       1.0  0.25178539949098927  0.25178538122730953  0.748214560577776  1.0000
  Br  Br2       1.0  0.7482145075302475  0.7482146519487364  0.2517854154832806  1.0000
  Br  Br3       1.0  0.7482145669939327  0.2517853911640528  0.25178545409383074  1.0000
  Br  Br4       1.0  0.25178540779016395  0.7482146008204578  0.7482145042946835  1.0000
  Br  Br5       1.0  0.25178543846976476  0.7482145318646173  0.25178543531514636  1.0000
  Br  Br6       1.0  0.7482145701869748  0.25178545474708475  0.7482145175972109  1.0000
