data_image0
_chemical_formula_structural       Nb2MnF6
_chemical_formula_sum              "Nb2 Mn1 F6"
_cell_length_a       4.714194937723428
_cell_length_b       4.714195349615091
_cell_length_c       4.714195115906971
_cell_angle_alpha    59.999995008298285
_cell_angle_beta     60.00000032736243
_cell_angle_gamma    60.000002967990994

_space_group_name_H-M_alt    "P 1"
_space_group_IT_number       1

loop_
  _space_group_symop_operation_xyz
  'x, y, z'

loop_
  _atom_site_type_symbol
  _atom_site_label
  _atom_site_symmetry_multiplicity
  _atom_site_fract_x
  _atom_site_fract_y
  _atom_site_fract_z
  _atom_site_occupancy
  Nb  Nb1       1.0  0.2500002959580526  0.2499998547238967  0.25000001312196557  1.0000
  Nb  Nb2       1.0  0.7500001472260412  0.7500001695042048  0.7499994706477923  1.0000
  Mn  Mn1       1.0  5.753867726775467e-07  1.4029162452281564e-07  2.9338543757075835e-07  1.0000
  F   F1        1.0  0.251812069076792  0.2518116835126818  0.7481885201147864  1.0000
  F   F2        1.0  0.748187778977391  0.7481867091753588  0.25181314822273987  1.0000
  F   F3        1.0  0.7481882764007777  0.2518120740881164  0.2518123813891224  1.0000
  F   F4        1.0  0.2518126729543216  0.7481874383352374  0.7481876185407369  1.0000
  F   F5        1.0  0.2518112141804752  0.7481888737334613  0.25181156974166097  1.0000
  F   F6        1.0  0.748186788734619  0.2518132834473479  0.7481866379616608  1.0000
