data_image0
_chemical_formula_structural       Nb2MoBr6
_chemical_formula_sum              "Nb2 Mo1 Br6"
_cell_length_a       6.710546586743707
_cell_length_b       6.710546371591648
_cell_length_c       6.710546481733146
_cell_angle_alpha    59.99999849636374
_cell_angle_beta     59.999998966802785
_cell_angle_gamma    60.00000212739796

_space_group_name_H-M_alt    "P 1"
_space_group_IT_number       1

loop_
  _space_group_symop_operation_xyz
  'x, y, z'

loop_
  _atom_site_type_symbol
  _atom_site_label
  _atom_site_symmetry_multiplicity
  _atom_site_fract_x
  _atom_site_fract_y
  _atom_site_fract_z
  _atom_site_occupancy
  Nb  Nb1       1.0  0.2500000194340015  0.24999996134662747  0.25000007924488954  1.0000
  Nb  Nb2       1.0  0.7499999801029092  0.7499999844206305  0.7500001342519632  1.0000
  Mo  Mo1       1.0  1.0741867231031208e-08  0.9999999780987456  1.6011034793754133e-08  1.0000
  Br  Br1       1.0  0.2616040345599704  0.26160398870272034  0.7383959786743124  1.0000
  Br  Br2       1.0  0.7383959420318982  0.738396077521439  0.2616039535967203  1.0000
  Br  Br3       1.0  0.7383959910801873  0.26160399648548066  0.2616040399707027  1.0000
  Br  Br4       1.0  0.26160407848455586  0.73839597665835  0.7383958849030987  1.0000
  Br  Br5       1.0  0.2616040154720463  0.7383960228592993  0.26160399734191325  1.0000
  Br  Br6       1.0  0.7383959237857697  0.2616040159882904  0.738395916617917  1.0000
