data_image0
_chemical_formula_structural       Nb2MoF6
_chemical_formula_sum              "Nb2 Mo1 F6"
_cell_length_a       5.642249644277059
_cell_length_b       5.642245926416473
_cell_length_c       5.642248858077905
_cell_angle_alpha    60.00000050420101
_cell_angle_beta     60.000008625227956
_cell_angle_gamma    60.00001018054151

_space_group_name_H-M_alt    "P 1"
_space_group_IT_number       1

loop_
  _space_group_symop_operation_xyz
  'x, y, z'

loop_
  _atom_site_type_symbol
  _atom_site_label
  _atom_site_symmetry_multiplicity
  _atom_site_fract_x
  _atom_site_fract_y
  _atom_site_fract_z
  _atom_site_occupancy
  Nb  Nb1       1.0  0.24999939406514685  0.24999758180321244  0.2500008124109728  1.0000
  Nb  Nb2       1.0  0.749996296791742  0.7500010048054272  0.7500007496400577  1.0000
  Mo  Mo1       1.0  2.5111946251851407e-07  2.1055497270581013e-07  0.999999848918251  1.0000
  F   F1        1.0  0.2592493534673286  0.25924703866001314  0.7407522455857997  1.0000
  F   F2        1.0  0.7407519924442793  0.740752129689481  0.25924777722526426  1.0000
  F   F3        1.0  0.7407520731548196  0.2592477684303214  0.25924848001034073  1.0000
  F   F4        1.0  0.2592495334521862  0.7407525395205626  0.7407511386337627  1.0000
  F   F5        1.0  0.25924879851413185  0.740752715077172  0.25924752008531365  1.0000
  F   F6        1.0  0.7407523482022229  0.2592488865923452  0.740751414021172  1.0000
