data_image0
_chemical_formula_structural       Nb2MoF6
_chemical_formula_sum              "Nb2 Mo1 F6"
_cell_length_a       5.644797604799133
_cell_length_b       5.644795907004346
_cell_length_c       5.644795848818959
_cell_angle_alpha    60.00000259342855
_cell_angle_beta     59.99999770882723
_cell_angle_gamma    60.000006024443024

_space_group_name_H-M_alt    "P 1"
_space_group_IT_number       1

loop_
  _space_group_symop_operation_xyz
  'x, y, z'

loop_
  _atom_site_type_symbol
  _atom_site_label
  _atom_site_symmetry_multiplicity
  _atom_site_fract_x
  _atom_site_fract_y
  _atom_site_fract_z
  _atom_site_occupancy
  Nb  Nb1       1.0  0.2499992246357739  0.25000085546749384  0.2500018989785078  1.0000
  Nb  Nb2       1.0  0.749996888923141  0.7499995700624055  0.7500037752365952  1.0000
  Mo  Mo1       1.0  6.612228793249431e-08  0.9999998936852572  0.9999997773947936  1.0000
  F   F1        1.0  0.25913367416841676  0.25913383194603146  0.7408652330876204  1.0000
  F   F2        1.0  0.7408671733670729  0.740865389406929  0.2591331064952066  1.0000
  F   F3        1.0  0.7408660594252395  0.25913409723237735  0.25913304570547474  1.0000
  F   F4        1.0  0.2591349016807855  0.7408670356161845  0.7408655196530396  1.0000
  F   F5        1.0  0.2591356314897462  0.7408663733726262  0.2591313996731512  1.0000
  F   F6        1.0  0.740866421585548  0.25913291958019014  0.7408663066543619  1.0000
