data_image0
_chemical_formula_structural       Nb2MoBr6
_chemical_formula_sum              "Nb2 Mo1 Br6"
_cell_length_a       6.710506475394996
_cell_length_b       6.710506300453253
_cell_length_c       6.71050615264514
_cell_angle_alpha    59.999999333637454
_cell_angle_beta     60.00000080122509
_cell_angle_gamma    59.999998627277044

_space_group_name_H-M_alt    "P 1"
_space_group_IT_number       1

loop_
  _space_group_symop_operation_xyz
  'x, y, z'

loop_
  _atom_site_type_symbol
  _atom_site_label
  _atom_site_symmetry_multiplicity
  _atom_site_fract_x
  _atom_site_fract_y
  _atom_site_fract_z
  _atom_site_occupancy
  Nb  Nb1       1.0  0.2500000990271352  0.2499999818789176  0.2499999470259254  1.0000
  Nb  Nb2       1.0  0.7499998810630757  0.7499999547623322  0.7500001652303989  1.0000
  Mo  Mo1       1.0  0.9999999973040238  1.1133204467682944e-07  0.9999998920347446  1.0000
  Br  Br1       1.0  0.26161386552859334  0.2616139389056385  0.7383860856180848  1.0000
  Br  Br2       1.0  0.7383861128050637  0.738386059789539  0.2616138862147106  1.0000
  Br  Br3       1.0  0.7383860658071885  0.2616138813756834  0.2616138623339144  1.0000
  Br  Br4       1.0  0.26161397541236137  0.7383860680413763  0.7383860535183753  1.0000
  Br  Br5       1.0  0.26161392215490037  0.7383861617636873  0.2616138573542025  1.0000
  Br  Br6       1.0  0.7383860771228109  0.2616138515324118  0.7383862382751575  1.0000
