data_image0
_chemical_formula_structural       Nb2MoCl6
_chemical_formula_sum              "Nb2 Mo1 Cl6"
_cell_length_a       6.495605448660359
_cell_length_b       6.495605528516891
_cell_length_c       6.495605337027569
_cell_angle_alpha    60.0000002315302
_cell_angle_beta     60.00000046307188
_cell_angle_gamma    60.00000101057557

_space_group_name_H-M_alt    "P 1"
_space_group_IT_number       1

loop_
  _space_group_symop_operation_xyz
  'x, y, z'

loop_
  _atom_site_type_symbol
  _atom_site_label
  _atom_site_symmetry_multiplicity
  _atom_site_fract_x
  _atom_site_fract_y
  _atom_site_fract_z
  _atom_site_occupancy
  Nb  Nb1       1.0  0.2500004939788636  0.2499993445708581  0.24999961595947875  1.0000
  Nb  Nb2       1.0  0.7499994880184438  0.7500005810198005  0.7500009266225542  1.0000
  Mo  Mo1       1.0  0.9999999261637682  1.88549757687803e-08  0.9999999936215752  1.0000
  Cl  Cl1       1.0  0.258839275865732  0.25883890407295745  0.7411611690032031  1.0000
  Cl  Cl2       1.0  0.7411607132422311  0.7411610215177062  0.2588387434460233  1.0000
  Cl  Cl3       1.0  0.7411607873635245  0.25883922047580316  0.25883908666003497  1.0000
  Cl  Cl4       1.0  0.2588391446741748  0.741161025649452  0.7411607325445858  1.0000
  Cl  Cl5       1.0  0.2588394440155391  0.7411610144394073  0.25883879282721095  1.0000
  Cl  Cl6       1.0  0.7411607229851788  0.2588388734413066  0.7411609386864401  1.0000
