data_image0
_chemical_formula_structural       Nb2MnI6
_chemical_formula_sum              "Nb2 Mn1 I6"
_cell_length_a       7.428463488277889
_cell_length_b       7.428463545687242
_cell_length_c       7.428463538756161
_cell_angle_alpha    60.000000431683034
_cell_angle_beta     60.00000037001102
_cell_angle_gamma    60.00000033849953

_space_group_name_H-M_alt    "P 1"
_space_group_IT_number       1

loop_
  _space_group_symop_operation_xyz
  'x, y, z'

loop_
  _atom_site_type_symbol
  _atom_site_label
  _atom_site_symmetry_multiplicity
  _atom_site_fract_x
  _atom_site_fract_y
  _atom_site_fract_z
  _atom_site_occupancy
  Nb  Nb1       1.0  0.2500000666108038  0.2499999367500537  0.2499999558606577  1.0000
  Nb  Nb2       1.0  0.7499999650815571  0.7499998663066061  0.7500001507781464  1.0000
  Mn  Mn1       1.0  0.999999980719187  0.9999999785666536  0.999999988048918  1.0000
  I   I1        1.0  0.2523750913118514  0.25237514177615594  0.7476248882147439  1.0000
  I   I2        1.0  0.747624947880397  0.7476249745371051  0.2523750257376553  1.0000
  I   I3        1.0  0.7476248760336592  0.2523751177502634  0.25237509002670705  1.0000
  I   I4        1.0  0.25237506863758613  0.7476249556963048  0.7476249020427533  1.0000
  I   I5        1.0  0.25237510153346615  0.7476249413693646  0.2523750633950487  1.0000
  I   I6        1.0  0.7476248983913558  0.252375087561792  0.7476249300361961  1.0000
