data_image0
_chemical_formula_structural       Nb2MoCl6
_chemical_formula_sum              "Nb2 Mo1 Cl6"
_cell_length_a       6.495634051374923
_cell_length_b       6.495633863128347
_cell_length_c       6.495634002986631
_cell_angle_alpha    60.000002244491796
_cell_angle_beta     60.000004174870774
_cell_angle_gamma    60.00000258008333

_space_group_name_H-M_alt    "P 1"
_space_group_IT_number       1

loop_
  _space_group_symop_operation_xyz
  'x, y, z'

loop_
  _atom_site_type_symbol
  _atom_site_label
  _atom_site_symmetry_multiplicity
  _atom_site_fract_x
  _atom_site_fract_y
  _atom_site_fract_z
  _atom_site_occupancy
  Nb  Nb1       1.0  0.24999980359398166  0.2500006297434088  0.2499995266983768  1.0000
  Nb  Nb2       1.0  0.7500002344325805  0.749999588933233  0.7499992583779541  1.0000
  Mo  Mo1       1.0  1.4868251509236524e-08  0.9999999660611938  1.08062995757607e-07  1.0000
  Cl  Cl1       1.0  0.2588379676389634  0.25883808050057394  0.7411620782297602  1.0000
  Cl  Cl2       1.0  0.7411621420917462  0.7411618270703553  0.25883836450345776  1.0000
  Cl  Cl3       1.0  0.7411618835011021  0.258837922518032  0.25883817626597483  1.0000
  Cl  Cl4       1.0  0.25883809215372094  0.7411618379847218  0.7411621684174482  1.0000
  Cl  Cl5       1.0  0.25883789461558837  0.7411618666877502  0.25883824588517645  1.0000
  Cl  Cl6       1.0  0.7411619523053047  0.25883827468385223  0.7411620881929623  1.0000
