data_image0
_chemical_formula_structural       Nb2NiI6
_chemical_formula_sum              "Nb2 Ni1 I6"
_cell_length_a       7.3015751588040985
_cell_length_b       7.30157503256121
_cell_length_c       7.301575163426044
_cell_angle_alpha    60.000000460995174
_cell_angle_beta     59.99999985697334
_cell_angle_gamma    59.999999683617666

_space_group_name_H-M_alt    "P 1"
_space_group_IT_number       1

loop_
  _space_group_symop_operation_xyz
  'x, y, z'

loop_
  _atom_site_type_symbol
  _atom_site_label
  _atom_site_symmetry_multiplicity
  _atom_site_fract_x
  _atom_site_fract_y
  _atom_site_fract_z
  _atom_site_occupancy
  Nb  Nb1       1.0  0.2499999328161867  0.25000002299885504  0.25000002224880274  1.0000
  Nb  Nb2       1.0  0.7500000191951511  0.7500000757060493  0.7500000831272825  1.0000
  Ni  Ni1       1.0  1.9056755097580278e-08  2.3483191136438152e-08  0.9999999883169995  1.0000
  I   I1        1.0  0.25124510714409737  0.25124500567052754  0.7487549284579259  1.0000
  I   I2        1.0  0.7487549460657882  0.7487549554899693  0.251244992395099  1.0000
  I   I3        1.0  0.7487549658785736  0.2512450448584754  0.2512450173551676  1.0000
  I   I4        1.0  0.25124497119819533  0.7487549800421122  0.7487549666726933  1.0000
  I   I5        1.0  0.2512450906561765  0.7487549034192612  0.25124501915097575  1.0000
  I   I6        1.0  0.7487549475232088  0.2512449889690337  0.7487549874295594  1.0000
