data_image0
_chemical_formula_structural       Nb2NCl6
_chemical_formula_sum              "Nb2 N1 Cl6"
_cell_length_a       6.339450548841576
_cell_length_b       6.339450605272564
_cell_length_c       6.33945054506558
_cell_angle_alpha    59.99999996345705
_cell_angle_beta     60.00000069891363
_cell_angle_gamma    60.000000774082615

_space_group_name_H-M_alt    "P 1"
_space_group_IT_number       1

loop_
  _space_group_symop_operation_xyz
  'x, y, z'

loop_
  _atom_site_type_symbol
  _atom_site_label
  _atom_site_symmetry_multiplicity
  _atom_site_fract_x
  _atom_site_fract_y
  _atom_site_fract_z
  _atom_site_occupancy
  Nb  Nb1       1.0  0.2500000706484099  0.2499999753546301  0.25000013022972256  1.0000
  Nb  Nb2       1.0  0.7499999413726622  0.7500001694885408  0.7499998568970747  1.0000
  N   N1        1.0  0.9999999794462424  1.5455533182263165e-07  0.999999997673587  1.0000
  Cl  Cl1       1.0  0.25299878976589335  0.2529986256809641  0.7470012195441308  1.0000
  Cl  Cl2       1.0  0.7470011491067916  0.7470012796014417  0.25299883402408757  1.0000
  Cl  Cl3       1.0  0.7470012942918929  0.2529986978753124  0.2529987640018322  1.0000
  Cl  Cl4       1.0  0.2529987565543273  0.7470011938835027  0.7470011993283967  1.0000
  Cl  Cl5       1.0  0.2529987091545682  0.7470011565446251  0.2529988044616337  1.0000
  Cl  Cl6       1.0  0.7470013007547471  0.2529987487377813  0.7470011851946418  1.0000
