data_image0
_chemical_formula_structural       Nb2NCl6
_chemical_formula_sum              "Nb2 N1 Cl6"
_cell_length_a       6.339480371630433
_cell_length_b       6.339480555669351
_cell_length_c       6.339480460422452
_cell_angle_alpha    60.000001122968335
_cell_angle_beta     59.99999967654605
_cell_angle_gamma    60.000001409592414

_space_group_name_H-M_alt    "P 1"
_space_group_IT_number       1

loop_
  _space_group_symop_operation_xyz
  'x, y, z'

loop_
  _atom_site_type_symbol
  _atom_site_label
  _atom_site_symmetry_multiplicity
  _atom_site_fract_x
  _atom_site_fract_y
  _atom_site_fract_z
  _atom_site_occupancy
  Nb  Nb1       1.0  0.24999993468952697  0.25000020474351103  0.2499998906842825  1.0000
  Nb  Nb2       1.0  0.7500000040173616  0.7499998395256032  0.7499998963342652  1.0000
  N   N1        1.0  0.9999999830166513  9.466469062589633e-08  0.9999997229694637  1.0000
  Cl  Cl1       1.0  0.25299524432611603  0.25299529264880266  0.7470047392198479  1.0000
  Cl  Cl2       1.0  0.7470046685680525  0.7470047361648537  0.2529953949579689  1.0000
  Cl  Cl3       1.0  0.7470047382005316  0.25299530691258687  0.25299531710808815  1.0000
  Cl  Cl4       1.0  0.2529952905873801  0.747004598257391  0.7470048998155125  1.0000
  Cl  Cl5       1.0  0.25299531400739417  0.7470045969448807  0.252995381271094  1.0000
  Cl  Cl6       1.0  0.7470048268450602  0.2529953217486249  0.7470047586617246  1.0000
