data_image0
_chemical_formula_structural       Nb2NF6
_chemical_formula_sum              "Nb2 N1 F6"
_cell_length_a       5.444874658053011
_cell_length_b       7.392433484518343
_cell_length_c       5.374371060915054
_cell_angle_alpha    58.56538287192397
_cell_angle_beta     93.7845671767942
_cell_angle_gamma    61.06551053080365

_space_group_name_H-M_alt    "P 1"
_space_group_IT_number       1

loop_
  _space_group_symop_operation_xyz
  'x, y, z'

loop_
  _atom_site_type_symbol
  _atom_site_label
  _atom_site_symmetry_multiplicity
  _atom_site_fract_x
  _atom_site_fract_y
  _atom_site_fract_z
  _atom_site_occupancy
  Nb  Nb1       1.0  0.6785084282570104  0.19631353294977005  0.11234218750129929  1.0000
  Nb  Nb2       1.0  0.8319205419248763  0.8617114272853909  0.9305729505875051  1.0000
  N   N1        1.0  0.011015172406935532  0.893300812214002  0.19688458153308144  1.0000
  F   F1        1.0  0.5416664045418461  0.009966561900337055  0.4426568959983704  1.0000
  F   F2        1.0  0.7040703438500931  0.6642575670113832  0.19172606686686117  1.0000
  F   F3        1.0  0.8706773730393995  0.12796663592933152  0.5343187060686536  1.0000
  F   F4        1.0  0.20263267633409782  0.5670976270437076  0.9721194990740505  1.0000
  F   F5        1.0  0.7493438096324297  0.44735105105498096  0.8572855982418758  1.0000
  F   F6        1.0  0.41013408263797335  0.23203832833014354  0.7620870128520426  1.0000
