data_image0
_chemical_formula_structural       Nb2NF6
_chemical_formula_sum              "Nb2 N1 F6"
_cell_length_a       5.72876426053306
_cell_length_b       6.172530742405596
_cell_length_c       6.728915603654631
_cell_angle_alpha    47.12911033003094
_cell_angle_beta     61.65814148219258
_cell_angle_gamma    57.133147917656856

_space_group_name_H-M_alt    "P 1"
_space_group_IT_number       1

loop_
  _space_group_symop_operation_xyz
  'x, y, z'

loop_
  _atom_site_type_symbol
  _atom_site_label
  _atom_site_symmetry_multiplicity
  _atom_site_fract_x
  _atom_site_fract_y
  _atom_site_fract_z
  _atom_site_occupancy
  Nb  Nb1       1.0  0.43194183004014247  0.3438251821864962  0.36290717044467835  1.0000
  Nb  Nb2       1.0  0.6985372502401409  0.5412463839312125  0.6661849225827231  1.0000
  N   N1        1.0  0.5780996595073696  0.36691501193638726  0.03408181317628448  1.0000
  F   F1        1.0  0.10382657833318543  0.28490822494672274  0.74037487302346  1.0000
  F   F2        1.0  0.030852589256635143  0.567715290275454  0.2791287139415515  1.0000
  F   F3        1.0  0.7771561252127904  0.9163457322205479  0.5383775215992076  1.0000
  F   F4        1.0  0.3367623766309507  0.935588768729215  0.5513460405819811  1.0000
  F   F5        1.0  0.43782253267882376  0.7459222363619441  0.18971019197783637  1.0000
  F   F6        1.0  0.6049902566741232  0.29751909453179093  0.6379013659917799  1.0000
