data_image0
_chemical_formula_structural       Nb2NO6
_chemical_formula_sum              "Nb2 N1 O6"
_cell_length_a       4.769549576165806
_cell_length_b       4.7695495265423
_cell_length_c       4.769549673470012
_cell_angle_alpha    59.999999556675405
_cell_angle_beta     59.99999968039455
_cell_angle_gamma    59.99999881275906

_space_group_name_H-M_alt    "P 1"
_space_group_IT_number       1

loop_
  _space_group_symop_operation_xyz
  'x, y, z'

loop_
  _atom_site_type_symbol
  _atom_site_label
  _atom_site_symmetry_multiplicity
  _atom_site_fract_x
  _atom_site_fract_y
  _atom_site_fract_z
  _atom_site_occupancy
  Nb  Nb1       1.0  0.24999994095104752  0.2499998998972558  0.2500001113722193  1.0000
  Nb  Nb2       1.0  0.7499999660518802  0.7500000617574646  0.7499999326234287  1.0000
  N   N1        1.0  1.1413470591772168e-07  0.9999996430699838  1.5075052988043533e-07  1.0000
  O   O1        1.0  0.24620335547649894  0.24620332011794574  0.7537966401445024  1.0000
  O   O2        1.0  0.7537967916905316  0.7537967853359159  0.24620323493249857  1.0000
  O   O3        1.0  0.7537967175811083  0.24620329400012997  0.24620331494609055  1.0000
  O   O4        1.0  0.24620317650701806  0.7537968371321523  0.7537967346335377  1.0000
  O   O5        1.0  0.24620325232945026  0.753796829365132  0.24620316751685897  1.0000
  O   O6        1.0  0.753796690153168  0.24620334542046035  0.7537966808879528  1.0000
