data_image0
_chemical_formula_structural       Nb2NiBr6
_chemical_formula_sum              "Nb2 Ni1 Br6"
_cell_length_a       6.605197477197761
_cell_length_b       6.605197882182522
_cell_length_c       6.6051976002501
_cell_angle_alpha    59.99999996960668
_cell_angle_beta     60.000001400107365
_cell_angle_gamma    60.000000220378695

_space_group_name_H-M_alt    "P 1"
_space_group_IT_number       1

loop_
  _space_group_symop_operation_xyz
  'x, y, z'

loop_
  _atom_site_type_symbol
  _atom_site_label
  _atom_site_symmetry_multiplicity
  _atom_site_fract_x
  _atom_site_fract_y
  _atom_site_fract_z
  _atom_site_occupancy
  Nb  Nb1       1.0  0.250000010680464  0.2500001178858743  0.24999997765933826  1.0000
  Nb  Nb2       1.0  0.7499999926002335  0.7499999160631825  0.7500000609767933  1.0000
  Ni  Ni1       1.0  8.865086104959962e-09  0.9999999629157251  9.567717172065058e-09  1.0000
  Br  Br1       1.0  0.2530596263132759  0.25305961416912787  0.7469403808187484  1.0000
  Br  Br2       1.0  0.7469404219441903  0.7469403530282351  0.25305960966043645  1.0000
  Br  Br3       1.0  0.7469403895313778  0.2530596218398935  0.25305960403359035  1.0000
  Br  Br4       1.0  0.2530596273468863  0.746940371316462  0.7469403952115355  1.0000
  Br  Br5       1.0  0.2530595371342025  0.7469404387812907  0.25305955889114207  1.0000
  Br  Br6       1.0  0.7469403867547455  0.2530596025846249  0.746940396129653  1.0000
