data_image0
_chemical_formula_structural       Nb2OsCl6
_chemical_formula_sum              "Nb2 Os1 Cl6"
_cell_length_a       6.607456233196409
_cell_length_b       6.60745617301145
_cell_length_c       6.607456246996547
_cell_angle_alpha    59.99999854758401
_cell_angle_beta     60.000000327220945
_cell_angle_gamma    59.99999994392899

_space_group_name_H-M_alt    "P 1"
_space_group_IT_number       1

loop_
  _space_group_symop_operation_xyz
  'x, y, z'

loop_
  _atom_site_type_symbol
  _atom_site_label
  _atom_site_symmetry_multiplicity
  _atom_site_fract_x
  _atom_site_fract_y
  _atom_site_fract_z
  _atom_site_occupancy
  Nb  Nb1       1.0  0.249999940937568  0.25000008739790935  0.24999995827875465  1.0000
  Nb  Nb2       1.0  0.7499999229787756  0.7499998358703199  0.7499999667831749  1.0000
  Os  Os1       1.0  6.654075821534033e-09  4.819308093295312e-08  0.9999999907377219  1.0000
  Cl  Cl1       1.0  0.2534944100786622  0.25349436437938627  0.7465056679092134  1.0000
  Cl  Cl2       1.0  0.7465056156894525  0.7465056552750029  0.2534943868322857  1.0000
  Cl  Cl3       1.0  0.7465056360621911  0.2534944146870444  0.253494391382187  1.0000
  Cl  Cl4       1.0  0.25349448338731834  0.7465055493599444  0.7465056549164079  1.0000
  Cl  Cl5       1.0  0.25349435054197705  0.7465055802420689  0.25349438985929995  1.0000
  Cl  Cl6       1.0  0.7465056275116536  0.25349446721602187  0.7465055976520619  1.0000
