data_image0
_chemical_formula_structural       Nb2OsI6
_chemical_formula_sum              "Nb2 Os1 I6"
_cell_length_a       7.491421087684448
_cell_length_b       7.491421222920349
_cell_length_c       7.491421161544236
_cell_angle_alpha    60.00000004904574
_cell_angle_beta     60.00000043643089
_cell_angle_gamma    59.99999992362607

_space_group_name_H-M_alt    "P 1"
_space_group_IT_number       1

loop_
  _space_group_symop_operation_xyz
  'x, y, z'

loop_
  _atom_site_type_symbol
  _atom_site_label
  _atom_site_symmetry_multiplicity
  _atom_site_fract_x
  _atom_site_fract_y
  _atom_site_fract_z
  _atom_site_occupancy
  Nb  Nb1       1.0  0.2499999326329174  0.2500001914216908  0.2499999188681219  1.0000
  Nb  Nb2       1.0  0.7499999418629673  0.7499999759051477  0.7500001039396411  1.0000
  Os  Os1       1.0  1.0322050008414145e-08  2.4522947441446646e-08  1.4614146253655652e-08  1.0000
  I   I1        1.0  0.25121386734628165  0.25121384737991054  0.7487861367828252  1.0000
  I   I2        1.0  0.7487861675797743  0.7487860976055352  0.2512138649210017  1.0000
  I   I3        1.0  0.7487861536923891  0.25121386731247847  0.2512138230034968  1.0000
  I   I4        1.0  0.25121390147443695  0.748786040071114  0.7487861620185278  1.0000
  I   I5        1.0  0.25121389445031833  0.7487861097863467  0.25121382501559775  1.0000
  I   I6        1.0  0.748786126322965  0.25121384991286766  0.7487861497105269  1.0000
