data_image0
_chemical_formula_structural       Nb2OsF6
_chemical_formula_sum              "Nb2 Os1 F6"
_cell_length_a       5.681719792852051
_cell_length_b       5.681719269894504
_cell_length_c       5.681720008524685
_cell_angle_alpha    60.000004919867735
_cell_angle_beta     60.00000581631492
_cell_angle_gamma    60.00000279142276

_space_group_name_H-M_alt    "P 1"
_space_group_IT_number       1

loop_
  _space_group_symop_operation_xyz
  'x, y, z'

loop_
  _atom_site_type_symbol
  _atom_site_label
  _atom_site_symmetry_multiplicity
  _atom_site_fract_x
  _atom_site_fract_y
  _atom_site_fract_z
  _atom_site_occupancy
  Nb  Nb1       1.0  0.24999756274257792  0.25000040653436156  0.2500032207910113  1.0000
  Nb  Nb2       1.0  0.7499985347165843  0.7500005686150276  0.750001728210699  1.0000
  Os  Os1       1.0  5.236169173459697e-07  2.1555579236172044e-09  0.9999992777458533  1.0000
  F   F1        1.0  0.2652536340498098  0.26525252911326513  0.7347460255623923  1.0000
  F   F2        1.0  0.7347476688764139  0.7347467732991927  0.2652523275509677  1.0000
  F   F3        1.0  0.7347473573648392  0.2652530199650873  0.26525258542694713  1.0000
  F   F4        1.0  0.2652532811229621  0.7347473063519285  0.7347464732486774  1.0000
  F   F5        1.0  0.26525331999723845  0.7347468149961216  0.2652524537332452  1.0000
  F   F6        1.0  0.7347481660198125  0.2652525844178211  0.7347458191750091  1.0000
