data_image0
_chemical_formula_structural       Nb2OsBr6
_chemical_formula_sum              "Nb2 Os1 Br6"
_cell_length_a       6.780993873362743
_cell_length_b       6.7809936559879285
_cell_length_c       6.780993690103434
_cell_angle_alpha    59.999999391120966
_cell_angle_beta     59.99999960295829
_cell_angle_gamma    59.99999942472335

_space_group_name_H-M_alt    "P 1"
_space_group_IT_number       1

loop_
  _space_group_symop_operation_xyz
  'x, y, z'

loop_
  _atom_site_type_symbol
  _atom_site_label
  _atom_site_symmetry_multiplicity
  _atom_site_fract_x
  _atom_site_fract_y
  _atom_site_fract_z
  _atom_site_occupancy
  Nb  Nb1       1.0  0.2499999356451013  0.2500000783111536  0.24999997130515927  1.0000
  Nb  Nb2       1.0  0.7500000546098932  0.7499999567873351  0.7500000087855909  1.0000
  Os  Os1       1.0  0.9999999626406277  0.9999999945815689  9.591221162991517e-09  1.0000
  Br  Br1       1.0  0.25556692818023496  0.25556691470648535  0.7444331002633167  1.0000
  Br  Br2       1.0  0.7444330796374431  0.7444330625954058  0.2555669220650425  1.0000
  Br  Br3       1.0  0.7444330331428748  0.25556698337150024  0.2555669527369435  1.0000
  Br  Br4       1.0  0.2555669611375872  0.7444330192164023  0.7444330622423079  1.0000
  Br  Br5       1.0  0.25556695605385515  0.7444330228957906  0.25556695990738404  1.0000
  Br  Br6       1.0  0.744433093234236  0.255566952599957  0.7444330042463768  1.0000
