data_image0
_chemical_formula_structural       Nb2PbBr6
_chemical_formula_sum              "Nb2 Pb1 Br6"
_cell_length_a       7.024578865746666
_cell_length_b       7.024578702841247
_cell_length_c       7.024578895880846
_cell_angle_alpha    59.99999945203733
_cell_angle_beta     60.00000060874329
_cell_angle_gamma    60.00000148865108

_space_group_name_H-M_alt    "P 1"
_space_group_IT_number       1

loop_
  _space_group_symop_operation_xyz
  'x, y, z'

loop_
  _atom_site_type_symbol
  _atom_site_label
  _atom_site_symmetry_multiplicity
  _atom_site_fract_x
  _atom_site_fract_y
  _atom_site_fract_z
  _atom_site_occupancy
  Nb  Nb1       1.0  0.24999990685863827  0.2499998860777254  0.25000015432697953  1.0000
  Nb  Nb2       1.0  0.7500000573184102  0.7499999005815788  0.749999964170279  1.0000
  Pb  Pb1       1.0  0.9999999875133737  2.2665676944879568e-08  0.9999999906397561  1.0000
  Br  Br1       1.0  0.2669349524681421  0.2669349035251206  0.7330650207367659  1.0000
  Br  Br2       1.0  0.7330650215345594  0.7330651150214972  0.2669349697861455  1.0000
  Br  Br3       1.0  0.7330651207461498  0.26693499772562934  0.2669348580285842  1.0000
  Br  Br4       1.0  0.26693491130230423  0.7330651376364031  0.7330650706880559  1.0000
  Br  Br5       1.0  0.2669349166238349  0.7330650568489125  0.26693495762721925  1.0000
  Br  Br6       1.0  0.7330651199258856  0.2669349861068976  0.7330650079240343  1.0000
