data_image0
_chemical_formula_structural       Nb2PF6
_chemical_formula_sum              "Nb2 P1 F6"
_cell_length_a       5.610275915379218
_cell_length_b       5.610276609756552
_cell_length_c       5.6102744801928575
_cell_angle_alpha    59.99998527369327
_cell_angle_beta     59.99998119994693
_cell_angle_gamma    59.99997025090087

_space_group_name_H-M_alt    "P 1"
_space_group_IT_number       1

loop_
  _space_group_symop_operation_xyz
  'x, y, z'

loop_
  _atom_site_type_symbol
  _atom_site_label
  _atom_site_symmetry_multiplicity
  _atom_site_fract_x
  _atom_site_fract_y
  _atom_site_fract_z
  _atom_site_occupancy
  Nb  Nb1       1.0  0.24999578026395927  0.25000898147760175  0.24999941970511158  1.0000
  Nb  Nb2       1.0  0.7499935928334146  0.750000964088797  0.7499997689556829  1.0000
  P   P1        1.0  2.684479237338136e-06  0.9999977012594201  4.024668830628456e-07  1.0000
  F   F1        1.0  0.26150343558995043  0.26150143069801257  0.7384973984208701  1.0000
  F   F2        1.0  0.7384991787766931  0.7384961937941343  0.2615028915631582  1.0000
  F   F3        1.0  0.738498796426284  0.2615016397802582  0.26150219839055766  1.0000
  F   F4        1.0  0.26150357637934823  0.7384962401274114  0.7384984233305693  1.0000
  F   F5        1.0  0.2615040995678958  0.7384948846123133  0.2615016855315738  1.0000
  F   F6        1.0  0.738498912918265  0.26150182955279055  0.7384978231739241  1.0000
