data_image0
_chemical_formula_structural       Nb2PbCl6
_chemical_formula_sum              "Nb2 Pb1 Cl6"
_cell_length_a       6.804624563325689
_cell_length_b       6.804624366014981
_cell_length_c       6.804624655865987
_cell_angle_alpha    60.00000053700421
_cell_angle_beta     60.00000002262421
_cell_angle_gamma    60.00000058552089

_space_group_name_H-M_alt    "P 1"
_space_group_IT_number       1

loop_
  _space_group_symop_operation_xyz
  'x, y, z'

loop_
  _atom_site_type_symbol
  _atom_site_label
  _atom_site_symmetry_multiplicity
  _atom_site_fract_x
  _atom_site_fract_y
  _atom_site_fract_z
  _atom_site_occupancy
  Nb  Nb1       1.0  0.25000018315247446  0.2499998342191588  0.2499998918467288  1.0000
  Nb  Nb2       1.0  0.7500001318287501  0.750000165010148  0.7499999220449776  1.0000
  Pb  Pb1       1.0  2.725389584459839e-08  0.9999999946003858  0.999999971437794  1.0000
  Cl  Cl1       1.0  0.26626261815616176  0.2662626993479812  0.73373736876613  1.0000
  Cl  Cl2       1.0  0.7337372701385095  0.7337373988742503  0.2662627324178475  1.0000
  Cl  Cl3       1.0  0.7337372839128823  0.2662626412145207  0.26626268059047814  1.0000
  Cl  Cl4       1.0  0.2662625455567308  0.7337373382161958  0.7337373536253742  1.0000
  Cl  Cl5       1.0  0.2662626363750328  0.7337374205312455  0.2662626698731225  1.0000
  Cl  Cl6       1.0  0.7337372925461717  0.26626250490333175  0.7337373989289656  1.0000
