data_image0
_chemical_formula_structural       Nb2PI6
_chemical_formula_sum              "Nb2 P1 I6"
_cell_length_a       7.549663989331563
_cell_length_b       7.5496642204832725
_cell_length_c       7.54966410029568
_cell_angle_alpha    60.00000016332702
_cell_angle_beta     59.99999953361843
_cell_angle_gamma    59.999999858694245

_space_group_name_H-M_alt    "P 1"
_space_group_IT_number       1

loop_
  _space_group_symop_operation_xyz
  'x, y, z'

loop_
  _atom_site_type_symbol
  _atom_site_label
  _atom_site_symmetry_multiplicity
  _atom_site_fract_x
  _atom_site_fract_y
  _atom_site_fract_z
  _atom_site_occupancy
  Nb  Nb1       1.0  0.2500001009110157  0.24999987249685965  0.2500000510398451  1.0000
  Nb  Nb2       1.0  0.749999872219433  0.7499999500519929  0.7499999398323106  1.0000
  P   P1        1.0  0.9999999557221497  2.2711511341341895e-08  0.9999999869410491  1.0000
  I   I1        1.0  0.25711020145467917  0.25711013386913883  0.7428898289824053  1.0000
  I   I2        1.0  0.7428898059231328  0.7428898979500634  0.25711019907836213  1.0000
  I   I3        1.0  0.7428898182405465  0.2571101215655546  0.25711017030661587  1.0000
  I   I4        1.0  0.25711020857243916  0.7428899070091459  0.7428898311149443  1.0000
  I   I5        1.0  0.25711016776771256  0.7428898960681262  0.2571101333764896  1.0000
  I   I6        1.0  0.7428898756520812  0.25711019739660534  0.7428898577615822  1.0000
