data_image0
_chemical_formula_structural       Nb2PtF6
_chemical_formula_sum              "Nb2 Pt1 F6"
_cell_length_a       5.626439874508342
_cell_length_b       5.626444280832363
_cell_length_c       5.626441300399464
_cell_angle_alpha    59.999995788070564
_cell_angle_beta     59.99998195405209
_cell_angle_gamma    59.99997275148601

_space_group_name_H-M_alt    "P 1"
_space_group_IT_number       1

loop_
  _space_group_symop_operation_xyz
  'x, y, z'

loop_
  _atom_site_type_symbol
  _atom_site_label
  _atom_site_symmetry_multiplicity
  _atom_site_fract_x
  _atom_site_fract_y
  _atom_site_fract_z
  _atom_site_occupancy
  Nb  Nb1       1.0  0.25001784467733823  0.2500106074029953  0.2499758895615187  1.0000
  Nb  Nb2       1.0  0.7500387624488337  0.7500040466846051  0.7499645560210194  1.0000
  Pt  Pt1       1.0  0.9999901295306738  0.9999972572785187  1.0863651137815542e-05  1.0000
  F   F1        1.0  0.27036719181301605  0.2703779334872466  0.7296327726279209  1.0000
  F   F2        1.0  0.7296219063809642  0.7296250575111308  0.27037995814917687  1.0000
  F   F3        1.0  0.7296197211728632  0.270369100651755  0.27038196714285795  1.0000
  F   F4        1.0  0.2703645000478408  0.7296216220999399  0.7296327512672011  1.0000
  F   F5        1.0  0.27036022550390526  0.7296222169670966  0.2703887442120329  1.0000
  F   F6        1.0  0.7296197308178  0.2703721083318026  0.7296324549090514  1.0000
