data_image0
_chemical_formula_structural       Nb2PCl6
_chemical_formula_sum              "Nb2 P1 Cl6"
_cell_length_a       6.684894201032952
_cell_length_b       6.684894635162463
_cell_length_c       6.684894811532119
_cell_angle_alpha    60.00000227592947
_cell_angle_beta     59.99999643638471
_cell_angle_gamma    59.999996723169744

_space_group_name_H-M_alt    "P 1"
_space_group_IT_number       1

loop_
  _space_group_symop_operation_xyz
  'x, y, z'

loop_
  _atom_site_type_symbol
  _atom_site_label
  _atom_site_symmetry_multiplicity
  _atom_site_fract_x
  _atom_site_fract_y
  _atom_site_fract_z
  _atom_site_occupancy
  Nb  Nb1       1.0  0.24999966513960886  0.2500001074993851  0.24999897037896093  1.0000
  Nb  Nb2       1.0  0.7500000709130127  0.749999479728513  0.7499985135750049  1.0000
  P   P1        1.0  3.057979917171341e-08  3.5909317950691906e-07  5.202084277532338e-07  1.0000
  Cl  Cl1       1.0  0.25163332698976537  0.2516337564624097  0.7483668115477561  1.0000
  Cl  Cl2       1.0  0.7483665510447292  0.7483662961210483  0.2516344525713963  1.0000
  Cl  Cl3       1.0  0.7483669765671838  0.25163320470143674  0.2516336764140042  1.0000
  Cl  Cl4       1.0  0.25163414660488503  0.7483660765644928  0.7483667883329979  1.0000
  Cl  Cl5       1.0  0.25163309914880766  0.748366776001859  0.2516336174479099  1.0000
  Cl  Cl6       1.0  0.748366135121834  0.2516339434688841  0.7483666448172237  1.0000
