data_image0
_chemical_formula_structural       Nb2PCl6
_chemical_formula_sum              "Nb2 P1 Cl6"
_cell_length_a       6.682113671410341
_cell_length_b       6.682112766718958
_cell_length_c       6.6821126252990934
_cell_angle_alpha    60.000012732731
_cell_angle_beta     60.00001558694841
_cell_angle_gamma    60.00000489050754

_space_group_name_H-M_alt    "P 1"
_space_group_IT_number       1

loop_
  _space_group_symop_operation_xyz
  'x, y, z'

loop_
  _atom_site_type_symbol
  _atom_site_label
  _atom_site_symmetry_multiplicity
  _atom_site_fract_x
  _atom_site_fract_y
  _atom_site_fract_z
  _atom_site_occupancy
  Nb  Nb1       1.0  0.250000146879935  0.24999881817272612  0.25000015990194213  1.0000
  Nb  Nb2       1.0  0.7500001559465874  0.7500016891967363  0.7500016787013701  1.0000
  P   P1        1.0  1.269561572588525e-07  0.9999996554202577  0.9999992587812017  1.0000
  Cl  Cl1       1.0  0.2516434305389574  0.251642722420641  0.7483568471788614  1.0000
  Cl  Cl2       1.0  0.7483568562411705  0.7483570554660276  0.25164198052855946  1.0000
  Cl  Cl3       1.0  0.7483564203786627  0.25164341013344665  0.2516433011784363  1.0000
  Cl  Cl4       1.0  0.25164249860866683  0.7483574124895809  0.7483570888117919  1.0000
  Cl  Cl5       1.0  0.2516434128264126  0.7483569812011338  0.2516428878377813  1.0000
  Cl  Cl6       1.0  0.748356913690147  0.25164228348185114  0.7483568126296162  1.0000
