data_image0
_chemical_formula_structural       Nb2PtI6
_chemical_formula_sum              "Nb2 Pt1 I6"
_cell_length_a       7.476410549784821
_cell_length_b       7.476410583862479
_cell_length_c       7.476410616468042
_cell_angle_alpha    59.999999955119215
_cell_angle_beta     60.00000004624771
_cell_angle_gamma    60.00000028877169

_space_group_name_H-M_alt    "P 1"
_space_group_IT_number       1

loop_
  _space_group_symop_operation_xyz
  'x, y, z'

loop_
  _atom_site_type_symbol
  _atom_site_label
  _atom_site_symmetry_multiplicity
  _atom_site_fract_x
  _atom_site_fract_y
  _atom_site_fract_z
  _atom_site_occupancy
  Nb  Nb1       1.0  0.2500000179219813  0.24999998890900066  0.24999999230315498  1.0000
  Nb  Nb2       1.0  0.7499999949989103  0.7499999437929642  0.7500000926622535  1.0000
  Pt  Pt1       1.0  0.9999999899222135  0.9999999885329811  0.999999984021598  1.0000
  I   I1        1.0  0.25251042113744426  0.25251047637093826  0.747489563259505  1.0000
  I   I2        1.0  0.7474895714538173  0.7474895775537967  0.25251040170724137  1.0000
  I   I3        1.0  0.7474895425408752  0.25251046786240994  0.252510436565713  1.0000
  I   I4        1.0  0.2525104549808967  0.7474895434705411  0.7474895338562679  1.0000
  I   I5        1.0  0.25251047385966585  0.7474895697615576  0.2525104364398426  1.0000
  I   I6        1.0  0.7474895365638223  0.25251043993324784  0.7474895604513186  1.0000
