data_image0
_chemical_formula_structural       Nb2PdI6
_chemical_formula_sum              "Nb2 Pd1 I6"
_cell_length_a       7.450738314546924
_cell_length_b       7.4507383124257345
_cell_length_c       7.450738362437716
_cell_angle_alpha    60.00000034489035
_cell_angle_beta     59.99999970718083
_cell_angle_gamma    60.00000024660921

_space_group_name_H-M_alt    "P 1"
_space_group_IT_number       1

loop_
  _space_group_symop_operation_xyz
  'x, y, z'

loop_
  _atom_site_type_symbol
  _atom_site_label
  _atom_site_symmetry_multiplicity
  _atom_site_fract_x
  _atom_site_fract_y
  _atom_site_fract_z
  _atom_site_occupancy
  Nb  Nb1       1.0  0.25000006053302176  0.2500000601815291  0.2499998934235587  1.0000
  Nb  Nb2       1.0  0.7500000821366468  0.7499998698682907  0.750000108136743  1.0000
  Pd  Pd1       1.0  0.9999999926888904  3.123200893285219e-08  1.0856081078810327e-08  1.0000
  I   I1        1.0  0.25442757257568877  0.2544276774979472  0.745572371545478  1.0000
  I   I2        1.0  0.7455723732073991  0.7455723643295876  0.2544275987510699  1.0000
  I   I3        1.0  0.7455723515039635  0.25442766340581047  0.2544275809695689  1.0000
  I   I4        1.0  0.2544275913837136  0.7455723406145558  0.7455724137047152  1.0000
  I   I5        1.0  0.2544276534957023  0.7455723553908776  0.25442761456831514  1.0000
  I   I6        1.0  0.7455723232212351  0.25442763547916925  0.7455724046623687  1.0000
