data_image0
_chemical_formula_structural       Nb2PdBr6
_chemical_formula_sum              "Nb2 Pd1 Br6"
_cell_length_a       6.725275058169759
_cell_length_b       6.725274989664047
_cell_length_c       6.725274963448765
_cell_angle_alpha    59.99999952206533
_cell_angle_beta     60.00000055440379
_cell_angle_gamma    59.99999986087664

_space_group_name_H-M_alt    "P 1"
_space_group_IT_number       1

loop_
  _space_group_symop_operation_xyz
  'x, y, z'

loop_
  _atom_site_type_symbol
  _atom_site_label
  _atom_site_symmetry_multiplicity
  _atom_site_fract_x
  _atom_site_fract_y
  _atom_site_fract_z
  _atom_site_occupancy
  Nb  Nb1       1.0  0.24999990556544832  0.25000015542198994  0.24999992961032885  1.0000
  Nb  Nb2       1.0  0.7499999751685227  0.7499999071859641  0.7500000179420903  1.0000
  Pd  Pd1       1.0  0.999999968175293  1.821107478768781e-08  4.249308925884067e-08  1.0000
  Br  Br1       1.0  0.25611296338597256  0.2561129450368205  0.7438870338639335  1.0000
  Br  Br2       1.0  0.7438870400167122  0.7438870174102197  0.2561130317973268  1.0000
  Br  Br3       1.0  0.7438871080305989  0.25611293866349577  0.2561129301132884  1.0000
  Br  Br4       1.0  0.2561129884180639  0.7438869764347499  0.7438870532222583  1.0000
  Br  Br5       1.0  0.2561130096155766  0.74388701455467  0.25611292542945124  1.0000
  Br  Br6       1.0  0.7438870350446081  0.2561130353055312  0.7438870283147804  1.0000
