data_image0
_chemical_formula_structural       Nb2PtCl6
_chemical_formula_sum              "Nb2 Pt1 Cl6"
_cell_length_a       6.698775894887818
_cell_length_b       6.698776138289759
_cell_length_c       6.698776444508061
_cell_angle_alpha    59.99999894936228
_cell_angle_beta     59.99999852798876
_cell_angle_gamma    59.99999915668478

_space_group_name_H-M_alt    "P 1"
_space_group_IT_number       1

loop_
  _space_group_symop_operation_xyz
  'x, y, z'

loop_
  _atom_site_type_symbol
  _atom_site_label
  _atom_site_symmetry_multiplicity
  _atom_site_fract_x
  _atom_site_fract_y
  _atom_site_fract_z
  _atom_site_occupancy
  Nb  Nb1       1.0  0.249999762509179  0.24999973100463554  0.2500003427083808  1.0000
  Nb  Nb2       1.0  0.7499997061888001  0.7500002589194523  0.7500001783594304  1.0000
  Pt  Pt1       1.0  6.276894968696536e-08  0.9999999926867539  0.9999999737649587  1.0000
  Cl  Cl1       1.0  0.2499925949623958  0.24999231929940813  0.7500075185442543  1.0000
  Cl  Cl2       1.0  0.7500076293827843  0.7500076066337745  0.24999234320533043  1.0000
  Cl  Cl3       1.0  0.7500076816741815  0.24999237750901407  0.24999238986326583  1.0000
  Cl  Cl4       1.0  0.2499923731670011  0.7500076690927229  0.7500074694334607  1.0000
  Cl  Cl5       1.0  0.24999250401101233  0.7500076249440866  0.24999234754914798  1.0000
  Cl  Cl6       1.0  0.7500076940058672  0.24999241617271506  0.7500074354381494  1.0000
