data_image0
_chemical_formula_structural       Nb2PBr6
_chemical_formula_sum              "Nb2 P1 Br6"
_cell_length_a       6.706508238227742
_cell_length_b       6.7065081599726994
_cell_length_c       6.706507915949701
_cell_angle_alpha    60.00000139578686
_cell_angle_beta     60.00000168435393
_cell_angle_gamma    60.000001063679285

_space_group_name_H-M_alt    "P 1"
_space_group_IT_number       1

loop_
  _space_group_symop_operation_xyz
  'x, y, z'

loop_
  _atom_site_type_symbol
  _atom_site_label
  _atom_site_symmetry_multiplicity
  _atom_site_fract_x
  _atom_site_fract_y
  _atom_site_fract_z
  _atom_site_occupancy
  Nb  Nb1       1.0  0.2500001129191047  0.2500000722181734  0.24999986652484335  1.0000
  Nb  Nb2       1.0  0.7499999469120291  0.7500000285555607  0.7500000356733713  1.0000
  P   P1        1.0  0.9999999705749348  0.9999999178208433  9.009715717724902e-08  1.0000
  Br  Br1       1.0  0.2606590067616685  0.26065893257909173  0.7393410210610473  1.0000
  Br  Br2       1.0  0.7393410470537988  0.7393410622748403  0.260658962453414  1.0000
  Br  Br3       1.0  0.7393409950017817  0.26065900487421345  0.26065900621270105  1.0000
  Br  Br4       1.0  0.26065896561178026  0.7393410319823985  0.739340989481572  1.0000
  Br  Br5       1.0  0.26065898694200246  0.7393409872821681  0.26065899255145686  1.0000
  Br  Br6       1.0  0.7393409731165836  0.26065895826426955  0.7393410401288575  1.0000
