data_image0
_chemical_formula_structural       Nb2PF6
_chemical_formula_sum              "Nb2 P1 F6"
_cell_length_a       5.610676178087887
_cell_length_b       5.610676812845993
_cell_length_c       5.610680093608885
_cell_angle_alpha    59.99999954557833
_cell_angle_beta     60.000025191999185
_cell_angle_gamma    59.99999781116779

_space_group_name_H-M_alt    "P 1"
_space_group_IT_number       1

loop_
  _space_group_symop_operation_xyz
  'x, y, z'

loop_
  _atom_site_type_symbol
  _atom_site_label
  _atom_site_symmetry_multiplicity
  _atom_site_fract_x
  _atom_site_fract_y
  _atom_site_fract_z
  _atom_site_occupancy
  Nb  Nb1       1.0  0.25001566993510843  0.25000760746227574  0.2500014622508347  1.0000
  Nb  Nb2       1.0  0.7500010065510495  0.7500191791580878  0.7499756585364207  1.0000
  P   P1        1.0  0.9999957497954386  0.9999936849207003  4.38791728497305e-06  1.0000
  F   F1        1.0  0.26152637528645317  0.26152222592225277  0.7384729495005418  1.0000
  F   F2        1.0  0.7384697889600486  0.7384726644180017  0.26153266224486604  1.0000
  F   F3        1.0  0.738469556077014  0.26151864303504896  0.26153380434927914  1.0000
  F   F4        1.0  0.2615273930953033  0.7384725342216605  0.7384733801959725  1.0000
  F   F5        1.0  0.26152254927863194  0.738469026492237  0.2615307054328106  1.0000
  F   F6        1.0  0.7384719576242812  0.26152442096265394  0.7384749378937753  1.0000
