data_image0
_chemical_formula_structural       Nb2PtBr6
_chemical_formula_sum              "Nb2 Pt1 Br6"
_cell_length_a       6.811757386962979
_cell_length_b       6.811757528272055
_cell_length_c       6.8117574262685485
_cell_angle_alpha    60.00000142530535
_cell_angle_beta     60.00000087451276
_cell_angle_gamma    60.00000060687399

_space_group_name_H-M_alt    "P 1"
_space_group_IT_number       1

loop_
  _space_group_symop_operation_xyz
  'x, y, z'

loop_
  _atom_site_type_symbol
  _atom_site_label
  _atom_site_symmetry_multiplicity
  _atom_site_fract_x
  _atom_site_fract_y
  _atom_site_fract_z
  _atom_site_occupancy
  Nb  Nb1       1.0  0.25000004738320647  0.24999994684187896  0.25000002968607266  1.0000
  Nb  Nb2       1.0  0.7499999447209161  0.750000000546442  0.7500000358277201  1.0000
  Pt  Pt1       1.0  0.9999999872437219  0.9999999874140943  3.909599042227654e-08  1.0000
  Br  Br1       1.0  0.25183734229688703  0.25183727480150314  0.748162686987951  1.0000
  Br  Br2       1.0  0.748162655850425  0.7481627409103073  0.25183730610930477  1.0000
  Br  Br3       1.0  0.7481627083598208  0.25183729141447353  0.2518372797758867  1.0000
  Br  Br4       1.0  0.25183735112166605  0.748162708115457  0.7481626555120238  1.0000
  Br  Br5       1.0  0.25183727315696275  0.7481627480329373  0.25183727883639095  1.0000
  Br  Br6       1.0  0.7481626967543489  0.25183729644665825  0.7481626861020239  1.0000
