data_image0
_chemical_formula_structural       Nb2RhCl6
_chemical_formula_sum              "Nb2 Rh1 Cl6"
_cell_length_a       6.5396847357926955
_cell_length_b       6.5396848360281385
_cell_length_c       6.539684752855626
_cell_angle_alpha    60.00000032135329
_cell_angle_beta     60.000001039246136
_cell_angle_gamma    59.99999923973589

_space_group_name_H-M_alt    "P 1"
_space_group_IT_number       1

loop_
  _space_group_symop_operation_xyz
  'x, y, z'

loop_
  _atom_site_type_symbol
  _atom_site_label
  _atom_site_symmetry_multiplicity
  _atom_site_fract_x
  _atom_site_fract_y
  _atom_site_fract_z
  _atom_site_occupancy
  Nb  Nb1       1.0  0.2499998106375487  0.25000032008359896  0.24999975210031694  1.0000
  Nb  Nb2       1.0  0.750000181691837  0.7499995425496373  0.7500000474705258  1.0000
  Rh  Rh1       1.0  0.9999999983414237  0.9999999943816338  0.999999954706449  1.0000
  Cl  Cl1       1.0  0.2545469059008271  0.25454707030456003  0.7454530761289319  1.0000
  Cl  Cl2       1.0  0.7454530712472605  0.7454530020810237  0.2545469747970447  1.0000
  Cl  Cl3       1.0  0.7454530880791116  0.2545470472701183  0.25454692758599834  1.0000
  Cl  Cl4       1.0  0.25454693367621334  0.7454529389671783  0.7454531655182631  1.0000
  Cl  Cl5       1.0  0.25454697147731126  0.7454529359896633  0.2545470889729403  1.0000
  Cl  Cl6       1.0  0.7454530283033265  0.25454715325101906  0.7454530186654966  1.0000
