data_image0
_chemical_formula_structural       Nb2ReCl6
_chemical_formula_sum              "Nb2 Re1 Cl6"
_cell_length_a       6.547384167821377
_cell_length_b       6.5473840368503415
_cell_length_c       6.547384272961057
_cell_angle_alpha    59.99999795066018
_cell_angle_beta     59.99999832328358
_cell_angle_gamma    59.999997381189715

_space_group_name_H-M_alt    "P 1"
_space_group_IT_number       1

loop_
  _space_group_symop_operation_xyz
  'x, y, z'

loop_
  _atom_site_type_symbol
  _atom_site_label
  _atom_site_symmetry_multiplicity
  _atom_site_fract_x
  _atom_site_fract_y
  _atom_site_fract_z
  _atom_site_occupancy
  Nb  Nb1       1.0  0.25000008781120403  0.25000017531569185  0.2500000820721849  1.0000
  Nb  Nb2       1.0  0.7499999678175124  0.7499999049123173  0.750000713705955  1.0000
  Re  Re1       1.0  0.9999999893113836  5.611759971757142e-09  1.017506576843835e-08  1.0000
  Cl  Cl1       1.0  0.2554999948546418  0.25550007511860057  0.7444999102937002  1.0000
  Cl  Cl2       1.0  0.744499992653694  0.7444999396388833  0.2554998281668598  1.0000
  Cl  Cl3       1.0  0.7444998896248267  0.2555001607683822  0.25549977606000884  1.0000
  Cl  Cl4       1.0  0.2554999376428882  0.7444999643537147  0.744499973592608  1.0000
  Cl  Cl5       1.0  0.25550013188350396  0.7444998959022527  0.2554998617438171  1.0000
  Cl  Cl6       1.0  0.7445000070138652  0.2554998869024875  0.7444998574328261  1.0000
