data_image0
_chemical_formula_structural       Nb2RuI6
_chemical_formula_sum              "Nb2 Ru1 I6"
_cell_length_a       7.473999603071108
_cell_length_b       7.4739995859983885
_cell_length_c       7.47399964655925
_cell_angle_alpha    60.00000018683636
_cell_angle_beta     59.99999967771972
_cell_angle_gamma    60.000000528122015

_space_group_name_H-M_alt    "P 1"
_space_group_IT_number       1

loop_
  _space_group_symop_operation_xyz
  'x, y, z'

loop_
  _atom_site_type_symbol
  _atom_site_label
  _atom_site_symmetry_multiplicity
  _atom_site_fract_x
  _atom_site_fract_y
  _atom_site_fract_z
  _atom_site_occupancy
  Nb  Nb1       1.0  0.2500000070953004  0.24999986283101958  0.24999999028580722  1.0000
  Nb  Nb2       1.0  0.75000006744165  0.7499999227825522  0.7499999398534336  1.0000
  Ru  Ru1       1.0  1.0362189119664462e-08  0.9999999967226523  2.4554984954111298e-08  1.0000
  I   I1        1.0  0.2519208822592171  0.25192095527663627  0.7480791251264369  1.0000
  I   I2        1.0  0.7480790936145847  0.748079089247425  0.2519209148811155  1.0000
  I   I3        1.0  0.7480790646566231  0.25192094208728794  0.2519209581944674  1.0000
  I   I4        1.0  0.25192090620743973  0.748079122100861  0.7480790530783634  1.0000
  I   I5        1.0  0.25192090988153626  0.7480791176603365  0.25192093794612436  1.0000
  I   I6        1.0  0.7480790545054687  0.251920989133336  0.7480790592763891  1.0000
