data_image0
_chemical_formula_structural       Nb2RhBr6
_chemical_formula_sum              "Nb2 Rh1 Br6"
_cell_length_a       6.738140450844424
_cell_length_b       6.738140418311943
_cell_length_c       6.7381403946218885
_cell_angle_alpha    59.999996635128504
_cell_angle_beta     59.99999747336493
_cell_angle_gamma    59.99999852818052

_space_group_name_H-M_alt    "P 1"
_space_group_IT_number       1

loop_
  _space_group_symop_operation_xyz
  'x, y, z'

loop_
  _atom_site_type_symbol
  _atom_site_label
  _atom_site_symmetry_multiplicity
  _atom_site_fract_x
  _atom_site_fract_y
  _atom_site_fract_z
  _atom_site_occupancy
  Nb  Nb1       1.0  0.24999981310748357  0.250000018821461  0.2500001927733239  1.0000
  Nb  Nb2       1.0  0.7500000390625072  0.7499997892727269  0.7499999564304448  1.0000
  Rh  Rh1       1.0  2.2969812229227166e-08  2.3629195358790145e-08  0.999999994509563  1.0000
  Br  Br1       1.0  0.2534900997154552  0.25349015294457505  0.7465098579776359  1.0000
  Br  Br2       1.0  0.7465098628010498  0.7465098896239384  0.25349017817926395  1.0000
  Br  Br3       1.0  0.7465099368779554  0.25349020402691635  0.25349002194350917  1.0000
  Br  Br4       1.0  0.25349017864001655  0.7465098730765785  0.7465098595975138  1.0000
  Br  Br5       1.0  0.2534901186477409  0.7465099200288513  0.25349011802032245  1.0000
  Br  Br6       1.0  0.7465099163451822  0.253490126174925  0.7465098311057986  1.0000
