data_image0
_chemical_formula_structural       Nb2RuF6
_chemical_formula_sum              "Nb2 Ru1 F6"
_cell_length_a       5.526582552337176
_cell_length_b       5.526583585628377
_cell_length_c       5.526583098150885
_cell_angle_alpha    60.00000333382824
_cell_angle_beta     59.99999920691893
_cell_angle_gamma    60.00000027552109

_space_group_name_H-M_alt    "P 1"
_space_group_IT_number       1

loop_
  _space_group_symop_operation_xyz
  'x, y, z'

loop_
  _atom_site_type_symbol
  _atom_site_label
  _atom_site_symmetry_multiplicity
  _atom_site_fract_x
  _atom_site_fract_y
  _atom_site_fract_z
  _atom_site_occupancy
  Nb  Nb1       1.0  0.24999973626550528  0.25000149184399995  0.24999885959841844  1.0000
  Nb  Nb2       1.0  0.750000556792866  0.7499993785076419  0.7499996638221441  1.0000
  Ru  Ru1       1.0  0.9999999883945294  0.9999998781146369  1.3369455884163557e-07  1.0000
  F   F1        1.0  0.26550099618100154  0.2655012382273014  0.73449912415585  1.0000
  F   F2        1.0  0.7344991192173967  0.7344984664570496  0.26550145333766095  1.0000
  F   F3        1.0  0.7344990104274423  0.26550121839350355  0.2655009855229472  1.0000
  F   F4        1.0  0.2655010389589305  0.7344982957064662  0.7344993312399636  1.0000
  F   F5        1.0  0.26550088547702927  0.7344984640864032  0.2655014540462124  1.0000
  F   F6        1.0  0.7344986399149466  0.265501575228703  0.7344990014329145  1.0000
