data_image0
_chemical_formula_structural       Nb2RhF6
_chemical_formula_sum              "Nb2 Rh1 F6"
_cell_length_a       5.535896822366053
_cell_length_b       5.535895458755045
_cell_length_c       5.535896842594473
_cell_angle_alpha    59.999998978482
_cell_angle_beta     60.00000139356614
_cell_angle_gamma    59.99999953630483

_space_group_name_H-M_alt    "P 1"
_space_group_IT_number       1

loop_
  _space_group_symop_operation_xyz
  'x, y, z'

loop_
  _atom_site_type_symbol
  _atom_site_label
  _atom_site_symmetry_multiplicity
  _atom_site_fract_x
  _atom_site_fract_y
  _atom_site_fract_z
  _atom_site_occupancy
  Nb  Nb1       1.0  0.2500009736964093  0.24999920071814047  0.25000072031287357  1.0000
  Nb  Nb2       1.0  0.7500003377345705  0.7500005401815116  0.7499998231576536  1.0000
  Rh  Rh1       1.0  0.999999895917545  6.194634483502673e-08  0.999999880169478  1.0000
  F   F1        1.0  0.25735001183706624  0.2573498961306594  0.7426498259516214  1.0000
  F   F2        1.0  0.7426495853172251  0.7426504133479043  0.25734991931624634  1.0000
  F   F3        1.0  0.7426495732155354  0.2573495538481164  0.25735032652208517  1.0000
  F   F4        1.0  0.2573498766286046  0.7426504591728478  0.7426494834735323  1.0000
  F   F5        1.0  0.25734983473421497  0.7426501809291582  0.2573498978303677  1.0000
  F   F6        1.0  0.7426498848812874  0.2573496860754204  0.7426501519552277  1.0000
