data_image0
_chemical_formula_structural       Nb2RuBr6
_chemical_formula_sum              "Nb2 Ru1 Br6"
_cell_length_a       6.756894414793223
_cell_length_b       6.756894380259692
_cell_length_c       6.756894543899727
_cell_angle_alpha    59.99999903828022
_cell_angle_beta     59.9999999228499
_cell_angle_gamma    60.00000010705636

_space_group_name_H-M_alt    "P 1"
_space_group_IT_number       1

loop_
  _space_group_symop_operation_xyz
  'x, y, z'

loop_
  _atom_site_type_symbol
  _atom_site_label
  _atom_site_symmetry_multiplicity
  _atom_site_fract_x
  _atom_site_fract_y
  _atom_site_fract_z
  _atom_site_occupancy
  Nb  Nb1       1.0  0.24999997474386934  0.25000009286392744  0.2500000214114469  1.0000
  Nb  Nb2       1.0  0.7500000121686808  0.749999968639662  0.7500000390846419  1.0000
  Ru  Ru1       1.0  0.9999999640089758  5.437755735393962e-09  1.4403400835014715e-07  1.0000
  Br  Br1       1.0  0.2556380571628669  0.2556380566005612  0.744361947742886  1.0000
  Br  Br2       1.0  0.7443619833838162  0.7443619106485827  0.25563802798550217  1.0000
  Br  Br3       1.0  0.7443619396873746  0.25563808854339964  0.25563802726949697  1.0000
  Br  Br4       1.0  0.25563810871384474  0.7443618551421329  0.7443618630753301  1.0000
  Br  Br5       1.0  0.2556381000590903  0.74436195493625  0.25563806304342324  1.0000
  Br  Br6       1.0  0.7443618425429364  0.2556380703156296  0.7443618616173733  1.0000
