data_image0
_chemical_formula_structural       Nb2RhI6
_chemical_formula_sum              "Nb2 Rh1 I6"
_cell_length_a       7.4414735046724925
_cell_length_b       7.441473569386658
_cell_length_c       7.441473536050017
_cell_angle_alpha    59.999999610232386
_cell_angle_beta     59.999999186952564
_cell_angle_gamma    59.999999654471225

_space_group_name_H-M_alt    "P 1"
_space_group_IT_number       1

loop_
  _space_group_symop_operation_xyz
  'x, y, z'

loop_
  _atom_site_type_symbol
  _atom_site_label
  _atom_site_symmetry_multiplicity
  _atom_site_fract_x
  _atom_site_fract_y
  _atom_site_fract_z
  _atom_site_occupancy
  Nb  Nb1       1.0  0.24999999112714288  0.24999993240026488  0.250000021430659  1.0000
  Nb  Nb2       1.0  0.7500000555412867  0.7499999370968962  0.750000008360611  1.0000
  Rh  Rh1       1.0  0.9999999961597147  1.152085535051512e-08  2.3036112356782815e-08  1.0000
  I   I1        1.0  0.25089378370315496  0.2508938881081699  0.7491061811414161  1.0000
  I   I2        1.0  0.7491061657211157  0.749106198639408  0.2508937953658237  1.0000
  I   I3        1.0  0.7491061911739175  0.25089384530368164  0.25089381709678515  1.0000
  I   I4        1.0  0.25089382118202724  0.7491061690270909  0.7491061413080827  1.0000
  I   I5        1.0  0.2508938325468395  0.7491061823182014  0.25089384857094693  1.0000
  I   I6        1.0  0.7491061563452079  0.2508938418875897  0.7491061650058757  1.0000
