data_image0
_chemical_formula_structural       Nb2RhBr6
_chemical_formula_sum              "Nb2 Rh1 Br6"
_cell_length_a       6.738273036565204
_cell_length_b       6.738273172531513
_cell_length_c       6.738273008293891
_cell_angle_alpha    59.999999742251994
_cell_angle_beta     59.99999910041475
_cell_angle_gamma    59.99999812579968

_space_group_name_H-M_alt    "P 1"
_space_group_IT_number       1

loop_
  _space_group_symop_operation_xyz
  'x, y, z'

loop_
  _atom_site_type_symbol
  _atom_site_label
  _atom_site_symmetry_multiplicity
  _atom_site_fract_x
  _atom_site_fract_y
  _atom_site_fract_z
  _atom_site_occupancy
  Nb  Nb1       1.0  0.2499999133211578  0.2500000045199957  0.2500000557845416  1.0000
  Nb  Nb2       1.0  0.7500001671985791  0.7499999553969524  0.749999847768146  1.0000
  Rh  Rh1       1.0  2.9443809231182506e-08  0.9999999836416481  0.9999999979094506  1.0000
  Br  Br1       1.0  0.25348766014014296  0.25348772626790794  0.7465123134099462  1.0000
  Br  Br2       1.0  0.7465122952478628  0.7465122954472581  0.2534876960124878  1.0000
  Br  Br3       1.0  0.7465123141390132  0.25348767386977566  0.25348768904744573  1.0000
  Br  Br4       1.0  0.2534876759376855  0.7465123260342544  0.7465123480695848  1.0000
  Br  Br5       1.0  0.253487597209957  0.746512315505895  0.2534877518273489  1.0000
  Br  Br6       1.0  0.7465123555466888  0.25348772438521633  0.7465122943445859  1.0000
