data_image0
_chemical_formula_structural       Nb2ReI6
_chemical_formula_sum              "Nb2 Re1 I6"
_cell_length_a       7.52362198927616
_cell_length_b       7.523621964695673
_cell_length_c       7.523622044285681
_cell_angle_alpha    60.00000015588398
_cell_angle_beta     59.99999995178209
_cell_angle_gamma    60.000000145477216

_space_group_name_H-M_alt    "P 1"
_space_group_IT_number       1

loop_
  _space_group_symop_operation_xyz
  'x, y, z'

loop_
  _atom_site_type_symbol
  _atom_site_label
  _atom_site_symmetry_multiplicity
  _atom_site_fract_x
  _atom_site_fract_y
  _atom_site_fract_z
  _atom_site_occupancy
  Nb  Nb1       1.0  0.24999994078211468  0.2500000345266379  0.25000003464872406  1.0000
  Nb  Nb2       1.0  0.7500000600197966  0.7500000075358174  0.7499999733198771  1.0000
  Re  Re1       1.0  0.999999986527549  3.581305271006943e-08  0.9999999609176113  1.0000
  I   I1        1.0  0.25137243470081505  0.2513725071664366  0.7486275152049445  1.0000
  I   I2        1.0  0.7486274841546805  0.7486274860600372  0.2513725315719141  1.0000
  I   I3        1.0  0.7486275559627896  0.2513724822353186  0.2513724531221207  1.0000
  I   I4        1.0  0.25137247736449597  0.7486275175026194  0.7486275039218759  1.0000
  I   I5        1.0  0.2513725242904467  0.7486274612955712  0.25137252712147445  1.0000
  I   I6        1.0  0.7486275364312637  0.2513724700719935  0.7486275022472312  1.0000
