data_image0
_chemical_formula_structural       Nb2RuI6
_chemical_formula_sum              "Nb2 Ru1 I6"
_cell_length_a       7.474110118070134
_cell_length_b       7.474110152511783
_cell_length_c       7.474110074475715
_cell_angle_alpha    60.000000126343394
_cell_angle_beta     59.99999992056666
_cell_angle_gamma    59.999999898568824

_space_group_name_H-M_alt    "P 1"
_space_group_IT_number       1

loop_
  _space_group_symop_operation_xyz
  'x, y, z'

loop_
  _atom_site_type_symbol
  _atom_site_label
  _atom_site_symmetry_multiplicity
  _atom_site_fract_x
  _atom_site_fract_y
  _atom_site_fract_z
  _atom_site_occupancy
  Nb  Nb1       1.0  0.2499999987293432  0.2500000153168916  0.2499999696727934  1.0000
  Nb  Nb2       1.0  0.7499999844684915  0.7500000393960758  0.7499999703355739  1.0000
  Ru  Ru1       1.0  0.999999983474308  0.9999999754202539  0.9999999857659689  1.0000
  I   I1        1.0  0.25191866698749515  0.25191864894190424  0.7480813471906373  1.0000
  I   I2        1.0  0.7480813860135086  0.7480813910232152  0.25191862683585803  1.0000
  I   I3        1.0  0.7480813536258574  0.2519186185268109  0.2519186730514966  1.0000
  I   I4        1.0  0.2519185979878899  0.7480813640855676  0.7480813950624693  1.0000
  I   I5        1.0  0.25191866855363254  0.7480813418657971  0.2519186567940351  1.0000
  I   I6        1.0  0.7480813625077506  0.2519186063349367  0.7480813740844638  1.0000
