data_image0
_chemical_formula_structural       Nb2RuCl6
_chemical_formula_sum              "Nb2 Ru1 Cl6"
_cell_length_a       6.5481689877752665
_cell_length_b       6.54816901132649
_cell_length_c       6.54816914946202
_cell_angle_alpha    59.999999032424434
_cell_angle_beta     59.9999987395448
_cell_angle_gamma    59.9999995898962

_space_group_name_H-M_alt    "P 1"
_space_group_IT_number       1

loop_
  _space_group_symop_operation_xyz
  'x, y, z'

loop_
  _atom_site_type_symbol
  _atom_site_label
  _atom_site_symmetry_multiplicity
  _atom_site_fract_x
  _atom_site_fract_y
  _atom_site_fract_z
  _atom_site_occupancy
  Nb  Nb1       1.0  0.2500000503618864  0.2500001137627911  0.24999995099160485  1.0000
  Nb  Nb2       1.0  0.7499999568527103  0.7499998924014082  0.7499998064929673  1.0000
  Ru  Ru1       1.0  2.7609211168877614e-08  0.9999999700742024  4.391833707324393e-08  1.0000
  Cl  Cl1       1.0  0.25577011964100166  0.25577008182267025  0.7442298826998833  1.0000
  Cl  Cl2       1.0  0.7442299148802539  0.7442298794528321  0.2557702241289143  1.0000
  Cl  Cl3       1.0  0.7442298533087036  0.25577013951280425  0.255770057368685  1.0000
  Cl  Cl4       1.0  0.25577016812001596  0.7442298610403076  0.7442299645917877  1.0000
  Cl  Cl5       1.0  0.2557700264950331  0.744229900992717  0.25577016398047125  1.0000
  Cl  Cl6       1.0  0.7442298901446334  0.25577013883800404  0.7442299136428903  1.0000
