data_image0
_chemical_formula_structural       Nb2ReBr6
_chemical_formula_sum              "Nb2 Re1 Br6"
_cell_length_a       6.792677188159557
_cell_length_b       6.792676864512288
_cell_length_c       6.7926773394031015
_cell_angle_alpha    60.000002307463056
_cell_angle_beta     60.00000336425205
_cell_angle_gamma    60.000000658599944

_space_group_name_H-M_alt    "P 1"
_space_group_IT_number       1

loop_
  _space_group_symop_operation_xyz
  'x, y, z'

loop_
  _atom_site_type_symbol
  _atom_site_label
  _atom_site_symmetry_multiplicity
  _atom_site_fract_x
  _atom_site_fract_y
  _atom_site_fract_z
  _atom_site_occupancy
  Nb  Nb1       1.0  0.25000006565779337  0.24999991499087898  0.2500001101106011  1.0000
  Nb  Nb2       1.0  0.7500001421250522  0.750000006413013  0.7500000518471326  1.0000
  Re  Re1       1.0  0.9999999877912091  1.6227332651032167e-08  0.9999999582420431  1.0000
  Br  Br1       1.0  0.2555699487699168  0.25556998026075967  0.7444299876411153  1.0000
  Br  Br2       1.0  0.7444300163692358  0.7444300367040902  0.25556996961717854  1.0000
  Br  Br3       1.0  0.7444300011136695  0.2555699355047225  0.25556997722006175  1.0000
  Br  Br4       1.0  0.25556989292052035  0.7444300958844249  0.7444300142672571  1.0000
  Br  Br5       1.0  0.2555699472239459  0.7444300814617475  0.25556989188430257  1.0000
  Br  Br6       1.0  0.7444300073209106  0.25556992648791504  0.7444300295413518  1.0000
