data_image0
_chemical_formula_structural       Nb2RhI6
_chemical_formula_sum              "Nb2 Rh1 I6"
_cell_length_a       7.441394560739891
_cell_length_b       7.441394610781135
_cell_length_c       7.441394620710793
_cell_angle_alpha    60.0000002976581
_cell_angle_beta     60.00000072697713
_cell_angle_gamma    59.99999994382172

_space_group_name_H-M_alt    "P 1"
_space_group_IT_number       1

loop_
  _space_group_symop_operation_xyz
  'x, y, z'

loop_
  _atom_site_type_symbol
  _atom_site_label
  _atom_site_symmetry_multiplicity
  _atom_site_fract_x
  _atom_site_fract_y
  _atom_site_fract_z
  _atom_site_occupancy
  Nb  Nb1       1.0  0.24999995988598922  0.24999999606206674  0.2500000769107541  1.0000
  Nb  Nb2       1.0  0.7500000226829902  0.750000001353031  0.7499999026831904  1.0000
  Rh  Rh1       1.0  2.1003438836473964e-09  0.999999998354146  0.9999999903659162  1.0000
  I   I1        1.0  0.2508953686399604  0.2508953669987693  0.7491046373048319  1.0000
  I   I2        1.0  0.7491046323614754  0.7491046402914522  0.25089538323252164  1.0000
  I   I3        1.0  0.7491046305836173  0.2508953315813945  0.25089538886986945  1.0000
  I   I4        1.0  0.25089537444640025  0.7491046543127257  0.7491046215375662  1.0000
  I   I5        1.0  0.2508953331620734  0.7491046328567049  0.2508953858327627  1.0000
  I   I6        1.0  0.7491046734976483  0.2508953760793703  0.7491046162703457  1.0000
