data_image0
_chemical_formula_structural       Nb2RuCl6
_chemical_formula_sum              "Nb2 Ru1 Cl6"
_cell_length_a       6.54819431545984
_cell_length_b       6.548194315788532
_cell_length_c       6.548194360062329
_cell_angle_alpha    59.99999975845794
_cell_angle_beta     60.000000675886454
_cell_angle_gamma    59.99999967030367

_space_group_name_H-M_alt    "P 1"
_space_group_IT_number       1

loop_
  _space_group_symop_operation_xyz
  'x, y, z'

loop_
  _atom_site_type_symbol
  _atom_site_label
  _atom_site_symmetry_multiplicity
  _atom_site_fract_x
  _atom_site_fract_y
  _atom_site_fract_z
  _atom_site_occupancy
  Nb  Nb1       1.0  0.2500002266866243  0.2499998081696707  0.2500000422672889  1.0000
  Nb  Nb2       1.0  0.74999983867905  0.7500002081878112  0.7500000472260361  1.0000
  Ru  Ru1       1.0  0.9999999744751853  1.3092486034906814e-08  0.9999999802548089  1.0000
  Cl  Cl1       1.0  0.2557689448294842  0.25576881384611927  0.7442310765459649  1.0000
  Cl  Cl2       1.0  0.7442310584264554  0.7442311613635508  0.2557689469864652  1.0000
  Cl  Cl3       1.0  0.744231057453551  0.2557688409974191  0.25576891327944656  1.0000
  Cl  Cl4       1.0  0.2557688996150525  0.7442311828414846  0.7442310494736313  1.0000
  Cl  Cl5       1.0  0.25576890196622337  0.7442311677707357  0.2557688211893107  1.0000
  Cl  Cl6       1.0  0.74423110554691  0.255768799957514  0.7442311321797209  1.0000
