data_image0
_chemical_formula_structural       Nb2SeCl6
_chemical_formula_sum              "Nb2 Se1 Cl6"
_cell_length_a       6.624446912818683
_cell_length_b       6.624446901389638
_cell_length_c       6.624447147898057
_cell_angle_alpha    59.999998341477976
_cell_angle_beta     59.999999869228475
_cell_angle_gamma    59.99999723533153

_space_group_name_H-M_alt    "P 1"
_space_group_IT_number       1

loop_
  _space_group_symop_operation_xyz
  'x, y, z'

loop_
  _atom_site_type_symbol
  _atom_site_label
  _atom_site_symmetry_multiplicity
  _atom_site_fract_x
  _atom_site_fract_y
  _atom_site_fract_z
  _atom_site_occupancy
  Nb  Nb1       1.0  0.24999988068829013  0.25000001868785415  0.2499998893558993  1.0000
  Nb  Nb2       1.0  0.7500001026997993  0.7499999710175568  0.7499999618228592  1.0000
  Se  Se1       1.0  2.7907577496392047e-08  0.9999999685699595  0.9999999459075143  1.0000
  Cl  Cl1       1.0  0.25500180557915303  0.2550015689521522  0.7449984350027276  1.0000
  Cl  Cl2       1.0  0.7449982501577944  0.7449983135213526  0.25500169024274494  1.0000
  Cl  Cl3       1.0  0.7449982792484912  0.25500182316755665  0.25500169788653476  1.0000
  Cl  Cl4       1.0  0.25500165258394514  0.7449983107462741  0.7449983152851106  1.0000
  Cl  Cl5       1.0  0.2550016395362387  0.7449983187503191  0.2550018052632574  1.0000
  Cl  Cl6       1.0  0.7449983586937716  0.2550017153269113  0.7449982533095406  1.0000
