data_image0
_chemical_formula_structural       Nb2SnI6
_chemical_formula_sum              "Nb2 Sn1 I6"
_cell_length_a       7.706584050842258
_cell_length_b       7.706584162894213
_cell_length_c       7.70658425696397
_cell_angle_alpha    59.999999048168895
_cell_angle_beta     59.999999256701834
_cell_angle_gamma    60.00000015125172

_space_group_name_H-M_alt    "P 1"
_space_group_IT_number       1

loop_
  _space_group_symop_operation_xyz
  'x, y, z'

loop_
  _atom_site_type_symbol
  _atom_site_label
  _atom_site_symmetry_multiplicity
  _atom_site_fract_x
  _atom_site_fract_y
  _atom_site_fract_z
  _atom_site_occupancy
  Nb  Nb1       1.0  0.25000011136676725  0.25000000835531566  0.2499998370579915  1.0000
  Nb  Nb2       1.0  0.750000006677568  0.7500000139414117  0.7499999049309781  1.0000
  Sn  Sn1       1.0  4.933840526093341e-09  3.1784375976600364e-09  1.4110145153167803e-08  1.0000
  I   I1        1.0  0.2616377071438368  0.261637768839269  0.7383623147997035  1.0000
  I   I2        1.0  0.7383622444949897  0.7383622582251123  0.2616377714193145  1.0000
  I   I3        1.0  0.7383622203908377  0.26163768738898496  0.2616378186975863  1.0000
  I   I4        1.0  0.2616377885195674  0.7383622173055455  0.7383622806066924  1.0000
  I   I5        1.0  0.26163774734120826  0.7383622713771626  0.2616377529585846  1.0000
  I   I6        1.0  0.7383621671873319  0.26163776363331265  0.7383623167003279  1.0000
