data_image0
_chemical_formula_structural       Nb2SbTe6
_chemical_formula_sum              "Nb2 Sb1 Te6"
_cell_length_a       7.241293115683798
_cell_length_b       7.241293004025397
_cell_length_c       7.24129320775412
_cell_angle_alpha    60.00000017204549
_cell_angle_beta     60.00000063032811
_cell_angle_gamma    60.00000114644078

_space_group_name_H-M_alt    "P 1"
_space_group_IT_number       1

loop_
  _space_group_symop_operation_xyz
  'x, y, z'

loop_
  _atom_site_type_symbol
  _atom_site_label
  _atom_site_symmetry_multiplicity
  _atom_site_fract_x
  _atom_site_fract_y
  _atom_site_fract_z
  _atom_site_occupancy
  Nb  Nb1       1.0  0.250000012100395  0.250000027916451  0.25000002219233575  1.0000
  Nb  Nb2       1.0  0.7500000187439282  0.7500001125020374  0.7499998662626928  1.0000
  Sb  Sb1       1.0  0.9999999777556575  2.3678683066310836e-08  4.623576893935459e-08  1.0000
  Te  Te1       1.0  0.27103256975394757  0.2710324974600938  0.7289674144947785  1.0000
  Te  Te2       1.0  0.728967483691289  0.728967489046956  0.2710325548061683  1.0000
  Te  Te3       1.0  0.7289674545491106  0.2710325000992932  0.27103260595837186  1.0000
  Te  Te4       1.0  0.27103256341414134  0.7289673680143414  0.7289674609948056  1.0000
  Te  Te5       1.0  0.2710324873024186  0.7289674622057707  0.27103256727867403  1.0000
  Te  Te6       1.0  0.728967427041826  0.2710325158446044  0.728967460610448  1.0000
