data_image0
_chemical_formula_structural       Nb2SbF6
_chemical_formula_sum              "Nb2 Sb1 F6"
_cell_length_a       5.826283074439487
_cell_length_b       5.826287037482971
_cell_length_c       5.826283368070742
_cell_angle_alpha    59.99999427370109
_cell_angle_beta     59.99996817016593
_cell_angle_gamma    59.99999674005241

_space_group_name_H-M_alt    "P 1"
_space_group_IT_number       1

loop_
  _space_group_symop_operation_xyz
  'x, y, z'

loop_
  _atom_site_type_symbol
  _atom_site_label
  _atom_site_symmetry_multiplicity
  _atom_site_fract_x
  _atom_site_fract_y
  _atom_site_fract_z
  _atom_site_occupancy
  Nb  Nb1       1.0  0.24999863664920746  0.25000338331939637  0.2499950237749106  1.0000
  Nb  Nb2       1.0  0.750002581703339  0.7499945166243968  0.7500028041313158  1.0000
  Sb  Sb1       1.0  0.9999999420616353  1.9759755024821933e-07  3.658470369600752e-08  1.0000
  F   F1        1.0  0.26245975158157137  0.26246284963565514  0.737540202305038  1.0000
  F   F2        1.0  0.7375396848920928  0.7375377620188376  0.26246093667724646  1.0000
  F   F3        1.0  0.7375396722465865  0.262463194159885  0.26245973506902687  1.0000
  F   F4        1.0  0.2624602683537011  0.7375369634407074  0.7375407524054549  1.0000
  F   F5        1.0  0.2624612883944496  0.7375384271087808  0.26246130285999864  1.0000
  F   F6        1.0  0.7375381327358934  0.2624627121733103  0.7375392916315568  1.0000
