data_image0
_chemical_formula_structural       Nb2SeBr6
_chemical_formula_sum              "Nb2 Se1 Br6"
_cell_length_a       6.721980842986915
_cell_length_b       6.721980714845009
_cell_length_c       6.72198084835545
_cell_angle_alpha    60.00000041378854
_cell_angle_beta     60.000000110842414
_cell_angle_gamma    59.99999906465718

_space_group_name_H-M_alt    "P 1"
_space_group_IT_number       1

loop_
  _space_group_symop_operation_xyz
  'x, y, z'

loop_
  _atom_site_type_symbol
  _atom_site_label
  _atom_site_symmetry_multiplicity
  _atom_site_fract_x
  _atom_site_fract_y
  _atom_site_fract_z
  _atom_site_occupancy
  Nb  Nb1       1.0  0.24999986140798794  0.2499998874848929  0.25000026556663174  1.0000
  Nb  Nb2       1.0  0.7500003668937023  0.7499999066026652  0.7500000036115716  1.0000
  Se  Se1       1.0  2.614802116237539e-08  4.008399844006896e-08  0.9999998925011544  1.0000
  Br  Br1       1.0  0.25990897397790247  0.2599090058920697  0.7400909130096354  1.0000
  Br  Br2       1.0  0.7400909442119438  0.7400911361974811  0.25990878827816544  1.0000
  Br  Br3       1.0  0.7400910494483667  0.2599090039661871  0.25990890706320674  1.0000
  Br  Br4       1.0  0.2599087595318193  0.7400910998613683  0.7400911461522287  1.0000
  Br  Br5       1.0  0.2599088189779787  0.7400910122915092  0.2599091107829665  1.0000
  Br  Br6       1.0  0.7400911962452423  0.25990890569204683  0.7400909723996812  1.0000
