data_image0
_chemical_formula_structural       Nb2SBr6
_chemical_formula_sum              "Nb2 S1 Br6"
_cell_length_a       6.721171136631941
_cell_length_b       6.721171448774467
_cell_length_c       6.721171429428744
_cell_angle_alpha    60.00000072647401
_cell_angle_beta     59.99999929569583
_cell_angle_gamma    59.999998918284376

_space_group_name_H-M_alt    "P 1"
_space_group_IT_number       1

loop_
  _space_group_symop_operation_xyz
  'x, y, z'

loop_
  _atom_site_type_symbol
  _atom_site_label
  _atom_site_symmetry_multiplicity
  _atom_site_fract_x
  _atom_site_fract_y
  _atom_site_fract_z
  _atom_site_occupancy
  Nb  Nb1       1.0  0.25000002329474685  0.24999990029700075  0.2500000772833036  1.0000
  Nb  Nb2       1.0  0.7499999180178043  0.7500000070238549  0.7499999821277412  1.0000
  S   S1        1.0  0.9999999956618203  0.9999999872444645  0.9999999698631247  1.0000
  Br  Br1       1.0  0.261269595743555  0.26126953254788954  0.7387304118594413  1.0000
  Br  Br2       1.0  0.7387303929942078  0.7387305005061001  0.26126959072914924  1.0000
  Br  Br3       1.0  0.7387304675376485  0.26126953291641875  0.26126958495577796  1.0000
  Br  Br4       1.0  0.2612695646713116  0.7387304728042796  0.7387304125395315  1.0000
  Br  Br5       1.0  0.26126951816068855  0.7387304780056602  0.26126958374327747  1.0000
  Br  Br6       1.0  0.7387305273575732  0.2612695805593989  0.7387303791873653  1.0000
