data_image0
_chemical_formula_structural       Nb2SnBr6
_chemical_formula_sum              "Nb2 Sn1 Br6"
_cell_length_a       6.9333156259017725
_cell_length_b       6.9333155126846435
_cell_length_c       6.933315655605537
_cell_angle_alpha    59.99999995226315
_cell_angle_beta     59.99999997289808
_cell_angle_gamma    59.99999921261768

_space_group_name_H-M_alt    "P 1"
_space_group_IT_number       1

loop_
  _space_group_symop_operation_xyz
  'x, y, z'

loop_
  _atom_site_type_symbol
  _atom_site_label
  _atom_site_symmetry_multiplicity
  _atom_site_fract_x
  _atom_site_fract_y
  _atom_site_fract_z
  _atom_site_occupancy
  Nb  Nb1       1.0  0.24999989359290645  0.24999999202433745  0.2500000488268245  1.0000
  Nb  Nb2       1.0  0.7500000107171312  0.7500001703839951  0.7499998569518614  1.0000
  Sn  Sn1       1.0  8.797650339858553e-09  3.356280661247349e-08  1.0550621826347362e-08  1.0000
  Br  Br1       1.0  0.2615167744381722  0.26151663252125956  0.7384832092106858  1.0000
  Br  Br2       1.0  0.7384833065469335  0.7384832896480366  0.26151673123460606  1.0000
  Br  Br3       1.0  0.7384833381860232  0.2615167095238825  0.26151671869468274  1.0000
  Br  Br4       1.0  0.2615166779307034  0.7384832373759037  0.7384833716275772  1.0000
  Br  Br5       1.0  0.26151671450473296  0.7384832359200542  0.2615167634407625  1.0000
  Br  Br6       1.0  0.738483277034531  0.26151668978216974  0.738483293518866  1.0000
