data_image0
_chemical_formula_structural       Nb2SbI6
_chemical_formula_sum              "Nb2 Sb1 I6"
_cell_length_a       7.8267616628710925
_cell_length_b       7.826761684902141
_cell_length_c       7.826761406965384
_cell_angle_alpha    60.000001478171654
_cell_angle_beta     60.00000142749515
_cell_angle_gamma    60.00000086531539

_space_group_name_H-M_alt    "P 1"
_space_group_IT_number       1

loop_
  _space_group_symop_operation_xyz
  'x, y, z'

loop_
  _atom_site_type_symbol
  _atom_site_label
  _atom_site_symmetry_multiplicity
  _atom_site_fract_x
  _atom_site_fract_y
  _atom_site_fract_z
  _atom_site_occupancy
  Nb  Nb1       1.0  0.25000011121400995  0.24999996738604965  0.24999997936927945  1.0000
  Nb  Nb2       1.0  0.7499999340517839  0.749999967880457  0.7500000386030878  1.0000
  Sb  Sb1       1.0  3.209914287758849e-08  1.8777802025606598e-08  0.9999999426198359  1.0000
  I   I1        1.0  0.26386934025312514  0.2638693329023729  0.7361306753263165  1.0000
  I   I2        1.0  0.7361306045244057  0.7361307400680166  0.2638693380925853  1.0000
  I   I3        1.0  0.736130646768922  0.26386938006081023  0.26386936613181794  1.0000
  I   I4        1.0  0.2638693158173387  0.7361306616132421  0.7361306527532196  1.0000
  I   I5        1.0  0.2638693766956435  0.7361305714112774  0.26386931718268936  1.0000
  I   I6        1.0  0.7361306395852864  0.2638693622904124  0.7361306905111649  1.0000
