data_image0
_chemical_formula_structural       Nb2SiI6
_chemical_formula_sum              "Nb2 Si1 I6"
_cell_length_a       7.519403796176128
_cell_length_b       7.5194039164010045
_cell_length_c       7.519403718822002
_cell_angle_alpha    60.00000174486181
_cell_angle_beta     60.00000083504576
_cell_angle_gamma    60.000000217889685

_space_group_name_H-M_alt    "P 1"
_space_group_IT_number       1

loop_
  _space_group_symop_operation_xyz
  'x, y, z'

loop_
  _atom_site_type_symbol
  _atom_site_label
  _atom_site_symmetry_multiplicity
  _atom_site_fract_x
  _atom_site_fract_y
  _atom_site_fract_z
  _atom_site_occupancy
  Nb  Nb1       1.0  0.2499999640344642  0.2500001667147689  0.2499999067053966  1.0000
  Nb  Nb2       1.0  0.7499999746017276  0.7499999854500874  0.750000082502324  1.0000
  Si  Si1       1.0  0.9999999978282943  6.515116662604466e-09  0.9999999898489385  1.0000
  I   I1        1.0  0.25256543979932483  0.2525654457926218  0.7474345692857197  1.0000
  I   I2        1.0  0.74743452640374  0.7474345223201871  0.2525654502884502  1.0000
  I   I3        1.0  0.7474346026984372  0.25256542483249494  0.2525654163121545  1.0000
  I   I4        1.0  0.2525654477166659  0.7474345025608334  0.7474345828456295  1.0000
  I   I5        1.0  0.25256546969022475  0.7474345213764791  0.2525654386286727  1.0000
  I   I6        1.0  0.7474345737599865  0.25256542230464113  0.7474345651769102  1.0000
