data_image0
_chemical_formula_structural       Nb2SbBr6
_chemical_formula_sum              "Nb2 Sb1 Br6"
_cell_length_a       7.009135672854954
_cell_length_b       7.009135366668666
_cell_length_c       7.009135550207711
_cell_angle_alpha    59.999997283057255
_cell_angle_beta     59.99999877673009
_cell_angle_gamma    59.999999757483934

_space_group_name_H-M_alt    "P 1"
_space_group_IT_number       1

loop_
  _space_group_symop_operation_xyz
  'x, y, z'

loop_
  _atom_site_type_symbol
  _atom_site_label
  _atom_site_symmetry_multiplicity
  _atom_site_fract_x
  _atom_site_fract_y
  _atom_site_fract_z
  _atom_site_occupancy
  Nb  Nb1       1.0  0.25000011566122604  0.24999991362356097  0.24999984219046703  1.0000
  Nb  Nb2       1.0  0.7499998601544949  0.7500001881935913  0.7500001327021272  1.0000
  Sb  Sb1       1.0  0.9999999847906141  0.9999999912632231  5.477436554670879e-08  1.0000
  Br  Br1       1.0  0.2629662678407698  0.2629662031877848  0.7370338542128139  1.0000
  Br  Br2       1.0  0.737033724965983  0.7370338427140021  0.2629661273015625  1.0000
  Br  Br3       1.0  0.7370338023888203  0.26296617034404196  0.2629662718198528  1.0000
  Br  Br4       1.0  0.26296629926781556  0.7370336676224801  0.7370337549570875  1.0000
  Br  Br5       1.0  0.26296627300279524  0.7370338018972259  0.2629661877477551  1.0000
  Br  Br6       1.0  0.7370336646738556  0.2629662265310085  0.7370337744267805  1.0000
