data_image0
_chemical_formula_structural       Nb2SbSe6
_chemical_formula_sum              "Nb2 Sb1 Se6"
_cell_length_a       6.641177415229558
_cell_length_b       6.64117769927934
_cell_length_c       6.641177161498744
_cell_angle_alpha    60.00000122622915
_cell_angle_beta     59.99999902327591
_cell_angle_gamma    60.000001405107824

_space_group_name_H-M_alt    "P 1"
_space_group_IT_number       1

loop_
  _space_group_symop_operation_xyz
  'x, y, z'

loop_
  _atom_site_type_symbol
  _atom_site_label
  _atom_site_symmetry_multiplicity
  _atom_site_fract_x
  _atom_site_fract_y
  _atom_site_fract_z
  _atom_site_occupancy
  Nb  Nb1       1.0  0.24999937817204015  0.2500005997029396  0.24999970282075523  1.0000
  Nb  Nb2       1.0  0.7500005171607225  0.7500000028890285  0.7500000951434173  1.0000
  Sb  Sb1       1.0  0.9999999509126581  0.9999999907791595  0.9999999854871348  1.0000
  Se  Se1       1.0  0.27822675973632804  0.2782268619330757  0.7217733332557955  1.0000
  Se  Se2       1.0  0.7217733190521274  0.7217729034065486  0.2782267885951944  1.0000
  Se  Se3       1.0  0.721773262928409  0.2782269921983572  0.2782267910788235  1.0000
  Se  Se4       1.0  0.2782267560571933  0.7217729003888699  0.7217733106016054  1.0000
  Se  Se5       1.0  0.2782267863134825  0.7217729961451663  0.2782270496295217  1.0000
  Se  Se6       1.0  0.7217732667109061  0.27822675259694557  0.721772960895629  1.0000
