data_image0
_chemical_formula_structural       Nb2SbCl6
_chemical_formula_sum              "Nb2 Sb1 Cl6"
_cell_length_a       6.822604238824417
_cell_length_b       6.8226045690297275
_cell_length_c       6.822604335548697
_cell_angle_alpha    59.99999903967281
_cell_angle_beta     59.99999684554777
_cell_angle_gamma    59.99999881387483

_space_group_name_H-M_alt    "P 1"
_space_group_IT_number       1

loop_
  _space_group_symop_operation_xyz
  'x, y, z'

loop_
  _atom_site_type_symbol
  _atom_site_label
  _atom_site_symmetry_multiplicity
  _atom_site_fract_x
  _atom_site_fract_y
  _atom_site_fract_z
  _atom_site_occupancy
  Nb  Nb1       1.0  0.2500003182213553  0.24999986844755348  0.24999951541274568  1.0000
  Nb  Nb2       1.0  0.7499996612201297  0.75000012952004  0.7500006003220014  1.0000
  Sb  Sb1       1.0  1.9095190996883582e-08  3.410743265323976e-08  0.9999999660701075  1.0000
  Cl  Cl1       1.0  0.258953490377624  0.2589535186256804  0.741046675877692  1.0000
  Cl  Cl2       1.0  0.7410463276110381  0.7410466032057506  0.25895337657145584  1.0000
  Cl  Cl3       1.0  0.7410464789467278  0.2589535901375895  0.2589534287960602  1.0000
  Cl  Cl4       1.0  0.25895358245164196  0.7410463701323151  0.741046600317586  1.0000
  Cl  Cl5       1.0  0.25895369763013837  0.7410465867052072  0.25895329255144733  1.0000
  Cl  Cl6       1.0  0.7410464188686532  0.2589532945790656  0.7410465652903103  1.0000
