data_image0
_chemical_formula_structural       Nb2SCl6
_chemical_formula_sum              "Nb2 S1 Cl6"
_cell_length_a       6.66876879774678
_cell_length_b       6.668768485273189
_cell_length_c       6.668768667168143
_cell_angle_alpha    59.99999925676935
_cell_angle_beta     59.999998788209375
_cell_angle_gamma    59.99999902215549

_space_group_name_H-M_alt    "P 1"
_space_group_IT_number       1

loop_
  _space_group_symop_operation_xyz
  'x, y, z'

loop_
  _atom_site_type_symbol
  _atom_site_label
  _atom_site_symmetry_multiplicity
  _atom_site_fract_x
  _atom_site_fract_y
  _atom_site_fract_z
  _atom_site_occupancy
  Nb  Nb1       1.0  0.2500002861254138  0.24999990237162353  0.25000001446574716  1.0000
  Nb  Nb2       1.0  0.7500001755480696  0.7499998907686947  0.7499997381593614  1.0000
  S   S1        1.0  0.9999999615047805  0.9999999908173084  3.7334700888373006e-08  1.0000
  Cl  Cl1       1.0  0.2533079835528308  0.2533081404060187  0.7466919261927164  1.0000
  Cl  Cl2       1.0  0.7466918825998473  0.7466919796381191  0.25330814818179376  1.0000
  Cl  Cl3       1.0  0.7466917943252728  0.253308055820626  0.2533081116542007  1.0000
  Cl  Cl4       1.0  0.2533081266774469  0.746691972396595  0.7466918717432606  1.0000
  Cl  Cl5       1.0  0.25330795577649035  0.7466919570210067  0.25330817182859805  1.0000
  Cl  Cl6       1.0  0.7466918351352746  0.2533081134365965  0.7466919979492356  1.0000
