data_image0
_chemical_formula_structural       Nb2SI6
_chemical_formula_sum              "Nb2 S1 I6"
_cell_length_a       7.534206709141039
_cell_length_b       7.534206881644373
_cell_length_c       7.534206662725954
_cell_angle_alpha    60.00000052770735
_cell_angle_beta     59.99999916679376
_cell_angle_gamma    59.99999958179497

_space_group_name_H-M_alt    "P 1"
_space_group_IT_number       1

loop_
  _space_group_symop_operation_xyz
  'x, y, z'

loop_
  _atom_site_type_symbol
  _atom_site_label
  _atom_site_symmetry_multiplicity
  _atom_site_fract_x
  _atom_site_fract_y
  _atom_site_fract_z
  _atom_site_occupancy
  Nb  Nb1       1.0  0.24999999589821292  0.2500000229680304  0.24999994911658513  1.0000
  Nb  Nb2       1.0  0.7500000058549116  0.7500000006297719  0.7500000940624986  1.0000
  S   S1        1.0  0.9999999808198091  0.9999999609861038  0.999999983969532  1.0000
  I   I1        1.0  0.2639756431503532  0.2639755981984215  0.7360244211577267  1.0000
  I   I2        1.0  0.7360244093808113  0.736024388011063  0.2639755330351505  1.0000
  I   I3        1.0  0.7360244284717277  0.26397564714421856  0.2639756025871148  1.0000
  I   I4        1.0  0.26397557202769156  0.7360243618233727  0.7360244259701711  1.0000
  I   I5        1.0  0.26397561756532495  0.7360243411607493  0.2639756074393622  1.0000
  I   I6        1.0  0.7360243428073122  0.26397568243705366  0.7360243847568579  1.0000
