data_image0
_chemical_formula_structural       Nb2SbCl6
_chemical_formula_sum              "Nb2 Sb1 Cl6"
_cell_length_a       6.822580293472755
_cell_length_b       6.822580744243737
_cell_length_c       6.822580331557846
_cell_angle_alpha    60.00000132346577
_cell_angle_beta     59.99999933060597
_cell_angle_gamma    60.00000071824401

_space_group_name_H-M_alt    "P 1"
_space_group_IT_number       1

loop_
  _space_group_symop_operation_xyz
  'x, y, z'

loop_
  _atom_site_type_symbol
  _atom_site_label
  _atom_site_symmetry_multiplicity
  _atom_site_fract_x
  _atom_site_fract_y
  _atom_site_fract_z
  _atom_site_occupancy
  Nb  Nb1       1.0  0.24999984772045572  0.25000033527965415  0.24999993330577475  1.0000
  Nb  Nb2       1.0  0.7500000715760409  0.7499996846201391  0.7500001420877231  1.0000
  Sb  Sb1       1.0  0.9999999785962814  0.9999999982048661  0.9999999910793308  1.0000
  Cl  Cl1       1.0  0.2589570796740267  0.25895708466058576  0.7410429695615233  1.0000
  Cl  Cl2       1.0  0.7410429798246269  0.7410428903608497  0.2589570391157001  1.0000
  Cl  Cl3       1.0  0.7410429147012905  0.2589572228322419  0.2589568684614754  1.0000
  Cl  Cl4       1.0  0.25895704256579527  0.7410427288524496  0.741043100399427  1.0000
  Cl  Cl5       1.0  0.25895702011307764  0.741042859126346  0.25895717132714663  1.0000
  Cl  Cl6       1.0  0.741043069301463  0.25895720385666804  0.7410427666855744  1.0000
