data_image0
_chemical_formula_structural       Nb2SF6
_chemical_formula_sum              "Nb2 S1 F6"
_cell_length_a       5.598431643081684
_cell_length_b       5.598436310201869
_cell_length_c       5.59843255692219
_cell_angle_alpha    59.99993073390972
_cell_angle_beta     59.999958669764446
_cell_angle_gamma    59.999879762179006

_space_group_name_H-M_alt    "P 1"
_space_group_IT_number       1

loop_
  _space_group_symop_operation_xyz
  'x, y, z'

loop_
  _atom_site_type_symbol
  _atom_site_label
  _atom_site_symmetry_multiplicity
  _atom_site_fract_x
  _atom_site_fract_y
  _atom_site_fract_z
  _atom_site_occupancy
  Nb  Nb1       1.0  0.2499930993063798  0.2500038206275585  0.25000113710502575  1.0000
  Nb  Nb2       1.0  0.7499970911962662  0.7500092413872363  0.7500006263208309  1.0000
  S   S1        1.0  9.559001498645708e-07  0.9999985802098382  0.9999996746468822  1.0000
  F   F1        1.0  0.2567007327481659  0.256698257712027  0.7433013120810124  1.0000
  F   F2        1.0  0.7433027568463643  0.7432977208758608  0.25669814591706747  1.0000
  F   F3        1.0  0.7433059863463654  0.25669590145548304  0.2567028305546087  1.0000
  F   F4        1.0  0.2566968286399301  0.7433018163185562  0.743298536908371  1.0000
  F   F5        1.0  0.25669896585558094  0.7433018980801888  0.25670024467147634  1.0000
  F   F6        1.0  0.7433032905426038  0.25669309606569857  0.7432974999282795  1.0000
