data_image0
_chemical_formula_structural       Nb2SbI6
_chemical_formula_sum              "Nb2 Sb1 I6"
_cell_length_a       7.826624839690719
_cell_length_b       7.826624825879809
_cell_length_c       7.826624665194262
_cell_angle_alpha    59.99999992800511
_cell_angle_beta     59.999999696357975
_cell_angle_gamma    59.99999993723326

_space_group_name_H-M_alt    "P 1"
_space_group_IT_number       1

loop_
  _space_group_symop_operation_xyz
  'x, y, z'

loop_
  _atom_site_type_symbol
  _atom_site_label
  _atom_site_symmetry_multiplicity
  _atom_site_fract_x
  _atom_site_fract_y
  _atom_site_fract_z
  _atom_site_occupancy
  Nb  Nb1       1.0  0.2500000365793799  0.25000005546042353  0.24999992981889002  1.0000
  Nb  Nb2       1.0  0.749999940717424  0.7499999519976104  0.7500000475987401  1.0000
  Sb  Sb1       1.0  0.9999999641287872  5.007501531617544e-08  1.589651857632819e-08  1.0000
  I   I1        1.0  0.26386930497538136  0.26386928795481435  0.736130717184697  1.0000
  I   I2        1.0  0.7361307179089699  0.7361306756875808  0.2638693066215081  1.0000
  I   I3        1.0  0.7361307105804805  0.2638692846258342  0.2638692689951455  1.0000
  I   I4        1.0  0.2638693194121328  0.7361306931001593  0.7361306994959796  1.0000
  I   I5        1.0  0.26386934023254044  0.7361306764853864  0.26386927588442327  1.0000
  I   I6        1.0  0.7361306696114425  0.2638693262781147  0.736130733603723  1.0000
