data_image0
_chemical_formula_structural       Nb2SbF6
_chemical_formula_sum              "Nb2 Sb1 F6"
_cell_length_a       5.826558183436323
_cell_length_b       5.82655645548311
_cell_length_c       5.826557412561228
_cell_angle_alpha    59.99999419546755
_cell_angle_beta     59.99999672098216
_cell_angle_gamma    59.99999773372745

_space_group_name_H-M_alt    "P 1"
_space_group_IT_number       1

loop_
  _space_group_symop_operation_xyz
  'x, y, z'

loop_
  _atom_site_type_symbol
  _atom_site_label
  _atom_site_symmetry_multiplicity
  _atom_site_fract_x
  _atom_site_fract_y
  _atom_site_fract_z
  _atom_site_occupancy
  Nb  Nb1       1.0  0.2500011739437401  0.2499997424725718  0.2499996233768972  1.0000
  Nb  Nb2       1.0  0.7499990375170758  0.7500008312470862  0.7500010020339002  1.0000
  Sb  Sb1       1.0  1.2131149636741307e-08  0.9999999873879757  1.4955673758298275e-07  1.0000
  F   F1        1.0  0.2624552065676636  0.262453926040744  0.7375454705404831  1.0000
  F   F2        1.0  0.737544957323915  0.7375458510190582  0.26245424343583323  1.0000
  F   F3        1.0  0.73754513866428  0.2624545814533197  0.262454378786435  1.0000
  F   F4        1.0  0.26245454799047074  0.7375455571512745  0.7375453535615015  1.0000
  F   F5        1.0  0.2624548900900147  0.7375454255904109  0.26245407455166225  1.0000
  F   F6        1.0  0.7375450890179313  0.26245416859495974  0.7375457769141558  1.0000
