data_image0
_chemical_formula_structural       Nb2SnCl6
_chemical_formula_sum              "Nb2 Sn1 Cl6"
_cell_length_a       6.770582951728291
_cell_length_b       6.7705829923933205
_cell_length_c       6.770583144241913
_cell_angle_alpha    59.99999850889328
_cell_angle_beta     60.00000068620667
_cell_angle_gamma    59.99999830302862

_space_group_name_H-M_alt    "P 1"
_space_group_IT_number       1

loop_
  _space_group_symop_operation_xyz
  'x, y, z'

loop_
  _atom_site_type_symbol
  _atom_site_label
  _atom_site_symmetry_multiplicity
  _atom_site_fract_x
  _atom_site_fract_y
  _atom_site_fract_z
  _atom_site_occupancy
  Nb  Nb1       1.0  0.2500000741838145  0.2500001419708998  0.2499996229805602  1.0000
  Nb  Nb2       1.0  0.7499998425873484  0.7499998108795886  0.7500004032785944  1.0000
  Sn  Sn1       1.0  0.9999999922647966  1.8089208883882736e-08  0.99999999925393  1.0000
  Cl  Cl1       1.0  0.25620892340182494  0.2562089606511748  0.7437911048325541  1.0000
  Cl  Cl2       1.0  0.7437910735942375  0.7437910482758595  0.25620887986147634  1.0000
  Cl  Cl3       1.0  0.7437911042318796  0.25620903375498805  0.2562088576255417  1.0000
  Cl  Cl4       1.0  0.25620895636598057  0.7437909787898863  0.7437911540147543  1.0000
  Cl  Cl5       1.0  0.2562090589831015  0.7437911125527443  0.25620885129645915  1.0000
  Cl  Cl6       1.0  0.7437909814595163  0.256208883711843  0.7437911283443612  1.0000
