data_image0
_chemical_formula_structural       Nb2SbS6
_chemical_formula_sum              "Nb2 Sb1 S6"
_cell_length_a       6.509601046664556
_cell_length_b       6.509601013277824
_cell_length_c       6.5096011535329055
_cell_angle_alpha    59.999999520531546
_cell_angle_beta     60.00000121997017
_cell_angle_gamma    60.000000978752674

_space_group_name_H-M_alt    "P 1"
_space_group_IT_number       1

loop_
  _space_group_symop_operation_xyz
  'x, y, z'

loop_
  _atom_site_type_symbol
  _atom_site_label
  _atom_site_symmetry_multiplicity
  _atom_site_fract_x
  _atom_site_fract_y
  _atom_site_fract_z
  _atom_site_occupancy
  Nb  Nb1       1.0  0.2499998134103153  0.24999978511065396  0.2500004339006867  1.0000
  Nb  Nb2       1.0  0.7500000282393108  0.7500000232445377  0.74999973820041  1.0000
  Sb  Sb1       1.0  0.9999999798605876  1.8814435809714487e-09  1.2201368961585972e-08  1.0000
  S   S1        1.0  0.26491511108983723  0.2649149970966133  0.7350849048112645  1.0000
  S   S2        1.0  0.7350848983184254  0.7350850370318412  0.2649152226069355  1.0000
  S   S3        1.0  0.7350849749171643  0.2649150283627958  0.2649150829186774  1.0000
  S   S4        1.0  0.2649150500774856  0.7350851186522904  0.7350847682684585  1.0000
  S   S5        1.0  0.2649150115699701  0.7350849323969338  0.2649150549088905  1.0000
  S   S6        1.0  0.7350851382946284  0.26491508479852877  0.7350847757101978  1.0000
