data_image0
_chemical_formula_structural       Nb2SbBr6
_chemical_formula_sum              "Nb2 Sb1 Br6"
_cell_length_a       7.008972291447292
_cell_length_b       7.008972235120518
_cell_length_c       7.008972022046169
_cell_angle_alpha    59.99999964976394
_cell_angle_beta     59.999998911335375
_cell_angle_gamma    59.99999935119206

_space_group_name_H-M_alt    "P 1"
_space_group_IT_number       1

loop_
  _space_group_symop_operation_xyz
  'x, y, z'

loop_
  _atom_site_type_symbol
  _atom_site_label
  _atom_site_symmetry_multiplicity
  _atom_site_fract_x
  _atom_site_fract_y
  _atom_site_fract_z
  _atom_site_occupancy
  Nb  Nb1       1.0  0.24999979078770881  0.2500002164189422  0.24999987651710745  1.0000
  Nb  Nb2       1.0  0.7500001882362612  0.7499998227386011  0.7500000457757731  1.0000
  Sb  Sb1       1.0  3.316622785937142e-08  0.9999999598098961  2.063285084194774e-08  1.0000
  Br  Br1       1.0  0.26295655603100654  0.26295674251485934  0.7370433901328485  1.0000
  Br  Br2       1.0  0.7370434354074562  0.737043279168725  0.26295664882918485  1.0000
  Br  Br3       1.0  0.7370434227841095  0.2629566383442616  0.26295663157555976  1.0000
  Br  Br4       1.0  0.26295662781450346  0.7370433047065115  0.7370433571996086  1.0000
  Br  Br5       1.0  0.2629565880463348  0.7370433392184829  0.26295671494623196  1.0000
  Br  Br6       1.0  0.7370433758678289  0.2629566859598934  0.737043304642215  1.0000
