data_image0
_chemical_formula_structural       Nb2SnF6
_chemical_formula_sum              "Nb2 Sn1 F6"
_cell_length_a       5.723002026407612
_cell_length_b       5.723002508000595
_cell_length_c       5.723002182071438
_cell_angle_alpha    59.999998296321564
_cell_angle_beta     59.999998933090396
_cell_angle_gamma    59.999997090820685

_space_group_name_H-M_alt    "P 1"
_space_group_IT_number       1

loop_
  _space_group_symop_operation_xyz
  'x, y, z'

loop_
  _atom_site_type_symbol
  _atom_site_label
  _atom_site_symmetry_multiplicity
  _atom_site_fract_x
  _atom_site_fract_y
  _atom_site_fract_z
  _atom_site_occupancy
  Nb  Nb1       1.0  0.24999888774164158  0.25000082630562065  0.25000109149330796  1.0000
  Nb  Nb2       1.0  0.7500007777781359  0.749999027033794  0.7500003920363553  1.0000
  Sn  Sn1       1.0  1.7099316143890004e-08  0.9999999850197226  7.931787476008256e-08  1.0000
  F   F1        1.0  0.26184349125863726  0.2618442721216469  0.7381556544633507  1.0000
  F   F2        1.0  0.7381566331414251  0.7381557117602159  0.26184348647873534  1.0000
  F   F3        1.0  0.7381560647986029  0.26184404998906263  0.26184364200088944  1.0000
  F   F4        1.0  0.26184370285866854  0.7381563019795135  0.7381559825229269  1.0000
  F   F5        1.0  0.26184397533754755  0.7381559893441428  0.2618437554139275  1.0000
  F   F6        1.0  0.7381564578257181  0.26184388539569303  0.7381558588433369  1.0000
