data_image0
_chemical_formula_structural       Nb2SeI6
_chemical_formula_sum              "Nb2 Se1 I6"
_cell_length_a       7.70111231871273
_cell_length_b       7.701112283326109
_cell_length_c       7.701112363414877
_cell_angle_alpha    60.00000002477401
_cell_angle_beta     60.00000034145997
_cell_angle_gamma    60.00000025625899

_space_group_name_H-M_alt    "P 1"
_space_group_IT_number       1

loop_
  _space_group_symop_operation_xyz
  'x, y, z'

loop_
  _atom_site_type_symbol
  _atom_site_label
  _atom_site_symmetry_multiplicity
  _atom_site_fract_x
  _atom_site_fract_y
  _atom_site_fract_z
  _atom_site_occupancy
  Nb  Nb1       1.0  0.25000003332740883  0.2500000077765951  0.2499999744384365  1.0000
  Nb  Nb2       1.0  0.7500000387669855  0.749999878608115  0.7500000353733606  1.0000
  Se  Se1       1.0  1.2109289954070161e-09  4.134904877061134e-08  3.1959073420882706e-08  1.0000
  I   I1        1.0  0.2642610572736931  0.26426117491506385  0.7357388800701051  1.0000
  I   I2        1.0  0.7357389136621755  0.7357388530106199  0.26426110435641303  1.0000
  I   I3        1.0  0.7357388678707092  0.26426112809976676  0.26426108544948557  1.0000
  I   I4        1.0  0.26426112275479974  0.7357388632479126  0.7357388775553992  1.0000
  I   I5        1.0  0.2642611278755875  0.7357388717693282  0.2642611219808745  1.0000
  I   I6        1.0  0.7357388422573047  0.26426117205983607  0.7357388925522893  1.0000
