data_image0
_chemical_formula_structural       Nb2TaI6
_chemical_formula_sum              "Nb2 Ta1 I6"
_cell_length_a       7.659284380366585
_cell_length_b       7.659284467910666
_cell_length_c       7.659284460232232
_cell_angle_alpha    59.999999890278076
_cell_angle_beta     59.999999254681256
_cell_angle_gamma    59.9999994433546

_space_group_name_H-M_alt    "P 1"
_space_group_IT_number       1

loop_
  _space_group_symop_operation_xyz
  'x, y, z'

loop_
  _atom_site_type_symbol
  _atom_site_label
  _atom_site_symmetry_multiplicity
  _atom_site_fract_x
  _atom_site_fract_y
  _atom_site_fract_z
  _atom_site_occupancy
  Nb  Nb1       1.0  0.25000001383877224  0.2499999514075916  0.24999998500069598  1.0000
  Nb  Nb2       1.0  0.7499999298897344  0.7500001212612888  0.750000040496746  1.0000
  Ta  Ta1       1.0  0.9999999866146552  0.999999990405802  1.1489771478713905e-08  1.0000
  I   I1        1.0  0.2543486052099072  0.2543485711773422  0.7456513976757086  1.0000
  I   I2        1.0  0.7456514031487618  0.7456513799650288  0.2543486079625222  1.0000
  I   I3        1.0  0.7456513838482571  0.25434858883524786  0.25434859029273266  1.0000
  I   I4        1.0  0.25434861552498444  0.7456514118771467  0.7456514107204599  1.0000
  I   I5        1.0  0.25434864232691917  0.7456514007363922  0.25434855475333445  1.0000
  I   I6        1.0  0.7456514155833919  0.2543485871837377  0.7456513933585407  1.0000
