data_image0
_chemical_formula_structural       Nb2TaF6
_chemical_formula_sum              "Nb2 Ta1 F6"
_cell_length_a       5.804927427400538
_cell_length_b       5.804926241359534
_cell_length_c       5.804927858605351
_cell_angle_alpha    59.99999974750072
_cell_angle_beta     60.00000407332246
_cell_angle_gamma    59.99999597150571

_space_group_name_H-M_alt    "P 1"
_space_group_IT_number       1

loop_
  _space_group_symop_operation_xyz
  'x, y, z'

loop_
  _atom_site_type_symbol
  _atom_site_label
  _atom_site_symmetry_multiplicity
  _atom_site_fract_x
  _atom_site_fract_y
  _atom_site_fract_z
  _atom_site_occupancy
  Nb  Nb1       1.0  0.25000070526735546  0.2499966757709352  0.25000196937363317  1.0000
  Nb  Nb2       1.0  0.7500005367582485  0.7499995384586154  0.7499994062939094  1.0000
  Ta  Ta1       1.0  5.7169515229863e-07  1.2448039267231417e-06  0.9999991106999903  1.0000
  F   F1        1.0  0.2484735858934395  0.24847370086663953  0.7515259260014999  1.0000
  F   F2        1.0  0.7515261537723541  0.7515278976673768  0.24847318999926096  1.0000
  F   F3        1.0  0.7515264871799423  0.24847274211415174  0.24847404064223325  1.0000
  F   F4        1.0  0.2484726443030107  0.7515275778585404  0.7515259601595674  1.0000
  F   F5        1.0  0.24847259042871953  0.7515272880856881  0.2484738217513766  1.0000
  F   F6        1.0  0.7515266825818395  0.24847332937408842  0.751526540084343  1.0000
