data_image0
_chemical_formula_structural       Nb2TiF6
_chemical_formula_sum              "Nb2 Ti1 F6"
_cell_length_a       5.645721879365756
_cell_length_b       5.645721095285046
_cell_length_c       5.645721618166749
_cell_angle_alpha    59.9999986367972
_cell_angle_beta     60.000002007648185
_cell_angle_gamma    60.0000002324572

_space_group_name_H-M_alt    "P 1"
_space_group_IT_number       1

loop_
  _space_group_symop_operation_xyz
  'x, y, z'

loop_
  _atom_site_type_symbol
  _atom_site_label
  _atom_site_symmetry_multiplicity
  _atom_site_fract_x
  _atom_site_fract_y
  _atom_site_fract_z
  _atom_site_occupancy
  Nb  Nb1       1.0  0.25000188293152575  0.2499991069430585  0.24999884866229538  1.0000
  Nb  Nb2       1.0  0.7499990752383134  0.7500026530494599  0.7499979690324211  1.0000
  Ti  Ti1       1.0  0.9999997757863865  0.9999999240733407  3.0062661917449e-07  1.0000
  F   F1        1.0  0.2498229297051118  0.24982149068915405  0.7501780882671221  1.0000
  F   F2        1.0  0.7501770863353482  0.7501781563730467  0.24982274556754072  1.0000
  F   F3        1.0  0.7501773771957324  0.24982142670691043  0.24982334166023862  1.0000
  F   F4        1.0  0.24982256338274805  0.7501778515686807  0.7501777585800327  1.0000
  F   F5        1.0  0.2498220924909308  0.7501776801255016  0.24982273439890584  1.0000
  F   F6        1.0  0.7501771999010972  0.24982173264870683  0.7501782259246642  1.0000
