data_image0
_chemical_formula_structural       Nb2TaBr6
_chemical_formula_sum              "Nb2 Ta1 Br6"
_cell_length_a       6.868493451882596
_cell_length_b       6.8684936530603515
_cell_length_c       6.868493607036358
_cell_angle_alpha    59.99999929299271
_cell_angle_beta     59.99999936955326
_cell_angle_gamma    59.99999993659042

_space_group_name_H-M_alt    "P 1"
_space_group_IT_number       1

loop_
  _space_group_symop_operation_xyz
  'x, y, z'

loop_
  _atom_site_type_symbol
  _atom_site_label
  _atom_site_symmetry_multiplicity
  _atom_site_fract_x
  _atom_site_fract_y
  _atom_site_fract_z
  _atom_site_occupancy
  Nb  Nb1       1.0  0.2499999942218959  0.2500000441013928  0.24999998170405943  1.0000
  Nb  Nb2       1.0  0.7499999647353629  0.7500000146172936  0.7500000565984836  1.0000
  Ta  Ta1       1.0  3.1758493985749107e-09  0.999999980385519  3.151408901709519e-08  1.0000
  Br  Br1       1.0  0.25918727831185134  0.259187184994056  0.7408127613645444  1.0000
  Br  Br2       1.0  0.7408127418138724  0.7408127810016317  0.25918719953617386  1.0000
  Br  Br3       1.0  0.7408127542414272  0.2591872673891021  0.259187221543106  1.0000
  Br  Br4       1.0  0.2591872372696603  0.7408127592331621  0.7408127597497248  1.0000
  Br  Br5       1.0  0.25918727382987766  0.7408127235039851  0.25918724590122877  1.0000
  Br  Br6       1.0  0.7408127478750225  0.25918724784110614  0.7408127435655124  1.0000
