data_image0
_chemical_formula_structural       Nb2TiI6
_chemical_formula_sum              "Nb2 Ti1 I6"
_cell_length_a       7.578528110293207
_cell_length_b       7.578527987801264
_cell_length_c       7.578528075287473
_cell_angle_alpha    59.99999969256548
_cell_angle_beta     60.00000014462407
_cell_angle_gamma    59.99999971352121

_space_group_name_H-M_alt    "P 1"
_space_group_IT_number       1

loop_
  _space_group_symop_operation_xyz
  'x, y, z'

loop_
  _atom_site_type_symbol
  _atom_site_label
  _atom_site_symmetry_multiplicity
  _atom_site_fract_x
  _atom_site_fract_y
  _atom_site_fract_z
  _atom_site_occupancy
  Nb  Nb1       1.0  0.24999997168551794  0.2500000283087774  0.24999999648040874  1.0000
  Nb  Nb2       1.0  0.7499999742649629  0.7499999895780695  0.7500001117530312  1.0000
  Ti  Ti1       1.0  4.033837510048394e-08  0.9999999886874943  0.9999999524991292  1.0000
  I   I1        1.0  0.2534104468922514  0.2534104615735958  0.7465895425572538  1.0000
  I   I2        1.0  0.7465895571416835  0.7465895466168178  0.25341040557237887  1.0000
  I   I3        1.0  0.746589537086452  0.2534104765201598  0.25341045813242996  1.0000
  I   I4        1.0  0.2534103979977891  0.7465895785363488  0.7465895498611477  1.0000
  I   I5        1.0  0.25341047439629405  0.7465895231585017  0.2534104347978246  1.0000
  I   I6        1.0  0.746589594570941  0.25341040907651613  0.7465895584283793  1.0000
