data_image0
_chemical_formula_structural       Nb2TaI6
_chemical_formula_sum              "Nb2 Ta1 I6"
_cell_length_a       7.659380371536969
_cell_length_b       7.659380267835065
_cell_length_c       7.659380277422689
_cell_angle_alpha    59.99999917401497
_cell_angle_beta     59.999999538099644
_cell_angle_gamma    59.999998852297146

_space_group_name_H-M_alt    "P 1"
_space_group_IT_number       1

loop_
  _space_group_symop_operation_xyz
  'x, y, z'

loop_
  _atom_site_type_symbol
  _atom_site_label
  _atom_site_symmetry_multiplicity
  _atom_site_fract_x
  _atom_site_fract_y
  _atom_site_fract_z
  _atom_site_occupancy
  Nb  Nb1       1.0  0.250000008722599  0.24999998936997073  0.2500000593615982  1.0000
  Nb  Nb2       1.0  0.7499999643549832  0.7500001264122031  0.750000029309729  1.0000
  Ta  Ta1       1.0  0.9999999982494698  0.9999999600246744  0.9999999895288004  1.0000
  I   I1        1.0  0.25434641300935124  0.25434641097258387  0.7456535734179003  1.0000
  I   I2        1.0  0.7456535882573949  0.745653570492496  0.2543463777014488  1.0000
  I   I3        1.0  0.7456535819105288  0.2543463763560919  0.2543464264105844  1.0000
  I   I4        1.0  0.25434638815462035  0.7456535811237925  0.7456536045257074  1.0000
  I   I5        1.0  0.25434645983208637  0.7456535598962191  0.25434639337967585  1.0000
  I   I6        1.0  0.7456535941079474  0.25434642636589994  0.7456535446715733  1.0000
