data_image0
_chemical_formula_structural       Nb2TeF6
_chemical_formula_sum              "Nb2 Te1 F6"
_cell_length_a       5.727212031936056
_cell_length_b       5.7272023371254885
_cell_length_c       5.727202813726305
_cell_angle_alpha    60.000149660299904
_cell_angle_beta     60.00021335704455
_cell_angle_gamma    60.00015011338189

_space_group_name_H-M_alt    "P 1"
_space_group_IT_number       1

loop_
  _space_group_symop_operation_xyz
  'x, y, z'

loop_
  _atom_site_type_symbol
  _atom_site_label
  _atom_site_symmetry_multiplicity
  _atom_site_fract_x
  _atom_site_fract_y
  _atom_site_fract_z
  _atom_site_occupancy
  Nb  Nb1       1.0  0.25010226079668907  0.24983811385879232  0.25001123546775644  1.0000
  Nb  Nb2       1.0  0.750066910532323  0.7498432803270024  0.7499966758354613  1.0000
  Te  Te1       1.0  0.9999865906395329  2.4248068597772227e-05  4.2469723184553883e-07  1.0000
  F   F1        1.0  0.2713437112031652  0.27143036288068983  0.7286179928785192  1.0000
  F   F2        1.0  0.7285674433713901  0.7286755531764202  0.2713985677998206  1.0000
  F   F3        1.0  0.7285963017819931  0.2714252393583887  0.27135962500171545  1.0000
  F   F4        1.0  0.2713791116121481  0.7286596406053374  0.7285933213146308  1.0000
  F   F5        1.0  0.2713641896339883  0.7286651042745602  0.27139170293147186  1.0000
  F   F6        1.0  0.7285936441085821  0.27143889150659667  0.7286302510750876  1.0000
