data_image0
_chemical_formula_structural       Nb2TeI6
_chemical_formula_sum              "Nb2 Te1 I6"
_cell_length_a       7.88651990210086
_cell_length_b       7.886519712529287
_cell_length_c       7.886519900383291
_cell_angle_alpha    59.99999922043532
_cell_angle_beta     59.999999825911495
_cell_angle_gamma    59.99999830347195

_space_group_name_H-M_alt    "P 1"
_space_group_IT_number       1

loop_
  _space_group_symop_operation_xyz
  'x, y, z'

loop_
  _atom_site_type_symbol
  _atom_site_label
  _atom_site_symmetry_multiplicity
  _atom_site_fract_x
  _atom_site_fract_y
  _atom_site_fract_z
  _atom_site_occupancy
  Nb  Nb1       1.0  0.25000001342111605  0.24999988435716183  0.2500000545638282  1.0000
  Nb  Nb2       1.0  0.7499999460478266  0.7500000894532195  0.7499999773925417  1.0000
  Te  Te1       1.0  1.6519189611648852e-08  2.9506238004501546e-08  0.9999999643074221  1.0000
  I   I1        1.0  0.265164490815281  0.26516439984667933  0.7348355466659924  1.0000
  I   I2        1.0  0.73483551682328  0.7348355304808243  0.26516446773117  1.0000
  I   I3        1.0  0.7348355534797879  0.2651644229305494  0.26516446942828786  1.0000
  I   I4        1.0  0.2651644522936505  0.7348356052334281  0.7348355337548045  1.0000
  I   I5        1.0  0.26516443449111443  0.7348356172907243  0.2651644273438508  1.0000
  I   I6        1.0  0.7348355681764042  0.26516442019101255  0.7348355676613763  1.0000
