data_image0
_chemical_formula_structural       Nb2TiBr6
_chemical_formula_sum              "Nb2 Ti1 Br6"
_cell_length_a       6.729494289457131
_cell_length_b       6.729494149467637
_cell_length_c       6.729494316654324
_cell_angle_alpha    59.99999883179147
_cell_angle_beta     60.000000029656775
_cell_angle_gamma    60.000000279232545

_space_group_name_H-M_alt    "P 1"
_space_group_IT_number       1

loop_
  _space_group_symop_operation_xyz
  'x, y, z'

loop_
  _atom_site_type_symbol
  _atom_site_label
  _atom_site_symmetry_multiplicity
  _atom_site_fract_x
  _atom_site_fract_y
  _atom_site_fract_z
  _atom_site_occupancy
  Nb  Nb1       1.0  0.24999997375035968  0.24999986363196922  0.2499999831358834  1.0000
  Nb  Nb2       1.0  0.7500000963509504  0.7499999767286464  0.750000166749923  1.0000
  Ti  Ti1       1.0  8.02325630549282e-09  8.917832157445001e-08  0.9999999915210963  1.0000
  Br  Br1       1.0  0.258022066870445  0.2580221030492924  0.7419779612462536  1.0000
  Br  Br2       1.0  0.7419778357465757  0.7419779720869027  0.2580220450302209  1.0000
  Br  Br3       1.0  0.7419779593123664  0.2580220543268792  0.25802207798908583  1.0000
  Br  Br4       1.0  0.2580220808546659  0.741977886131853  0.7419778406633608  1.0000
  Br  Br5       1.0  0.258022066757752  0.7419779775092203  0.25802204892292796  1.0000
  Br  Br6       1.0  0.7419779067307805  0.25802207032749  0.7419778865296732  1.0000
