data_image0
_chemical_formula_structural       Nb2TaBr6
_chemical_formula_sum              "Nb2 Ta1 Br6"
_cell_length_a       6.868514505340003
_cell_length_b       6.868514571080783
_cell_length_c       6.868514506736043
_cell_angle_alpha    60.00000093410179
_cell_angle_beta     59.99999970370142
_cell_angle_gamma    59.99999952815621

_space_group_name_H-M_alt    "P 1"
_space_group_IT_number       1

loop_
  _space_group_symop_operation_xyz
  'x, y, z'

loop_
  _atom_site_type_symbol
  _atom_site_label
  _atom_site_symmetry_multiplicity
  _atom_site_fract_x
  _atom_site_fract_y
  _atom_site_fract_z
  _atom_site_occupancy
  Nb  Nb1       1.0  0.25000001755865936  0.24999998376029653  0.250000009673845  1.0000
  Nb  Nb2       1.0  0.7499999559151022  0.7500000297385738  0.7500000338053749  1.0000
  Ta  Ta1       1.0  1.9987343051927427e-08  0.9999999803855791  2.019640317610636e-08  1.0000
  Br  Br1       1.0  0.25918691463429033  0.2591868653098418  0.7408130965994316  1.0000
  Br  Br2       1.0  0.740813087538503  0.7408131125264447  0.25918689212480844  1.0000
  Br  Br3       1.0  0.7408130920446996  0.25918692359715567  0.259186885087096  1.0000
  Br  Br4       1.0  0.2591868749929005  0.7408131041667477  0.740813141374418  1.0000
  Br  Br5       1.0  0.25918690292721225  0.7408131002316617  0.25918688446322413  1.0000
  Br  Br6       1.0  0.7408131302871245  0.25918689543591555  0.740813053618059  1.0000
