data_image0
_chemical_formula_structural       Nb2TaF6
_chemical_formula_sum              "Nb2 Ta1 F6"
_cell_length_a       5.805452251272666
_cell_length_b       5.805452324538673
_cell_length_c       5.805452281799732
_cell_angle_alpha    59.99999998484817
_cell_angle_beta     59.999997975905735
_cell_angle_gamma    60.000001596735

_space_group_name_H-M_alt    "P 1"
_space_group_IT_number       1

loop_
  _space_group_symop_operation_xyz
  'x, y, z'

loop_
  _atom_site_type_symbol
  _atom_site_label
  _atom_site_symmetry_multiplicity
  _atom_site_fract_x
  _atom_site_fract_y
  _atom_site_fract_z
  _atom_site_occupancy
  Nb  Nb1       1.0  0.24999850146062128  0.25000133266773145  0.24999929849550692  1.0000
  Nb  Nb2       1.0  0.7499995104188835  0.7500014136870783  0.7499995754819455  1.0000
  Ta  Ta1       1.0  1.123284985180231e-06  0.9999996434698684  0.9999996838007867  1.0000
  F   F1        1.0  0.24843717437408183  0.24843609767238317  0.751563700765999  1.0000
  F   F2        1.0  0.7515638910494693  0.7515632521526223  0.2484364970692931  1.0000
  F   F3        1.0  0.7515636890776738  0.2484360073818284  0.24843675847428207  1.0000
  F   F4        1.0  0.2484363569439416  0.7515629099657496  0.7515636967756257  1.0000
  F   F5        1.0  0.2484365509536503  0.7515630661471105  0.24843692478133503  1.0000
  F   F6        1.0  0.751563283324457  0.24843621194991083  0.7515639072655017  1.0000
