data_image0
_chemical_formula_structural       Nb2TaCl6
_chemical_formula_sum              "Nb2 Ta1 Cl6"
_cell_length_a       6.668372331297582
_cell_length_b       6.668372005948871
_cell_length_c       6.6683725791793815
_cell_angle_alpha    59.999999437807986
_cell_angle_beta     60.000001513589964
_cell_angle_gamma    59.999999145709914

_space_group_name_H-M_alt    "P 1"
_space_group_IT_number       1

loop_
  _space_group_symop_operation_xyz
  'x, y, z'

loop_
  _atom_site_type_symbol
  _atom_site_label
  _atom_site_symmetry_multiplicity
  _atom_site_fract_x
  _atom_site_fract_y
  _atom_site_fract_z
  _atom_site_occupancy
  Nb  Nb1       1.0  0.24999997965571713  0.25000020125360917  0.24999974664450614  1.0000
  Nb  Nb2       1.0  0.750000078381444  0.7499999517509716  0.750000315021774  1.0000
  Ta  Ta1       1.0  0.9999999694793203  0.9999999357173358  0.9999999784193219  1.0000
  Cl  Cl1       1.0  0.25825900699588333  0.25825907291234124  0.7417410464565141  1.0000
  Cl  Cl2       1.0  0.7417409641849096  0.7417408523479447  0.25825900005422103  1.0000
  Cl  Cl3       1.0  0.7417409673820412  0.2582590231486553  0.25825906752701366  1.0000
  Cl  Cl4       1.0  0.2582590821052129  0.741740942517875  0.7417408611423363  1.0000
  Cl  Cl5       1.0  0.2582590826238384  0.7417409735950743  0.2582590344950442  1.0000
  Cl  Cl6       1.0  0.7417408694552006  0.25825904533423477  0.7417409582362785  1.0000
