data_image0
_chemical_formula_structural       Nb2TiCl6
_chemical_formula_sum              "Nb2 Ti1 Cl6"
_cell_length_a       6.549658699070568
_cell_length_b       6.549658579509906
_cell_length_c       6.549658632277264
_cell_angle_alpha    60.000001543602124
_cell_angle_beta     60.00000141651598
_cell_angle_gamma    60.0000007239683

_space_group_name_H-M_alt    "P 1"
_space_group_IT_number       1

loop_
  _space_group_symop_operation_xyz
  'x, y, z'

loop_
  _atom_site_type_symbol
  _atom_site_label
  _atom_site_symmetry_multiplicity
  _atom_site_fract_x
  _atom_site_fract_y
  _atom_site_fract_z
  _atom_site_occupancy
  Nb  Nb1       1.0  0.249999975587896  0.2500003734420605  0.24999964221066368  1.0000
  Nb  Nb2       1.0  0.7500001623731466  0.7499995196601762  0.7500007466241062  1.0000
  Ti  Ti1       1.0  0.999999990668664  0.9999999962601257  0.9999999790532568  1.0000
  Cl  Cl1       1.0  0.25761376890447774  0.25761403188536963  0.7423861934368021  1.0000
  Cl  Cl2       1.0  0.7423861067951668  0.7423860239013728  0.25761374439695545  1.0000
  Cl  Cl3       1.0  0.7423860723911988  0.2576141439351231  0.25761371895827645  1.0000
  Cl  Cl4       1.0  0.25761389291862824  0.742385896892123  0.7423861265854418  1.0000
  Cl  Cl5       1.0  0.2576140582495716  0.7423859880281888  0.2576138738395443  1.0000
  Cl  Cl6       1.0  0.7423859834036904  0.2576140247500031  0.7423859490837812  1.0000
