data_image0
_chemical_formula_structural       Nb2VCl6
_chemical_formula_sum              "Nb2 V1 Cl6"
_cell_length_a       6.481814349961512
_cell_length_b       6.481814476865993
_cell_length_c       6.48181450459432
_cell_angle_alpha    59.99999796828372
_cell_angle_beta     59.99999961893896
_cell_angle_gamma    59.99999871528839

_space_group_name_H-M_alt    "P 1"
_space_group_IT_number       1

loop_
  _space_group_symop_operation_xyz
  'x, y, z'

loop_
  _atom_site_type_symbol
  _atom_site_label
  _atom_site_symmetry_multiplicity
  _atom_site_fract_x
  _atom_site_fract_y
  _atom_site_fract_z
  _atom_site_occupancy
  Nb  Nb1       1.0  0.2500001803116986  0.249999833890221  0.25000012088051393  1.0000
  Nb  Nb2       1.0  0.750000197535436  0.7500002272422709  0.7499993137710586  1.0000
  V   V1        1.0  0.999999991506478  9.447547275148891e-09  0.9999999763813191  1.0000
  Cl  Cl1       1.0  0.25424851644933383  0.25424851639309326  0.7457514861932611  1.0000
  Cl  Cl2       1.0  0.7457514082805612  0.7457515466288983  0.25424870787332415  1.0000
  Cl  Cl3       1.0  0.7457514411017563  0.25424829612746547  0.254248644344448  1.0000
  Cl  Cl4       1.0  0.2542485365004999  0.7457514853576374  0.7457515375466196  1.0000
  Cl  Cl5       1.0  0.254248253816831  0.7457515684487943  0.25424868739855194  1.0000
  Cl  Cl6       1.0  0.7457514731539616  0.25424852669485853  0.7457515324039719  1.0000
