data_image0
_chemical_formula_structural       Nb2VI6
_chemical_formula_sum              "Nb2 V1 I6"
_cell_length_a       7.4528434317468095
_cell_length_b       7.452843502310609
_cell_length_c       7.45284362392382
_cell_angle_alpha    60.000000167436355
_cell_angle_beta     59.99999961742264
_cell_angle_gamma    60.00000043732834

_space_group_name_H-M_alt    "P 1"
_space_group_IT_number       1

loop_
  _space_group_symop_operation_xyz
  'x, y, z'

loop_
  _atom_site_type_symbol
  _atom_site_label
  _atom_site_symmetry_multiplicity
  _atom_site_fract_x
  _atom_site_fract_y
  _atom_site_fract_z
  _atom_site_occupancy
  Nb  Nb1       1.0  0.25000000190993776  0.24999996501448946  0.2500000252083739  1.0000
  Nb  Nb2       1.0  0.7499999990920122  0.7500000265095185  0.7500001634892078  1.0000
  V   V1        1.0  0.9999999481198384  3.943981494239586e-08  4.64732653796359e-08  1.0000
  I   I1        1.0  0.2527361716301582  0.25273612994714667  0.7472638348329582  1.0000
  I   I2        1.0  0.7472638121571842  0.7472638435002779  0.2527361138904303  1.0000
  I   I3        1.0  0.7472638844415442  0.2527361578027504  0.2527360971909271  1.0000
  I   I4        1.0  0.2527361558578618  0.7472638041413949  0.7472638129268324  1.0000
  I   I5        1.0  0.2527361813026574  0.7472638602154223  0.25273611722387623  1.0000
  I   I6        1.0  0.7472638447384689  0.25273617239172474  0.7472637955522266  1.0000
