data_image0
_chemical_formula_structural       Nb2VBr6
_chemical_formula_sum              "Nb2 V1 Br6"
_cell_length_a       6.659207675457365
_cell_length_b       6.659207634493443
_cell_length_c       6.659207668768541
_cell_angle_alpha    59.99999983090056
_cell_angle_beta     59.99999978428469
_cell_angle_gamma    60.00000037085429

_space_group_name_H-M_alt    "P 1"
_space_group_IT_number       1

loop_
  _space_group_symop_operation_xyz
  'x, y, z'

loop_
  _atom_site_type_symbol
  _atom_site_label
  _atom_site_symmetry_multiplicity
  _atom_site_fract_x
  _atom_site_fract_y
  _atom_site_fract_z
  _atom_site_occupancy
  Nb  Nb1       1.0  0.25000000618988244  0.24999999368331088  0.24999999743519782  1.0000
  Nb  Nb2       1.0  0.750000004890042  0.7500000012808584  0.7499999935349737  1.0000
  V   V1        1.0  0.9999999889829964  1.8391750061078364e-09  7.592274646625972e-09  1.0000
  Br  Br1       1.0  0.2576568186442507  0.25765682214515906  0.7423431868161354  1.0000
  Br  Br2       1.0  0.742343177845504  0.7423431801757107  0.25765682128589235  1.0000
  Br  Br3       1.0  0.7423431739324384  0.25765682701197806  0.2576568262366747  1.0000
  Br  Br4       1.0  0.25765683888147667  0.7423431679521914  0.7423431668698618  1.0000
  Br  Br5       1.0  0.2576568250481967  0.7423431766857388  0.25765683276477414  1.0000
  Br  Br6       1.0  0.7423431678683922  0.2576568311526561  0.742343165354993  1.0000
