data_image0
_chemical_formula_structural       Nb2VF6
_chemical_formula_sum              "Nb2 V1 F6"
_cell_length_a       5.700372246739927
_cell_length_b       5.700380632855196
_cell_length_c       5.700375280300774
_cell_angle_alpha    59.99993428897122
_cell_angle_beta     59.99990831255319
_cell_angle_gamma    59.99988822187748

_space_group_name_H-M_alt    "P 1"
_space_group_IT_number       1

loop_
  _space_group_symop_operation_xyz
  'x, y, z'

loop_
  _atom_site_type_symbol
  _atom_site_label
  _atom_site_symmetry_multiplicity
  _atom_site_fract_x
  _atom_site_fract_y
  _atom_site_fract_z
  _atom_site_occupancy
  Nb  Nb1       1.0  0.2499433971354695  0.25000450749818054  0.2500115626495485  1.0000
  Nb  Nb2       1.0  0.7499826235563767  0.7500215341767271  0.7500118428655002  1.0000
  V   V1        1.0  4.649309798080569e-06  0.9999994821993976  0.9999972167465572  1.0000
  F   F1        1.0  0.24335744185638974  0.24333884781134868  0.7566562090078728  1.0000
  F   F2        1.0  0.75666513373164  0.7566411979637147  0.24334228363111332  1.0000
  F   F3        1.0  0.756673137796935  0.2433465531738642  0.24334583587972156  1.0000
  F   F4        1.0  0.24335055766484492  0.7566503327982094  0.7566519305534841  1.0000
  F   F5        1.0  0.24335456921517154  0.7566584504053732  0.24334321725973715  1.0000
  F   F6        1.0  0.7566686869796673  0.24333916393227892  0.7566393336862886  1.0000
