data_image0
_chemical_formula_structural       Nb2WBr6
_chemical_formula_sum              "Nb2 W1 Br6"
_cell_length_a       6.754352523737431
_cell_length_b       6.754352730716762
_cell_length_c       6.754352460687258
_cell_angle_alpha    59.99999893043813
_cell_angle_beta     59.999999020044456
_cell_angle_gamma    60.000000970405246

_space_group_name_H-M_alt    "P 1"
_space_group_IT_number       1

loop_
  _space_group_symop_operation_xyz
  'x, y, z'

loop_
  _atom_site_type_symbol
  _atom_site_label
  _atom_site_symmetry_multiplicity
  _atom_site_fract_x
  _atom_site_fract_y
  _atom_site_fract_z
  _atom_site_occupancy
  Nb  Nb1       1.0  0.2500001282877605  0.24999987900802687  0.24999996565841373  1.0000
  Nb  Nb2       1.0  0.7500000272291764  0.7500000431960088  0.7499999704210962  1.0000
  W   W1        1.0  0.9999999417532919  3.626535041991625e-08  1.8393312879994644e-08  1.0000
  Br  Br1       1.0  0.2605939406296537  0.26059400165005703  0.7394060629640576  1.0000
  Br  Br2       1.0  0.7394060100475277  0.7394060837480556  0.2605939650035782  1.0000
  Br  Br3       1.0  0.7394059713863967  0.26059401872136  0.2605939640916232  1.0000
  Br  Br4       1.0  0.260594031460733  0.7394059306816879  0.7394060036322216  1.0000
  Br  Br5       1.0  0.26059384367290234  0.7394060972747983  0.26059401280925015  1.0000
  Br  Br6       1.0  0.7394060907560389  0.2605939137793444  0.7394060308439557  1.0000
