data_image0
_chemical_formula_structural       Nb2WF6
_chemical_formula_sum              "Nb2 W1 F6"
_cell_length_a       5.737363831227147
_cell_length_b       5.737362949917772
_cell_length_c       5.737361817377713
_cell_angle_alpha    60.0000002831029
_cell_angle_beta     60.00000434570414
_cell_angle_gamma    60.00000090745677

_space_group_name_H-M_alt    "P 1"
_space_group_IT_number       1

loop_
  _space_group_symop_operation_xyz
  'x, y, z'

loop_
  _atom_site_type_symbol
  _atom_site_label
  _atom_site_symmetry_multiplicity
  _atom_site_fract_x
  _atom_site_fract_y
  _atom_site_fract_z
  _atom_site_occupancy
  Nb  Nb1       1.0  0.2500002193231525  0.24999882985132144  0.25000478311363006  1.0000
  Nb  Nb2       1.0  0.7499958055800274  0.7500022617359516  0.7500051328066942  1.0000
  W   W1        1.0  4.211039343004327e-07  0.9999997993398763  0.9999992361675681  1.0000
  F   F1        1.0  0.25260825445742097  0.25260614586468844  0.7473909217321517  1.0000
  F   F2        1.0  0.7473925760072047  0.747393389539626  0.25260547378740417  1.0000
  F   F3        1.0  0.7473926047732565  0.2526076802963257  0.252605787432459  1.0000
  F   F4        1.0  0.252607623857491  0.7473934070221666  0.7473913897220531  1.0000
  F   F5        1.0  0.25260890514670903  0.7473925639297895  0.25260509291768574  1.0000
  F   F6        1.0  0.7473935802177462  0.2526060279448215  0.747391933432895  1.0000
