data_image0
_chemical_formula_structural       Nb2WI6
_chemical_formula_sum              "Nb2 W1 I6"
_cell_length_a       7.618684406774833
_cell_length_b       7.6186844213086
_cell_length_c       7.618684353983187
_cell_angle_alpha    60.00000123324567
_cell_angle_beta     60.0000001643445
_cell_angle_gamma    59.99999941838222

_space_group_name_H-M_alt    "P 1"
_space_group_IT_number       1

loop_
  _space_group_symop_operation_xyz
  'x, y, z'

loop_
  _atom_site_type_symbol
  _atom_site_label
  _atom_site_symmetry_multiplicity
  _atom_site_fract_x
  _atom_site_fract_y
  _atom_site_fract_z
  _atom_site_occupancy
  Nb  Nb1       1.0  0.2500000158829183  0.2500000099798442  0.24999994974180234  1.0000
  Nb  Nb2       1.0  0.7499999780065489  0.7500000524452943  0.7499999777986359  1.0000
  W   W1        1.0  2.1018984460654953e-08  3.6973747791020266e-08  0.9999999801915722  1.0000
  I   I1        1.0  0.25327814502555046  0.2532780869875836  0.7467218825223819  1.0000
  I   I2        1.0  0.7467218614039237  0.7467218741616367  0.25327812220007595  1.0000
  I   I3        1.0  0.7467218820081504  0.2532780644025653  0.25327813549225814  1.0000
  I   I4        1.0  0.2532780417663567  0.7467219128221994  0.7467219458344764  1.0000
  I   I5        1.0  0.25327813276922334  0.7467219090454497  0.2532780771029088  1.0000
  I   I6        1.0  0.7467219232316883  0.25327804888866173  0.7467219293800736  1.0000
