data_image0
_chemical_formula_structural       Nb2YF6
_chemical_formula_sum              "Nb2 Y1 F6"
_cell_length_a       5.801055732539664
_cell_length_b       5.801057111869455
_cell_length_c       5.801055437862808
_cell_angle_alpha    59.99999932083394
_cell_angle_beta     59.99999251422206
_cell_angle_gamma    59.99999611842641

_space_group_name_H-M_alt    "P 1"
_space_group_IT_number       1

loop_
  _space_group_symop_operation_xyz
  'x, y, z'

loop_
  _atom_site_type_symbol
  _atom_site_label
  _atom_site_symmetry_multiplicity
  _atom_site_fract_x
  _atom_site_fract_y
  _atom_site_fract_z
  _atom_site_occupancy
  Nb  Nb1       1.0  0.24999869670542701  0.25000176080840575  0.24999919178557584  1.0000
  Nb  Nb2       1.0  0.7499996800852632  0.74999993464308  0.7500001143062158  1.0000
  Y   Y1        1.0  0.9999999579994298  0.999999940885171  0.9999999557473738  1.0000
  F   F1        1.0  0.2617430723049259  0.26174279211627294  0.7382574969562511  1.0000
  F   F2        1.0  0.7382577635212716  0.7382563571743427  0.26174309385170336  1.0000
  F   F3        1.0  0.7382576295705919  0.26174305441593076  0.2617427586072084  1.0000
  F   F4        1.0  0.2617427850868262  0.7382565044561099  0.7382577655938025  1.0000
  F   F5        1.0  0.26174304644284585  0.7382566466363455  0.2617427641293998  1.0000
  F   F6        1.0  0.7382574102945147  0.26174303679916905  0.7382568803430901  1.0000
