data_image0
_chemical_formula_structural       Nb2YI6
_chemical_formula_sum              "Nb2 Y1 I6"
_cell_length_a       7.800448654094926
_cell_length_b       7.800448648703966
_cell_length_c       7.800448813501349
_cell_angle_alpha    59.999999737397445
_cell_angle_beta     59.99999866528761
_cell_angle_gamma    59.99999903577564

_space_group_name_H-M_alt    "P 1"
_space_group_IT_number       1

loop_
  _space_group_symop_operation_xyz
  'x, y, z'

loop_
  _atom_site_type_symbol
  _atom_site_label
  _atom_site_symmetry_multiplicity
  _atom_site_fract_x
  _atom_site_fract_y
  _atom_site_fract_z
  _atom_site_occupancy
  Nb  Nb1       1.0  0.24999993760247696  0.24999991298935353  0.25000013623527373  1.0000
  Nb  Nb2       1.0  0.7500000547530976  0.7499998080522571  0.7500001608885073  1.0000
  Y   Y1        1.0  0.9999999785728421  1.0990667883172247e-08  0.9999999706048522  1.0000
  I   I1        1.0  0.26235998298256663  0.26236002813031295  0.7376399756059429  1.0000
  I   I2        1.0  0.7376399930382005  0.7376400838650579  0.2623599239640502  1.0000
  I   I3        1.0  0.737640036772996  0.26236007337902745  0.26235992321272883  1.0000
  I   I4        1.0  0.262359951598131  0.7376400637378704  0.7376399742870284  1.0000
  I   I5        1.0  0.26236003190579815  0.7376399832696445  0.2623599669422116  1.0000
  I   I6        1.0  0.7376400317682849  0.26236003452000023  0.737639970517379  1.0000
