data_image0
_chemical_formula_structural       Nb2YCl6
_chemical_formula_sum              "Nb2 Y1 Cl6"
_cell_length_a       6.8132714305938675
_cell_length_b       6.813271619234298
_cell_length_c       6.813271552865428
_cell_angle_alpha    59.99999937715206
_cell_angle_beta     60.00000071932162
_cell_angle_gamma    60.00000311000208

_space_group_name_H-M_alt    "P 1"
_space_group_IT_number       1

loop_
  _space_group_symop_operation_xyz
  'x, y, z'

loop_
  _atom_site_type_symbol
  _atom_site_label
  _atom_site_symmetry_multiplicity
  _atom_site_fract_x
  _atom_site_fract_y
  _atom_site_fract_z
  _atom_site_occupancy
  Nb  Nb1       1.0  0.24999991917038109  0.24999986105461963  0.25000009202575685  1.0000
  Nb  Nb2       1.0  0.7500000946814173  0.7499999139198837  0.7499998202930566  1.0000
  Y   Y1        1.0  0.999999945458582  1.617828065416192e-08  6.9084173163484e-08  1.0000
  Cl  Cl1       1.0  0.26406809977553297  0.2640681939323091  0.7359317932830418  1.0000
  Cl  Cl2       1.0  0.7359318874178625  0.7359318237164386  0.26406818568696677  1.0000
  Cl  Cl3       1.0  0.7359317762259603  0.26406825238833126  0.2640681659364633  1.0000
  Cl  Cl4       1.0  0.2640682336310448  0.7359318803059856  0.735931824903758  1.0000
  Cl  Cl5       1.0  0.26406813501402887  0.7359318625362601  0.2640682541407991  1.0000
  Cl  Cl6       1.0  0.735931889634894  0.2640682054449236  0.7359318100949118  1.0000
