data_image0
_chemical_formula_structural       Nb2YBr6
_chemical_formula_sum              "Nb2 Y1 Br6"
_cell_length_a       7.055629980513597
_cell_length_b       7.055629906368137
_cell_length_c       7.055630068417766
_cell_angle_alpha    59.99999895090753
_cell_angle_beta     59.99999863856798
_cell_angle_gamma    59.99999979209179

_space_group_name_H-M_alt    "P 1"
_space_group_IT_number       1

loop_
  _space_group_symop_operation_xyz
  'x, y, z'

loop_
  _atom_site_type_symbol
  _atom_site_label
  _atom_site_symmetry_multiplicity
  _atom_site_fract_x
  _atom_site_fract_y
  _atom_site_fract_z
  _atom_site_occupancy
  Nb  Nb1       1.0  0.2500001122596396  0.25000004886963983  0.24999983712934226  1.0000
  Nb  Nb2       1.0  0.7499998840797916  0.7500000563452047  0.7500000521579459  1.0000
  Y   Y1        1.0  0.9999999552340988  1.7358402440966235e-09  6.119965104493307e-08  1.0000
  Br  Br1       1.0  0.26394619770857675  0.2639460979924321  0.7360538640760271  1.0000
  Br  Br2       1.0  0.7360538541777514  0.7360538405817157  0.26394613036393605  1.0000
  Br  Br3       1.0  0.7360537776124451  0.2639461937587082  0.2639462184665168  1.0000
  Br  Br4       1.0  0.26394619856067464  0.7360538246641066  0.7360538490230344  1.0000
  Br  Br5       1.0  0.2639462063159864  0.7360538002173161  0.2639461578863115  1.0000
  Br  Br6       1.0  0.7360538147563745  0.2639461522435563  0.7360538350961181  1.0000
