data_image0
_chemical_formula_structural       Nb2ZrCl6
_chemical_formula_sum              "Nb2 Zr1 Cl6"
_cell_length_a       6.743411010398852
_cell_length_b       6.743410854835227
_cell_length_c       6.743410980187692
_cell_angle_alpha    60.00000034044358
_cell_angle_beta     60.00000057336397
_cell_angle_gamma    60.000000530495285

_space_group_name_H-M_alt    "P 1"
_space_group_IT_number       1

loop_
  _space_group_symop_operation_xyz
  'x, y, z'

loop_
  _atom_site_type_symbol
  _atom_site_label
  _atom_site_symmetry_multiplicity
  _atom_site_fract_x
  _atom_site_fract_y
  _atom_site_fract_z
  _atom_site_occupancy
  Nb  Nb1       1.0  0.25000011309171466  0.24999994825174224  0.25000001789347903  1.0000
  Nb  Nb2       1.0  0.7499999780220329  0.7499999319332903  0.7499998911662935  1.0000
  Zr  Zr1       1.0  2.144726143646191e-08  1.2713468400019665e-08  0.9999999666074157  1.0000
  Cl  Cl1       1.0  0.2603453708919201  0.2603454052611072  0.7396545849533323  1.0000
  Cl  Cl2       1.0  0.739654615956014  0.7396546747070005  0.26034541129435324  1.0000
  Cl  Cl3       1.0  0.7396545604281372  0.26034541564323327  0.26034537928162804  1.0000
  Cl  Cl4       1.0  0.26034539943785695  0.7396546425303567  0.7396546027981313  1.0000
  Cl  Cl5       1.0  0.26034532756302936  0.7396546054176243  0.2603454324061337  1.0000
  Cl  Cl6       1.0  0.7396546126036854  0.260345378291366  0.7396547094581716  1.0000
