data_image0
_chemical_formula_structural       Nb2ZrBr6
_chemical_formula_sum              "Nb2 Zr1 Br6"
_cell_length_a       6.922456859568823
_cell_length_b       6.922457194666029
_cell_length_c       6.922457203321754
_cell_angle_alpha    59.99999945610863
_cell_angle_beta     59.999998833457894
_cell_angle_gamma    59.99999953299789

_space_group_name_H-M_alt    "P 1"
_space_group_IT_number       1

loop_
  _space_group_symop_operation_xyz
  'x, y, z'

loop_
  _atom_site_type_symbol
  _atom_site_label
  _atom_site_symmetry_multiplicity
  _atom_site_fract_x
  _atom_site_fract_y
  _atom_site_fract_z
  _atom_site_occupancy
  Nb  Nb1       1.0  0.2500000218881161  0.24999995941005707  0.2500000321742708  1.0000
  Nb  Nb2       1.0  0.7499999503982594  0.7500000038458082  0.7500000595674149  1.0000
  Zr  Zr1       1.0  7.363129400881933e-09  0.9999999929230631  0.9999999536305436  1.0000
  Br  Br1       1.0  0.26070789600699007  0.26070790472549804  0.7392920889898535  1.0000
  Br  Br2       1.0  0.7392921281739492  0.7392920779919446  0.26070788184390986  1.0000
  Br  Br3       1.0  0.7392921199636695  0.26070787917193206  0.26070790615011585  1.0000
  Br  Br4       1.0  0.26070786917085575  0.7392921336224937  0.739292113394723  1.0000
  Br  Br5       1.0  0.2607079119969709  0.7392921283637556  0.26070785455097883  1.0000
  Br  Br6       1.0  0.7392921064541689  0.26070792158459033  0.7392921043116912  1.0000
