data_image0
_chemical_formula_structural       Ni2AsI6
_chemical_formula_sum              "Ni2 As1 I6"
_cell_length_a       7.615787373719366
_cell_length_b       7.615787280228571
_cell_length_c       7.615787367190478
_cell_angle_alpha    59.999999342957615
_cell_angle_beta     59.99999919398023
_cell_angle_gamma    59.99999985912273

_space_group_name_H-M_alt    "P 1"
_space_group_IT_number       1

loop_
  _space_group_symop_operation_xyz
  'x, y, z'

loop_
  _atom_site_type_symbol
  _atom_site_label
  _atom_site_symmetry_multiplicity
  _atom_site_fract_x
  _atom_site_fract_y
  _atom_site_fract_z
  _atom_site_occupancy
  Ni  Ni1       1.0  0.2500000418521958  0.25000003532620413  0.2499999391386074  1.0000
  Ni  Ni2       1.0  0.7499999677832221  0.7499999515946928  0.750000144192509  1.0000
  As  As1       1.0  0.9999999879624263  0.9999999951755024  3.206614936177241e-08  1.0000
  I   I1        1.0  0.2596442072388175  0.25964415915529915  0.7403558123603655  1.0000
  I   I2        1.0  0.7403557861625585  0.7403558309819293  0.2596441435472954  1.0000
  I   I3        1.0  0.7403558184087512  0.25964422795443576  0.25964415034073496  1.0000
  I   I4        1.0  0.2596442083330962  0.7403557895216117  0.7403558014885181  1.0000
  I   I5        1.0  0.25964423483961857  0.7403558040015937  0.2596441469268148  1.0000
  I   I6        1.0  0.740355750168818  0.25964420221729284  0.7403558313977244  1.0000
