data_image0
_chemical_formula_structural       Ni2AsCl6
_chemical_formula_sum              "Ni2 As1 Cl6"
_cell_length_a       6.599183029582936
_cell_length_b       6.599183202979362
_cell_length_c       6.599182893657995
_cell_angle_alpha    60.00000091850395
_cell_angle_beta     60.000001526475636
_cell_angle_gamma    60.000000789114985

_space_group_name_H-M_alt    "P 1"
_space_group_IT_number       1

loop_
  _space_group_symop_operation_xyz
  'x, y, z'

loop_
  _atom_site_type_symbol
  _atom_site_label
  _atom_site_symmetry_multiplicity
  _atom_site_fract_x
  _atom_site_fract_y
  _atom_site_fract_z
  _atom_site_occupancy
  Ni  Ni1       1.0  0.25000007511224365  0.24999982221181763  0.25000003252168906  1.0000
  Ni  Ni2       1.0  0.7500000026345301  0.7499997672918551  0.7500000146431289  1.0000
  As  As1       1.0  0.9999999969765465  6.681253350861053e-08  0.999999972651477  1.0000
  Cl  Cl1       1.0  0.25124162580131154  0.25124170798613576  0.7487583132571691  1.0000
  Cl  Cl2       1.0  0.748758360772565  0.7487583807556336  0.25124168292429727  1.0000
  Cl  Cl3       1.0  0.7487583631424551  0.2512416899782831  0.2512415958538835  1.0000
  Cl  Cl4       1.0  0.2512416474853259  0.7487584525846943  0.7487583144145138  1.0000
  Cl  Cl5       1.0  0.25124160932833756  0.7487584336114143  0.25124163781979336  1.0000
  Cl  Cl6       1.0  0.7487583179476739  0.2512416755452958  0.7487584323553429  1.0000
