data_image0
_chemical_formula_structural       Ni2BBr6
_chemical_formula_sum              "Ni2 B1 Br6"
_cell_length_a       6.897079586940239
_cell_length_b       6.897079464254159
_cell_length_c       6.8970794314620765
_cell_angle_alpha    60.00000082505288
_cell_angle_beta     60.00000144879938
_cell_angle_gamma    60.000000208848384

_space_group_name_H-M_alt    "P 1"
_space_group_IT_number       1

loop_
  _space_group_symop_operation_xyz
  'x, y, z'

loop_
  _atom_site_type_symbol
  _atom_site_label
  _atom_site_symmetry_multiplicity
  _atom_site_fract_x
  _atom_site_fract_y
  _atom_site_fract_z
  _atom_site_occupancy
  Ni  Ni1       1.0  0.24999997081833458  0.2500000984690454  0.24999993811768184  1.0000
  Ni  Ni2       1.0  0.7500000300254978  0.7499999828761628  0.750000104668529  1.0000
  B   B1        1.0  2.9238792593320207e-08  1.775744161775264e-08  0.9999999678025487  1.0000
  Br  Br1       1.0  0.2315519916959193  0.23155205102965767  0.7684479851738557  1.0000
  Br  Br2       1.0  0.7684479939642341  0.7684478900317604  0.23155202080485318  1.0000
  Br  Br3       1.0  0.7684479494711003  0.23155205944654658  0.23155202511563464  1.0000
  Br  Br4       1.0  0.23155201418665156  0.7684479526446386  0.7684479693983934  1.0000
  Br  Br5       1.0  0.23155205381027993  0.7684479429037612  0.23155203107412367  1.0000
  Br  Br6       1.0  0.7684479523289263  0.2315520070363779  0.7684479558760314  1.0000
