data_image0
_chemical_formula_structural       Ni2BI6
_chemical_formula_sum              "Ni2 B1 I6"
_cell_length_a       7.236801236118872
_cell_length_b       7.236801112530263
_cell_length_c       7.236801224326725
_cell_angle_alpha    59.999999741579316
_cell_angle_beta     59.99999901754637
_cell_angle_gamma    59.99999994282832

_space_group_name_H-M_alt    "P 1"
_space_group_IT_number       1

loop_
  _space_group_symop_operation_xyz
  'x, y, z'

loop_
  _atom_site_type_symbol
  _atom_site_label
  _atom_site_symmetry_multiplicity
  _atom_site_fract_x
  _atom_site_fract_y
  _atom_site_fract_z
  _atom_site_occupancy
  Ni  Ni1       1.0  0.2500000132089496  0.2500000203356867  0.24999997453881478  1.0000
  Ni  Ni2       1.0  0.750000006619901  0.7500000068507616  0.7499999630525898  1.0000
  B   B1        1.0  2.2731185826172826e-09  0.9999999644599293  2.6306257868014364e-08  1.0000
  I   I1        1.0  0.23979998833562588  0.2397999353591773  0.7602000416616428  1.0000
  I   I2        1.0  0.7602000271102011  0.760200042748126  0.23979995720649586  1.0000
  I   I3        1.0  0.7602000205729738  0.23979998573156389  0.2397999546284611  1.0000
  I   I4        1.0  0.23979994257215365  0.7602000296081945  0.7602001015195355  1.0000
  I   I5        1.0  0.23979998043374195  0.7602000328495592  0.23979993686290255  1.0000
  I   I6        1.0  0.7602000227948452  0.2397999723358931  0.7602000462838255  1.0000
