data_image0
_chemical_formula_structural       Ni2BF6
_chemical_formula_sum              "Ni2 B1 F6"
_cell_length_a       4.809542328718338
_cell_length_b       4.809542369263353
_cell_length_c       4.809542402257442
_cell_angle_alpha    59.99999981043736
_cell_angle_beta     59.99999926066003
_cell_angle_gamma    60.000000343046395

_space_group_name_H-M_alt    "P 1"
_space_group_IT_number       1

loop_
  _space_group_symop_operation_xyz
  'x, y, z'

loop_
  _atom_site_type_symbol
  _atom_site_label
  _atom_site_symmetry_multiplicity
  _atom_site_fract_x
  _atom_site_fract_y
  _atom_site_fract_z
  _atom_site_occupancy
  Ni  Ni1       1.0  0.24999999037381757  0.2500000078358092  0.24999999405225726  1.0000
  Ni  Ni2       1.0  0.749999997967747  0.7500000005890233  0.750000013460025  1.0000
  B   B1        1.0  0.9999999738818863  0.9999999847210633  0.9999999500057292  1.0000
  F   F1        1.0  0.22881307858850763  0.22881312993974962  0.7711868512640719  1.0000
  F   F2        1.0  0.7711870368776315  0.7711868428342316  0.22881304189775226  1.0000
  F   F3        1.0  0.7711868837212467  0.22881315000328348  0.22881311349272773  1.0000
  F   F4        1.0  0.22881302890812805  0.7711868838864429  0.7711870189447968  1.0000
  F   F5        1.0  0.2288130490699167  0.7711868704455904  0.22881312596530326  1.0000
  F   F6        1.0  0.7711869508639927  0.2288131176073269  0.7711868921743635  1.0000
