data_image0
_chemical_formula_structural       Ni2GaCl6
_chemical_formula_sum              "Ni2 Ga1 Cl6"
_cell_length_a       6.5031926528464625
_cell_length_b       6.5031927939081555
_cell_length_c       6.503192692279374
_cell_angle_alpha    59.999999438394646
_cell_angle_beta     59.99999957253116
_cell_angle_gamma    59.99999979153592

_space_group_name_H-M_alt    "P 1"
_space_group_IT_number       1

loop_
  _space_group_symop_operation_xyz
  'x, y, z'

loop_
  _atom_site_type_symbol
  _atom_site_label
  _atom_site_symmetry_multiplicity
  _atom_site_fract_x
  _atom_site_fract_y
  _atom_site_fract_z
  _atom_site_occupancy
  Ni  Ni1       1.0  0.2499999800002717  0.24999996637531716  0.25000001571309655  1.0000
  Ni  Ni2       1.0  0.749999995003984  0.750000149604562  0.7499997544671299  1.0000
  Ga  Ga1       1.0  0.9999999848628688  0.9999999868169164  0.9999999249731455  1.0000
  Cl  Cl1       1.0  0.2524561680812746  0.2524561106090092  0.7475438209087012  1.0000
  Cl  Cl2       1.0  0.7475438741462062  0.7475438942562964  0.2524561818829556  1.0000
  Cl  Cl3       1.0  0.74754385046841  0.25245604818361334  0.25245621641104216  1.0000
  Cl  Cl4       1.0  0.25245606006074933  0.7475439416153093  0.7475439228089229  1.0000
  Cl  Cl5       1.0  0.25245608399615743  0.7475438945118567  0.2524561963619955  1.0000
  Cl  Cl6       1.0  0.7475439972420399  0.25245601995515216  0.7475439782055449  1.0000
