data_image0
_chemical_formula_structural       Ni2GaF6
_chemical_formula_sum              "Ni2 Ga1 F6"
_cell_length_a       5.1038910821890235
_cell_length_b       5.10389102330416
_cell_length_c       5.103891003563028
_cell_angle_alpha    60.00000115646104
_cell_angle_beta     60.00000046321847
_cell_angle_gamma    59.999999344286344

_space_group_name_H-M_alt    "P 1"
_space_group_IT_number       1

loop_
  _space_group_symop_operation_xyz
  'x, y, z'

loop_
  _atom_site_type_symbol
  _atom_site_label
  _atom_site_symmetry_multiplicity
  _atom_site_fract_x
  _atom_site_fract_y
  _atom_site_fract_z
  _atom_site_occupancy
  Ni  Ni1       1.0  0.2499999297807159  0.25000005082456406  0.24999996222169305  1.0000
  Ni  Ni2       1.0  0.7500001000272549  0.7499997973284902  0.750000067597572  1.0000
  Ga  Ga1       1.0  6.512703272460933e-09  1.4397778426784111e-08  1.300496198378411e-09  1.0000
  F   F1        1.0  0.2532563274639965  0.2532563062494125  0.746743699999301  1.0000
  F   F2        1.0  0.7467436846995953  0.7467436762829073  0.2532563125976013  1.0000
  F   F3        1.0  0.746743687055433  0.2532563810488917  0.25325626511793226  1.0000
  F   F4        1.0  0.2532562913996511  0.7467436686730603  0.7467436778375921  1.0000
  F   F5        1.0  0.25325628836606945  0.7467436988272154  0.25325637619813407  1.0000
  F   F6        1.0  0.7467436530673094  0.2532563940880734  0.7467436616360492  1.0000
