data_image0
_chemical_formula_structural       Ni2IrCl6
_chemical_formula_sum              "Ni2 Ir1 Cl6"
_cell_length_a       6.637700770677672
_cell_length_b       6.637700810906957
_cell_length_c       6.6377007925741935
_cell_angle_alpha    59.99999982386042
_cell_angle_beta     59.99999984686911
_cell_angle_gamma    59.99999989623303

_space_group_name_H-M_alt    "P 1"
_space_group_IT_number       1

loop_
  _space_group_symop_operation_xyz
  'x, y, z'

loop_
  _atom_site_type_symbol
  _atom_site_label
  _atom_site_symmetry_multiplicity
  _atom_site_fract_x
  _atom_site_fract_y
  _atom_site_fract_z
  _atom_site_occupancy
  Ni  Ni1       1.0  0.249999995904309  0.24999997940704763  0.25000002286094897  1.0000
  Ni  Ni2       1.0  0.7499999588570336  0.7500001135088915  0.7499999396247256  1.0000
  Ir  Ir1       1.0  0.9999999865926461  3.6902684046050884e-09  3.3519970069826545e-09  1.0000
  Cl  Cl1       1.0  0.2462371404887271  0.2462370703483453  0.7537629297710478  1.0000
  Cl  Cl2       1.0  0.7537628876196734  0.7537628860276632  0.24623713210562256  1.0000
  Cl  Cl3       1.0  0.7537628752880479  0.24623707793599445  0.24623715275258176  1.0000
  Cl  Cl4       1.0  0.24623715958584463  0.7537628581435382  0.7537628586408418  1.0000
  Cl  Cl5       1.0  0.24623709392333062  0.7537628835849471  0.2462371216746684  1.0000
  Cl  Cl6       1.0  0.7537629064206369  0.2462371299902217  0.7537628350918922  1.0000
