data_image0
_chemical_formula_structural       Ni2MoBr6
_chemical_formula_sum              "Ni2 Mo1 Br6"
_cell_length_a       7.085520933548055
_cell_length_b       7.085521120773606
_cell_length_c       7.085521072564103
_cell_angle_alpha    59.999999151027346
_cell_angle_beta     59.99999920797669
_cell_angle_gamma    60.00000014638435

_space_group_name_H-M_alt    "P 1"
_space_group_IT_number       1

loop_
  _space_group_symop_operation_xyz
  'x, y, z'

loop_
  _atom_site_type_symbol
  _atom_site_label
  _atom_site_symmetry_multiplicity
  _atom_site_fract_x
  _atom_site_fract_y
  _atom_site_fract_z
  _atom_site_occupancy
  Ni  Ni1       1.0  0.25000010071761464  0.2500000336452302  0.24999995503642292  1.0000
  Ni  Ni2       1.0  0.7500001539892703  0.7499998658572815  0.7500000327376726  1.0000
  Mo  Mo1       1.0  0.9999999571514663  0.9999999965429649  0.9999999808129203  1.0000
  Br  Br1       1.0  0.2507179141624239  0.2507180005039157  0.7492820541121663  1.0000
  Br  Br2       1.0  0.7492820383790225  0.7492820770359203  0.2507179420954905  1.0000
  Br  Br3       1.0  0.7492819512926552  0.25071801873494953  0.2507179954095348  1.0000
  Br  Br4       1.0  0.25071793385646945  0.749282060533404  0.7492820195167361  1.0000
  Br  Br5       1.0  0.2507179629807149  0.7492819850939916  0.25071794924743684  1.0000
  Br  Br6       1.0  0.7492819877193054  0.25071796107849875  0.7492820641680987  1.0000
