data_image0
_chemical_formula_structural       Ni2NF6
_chemical_formula_sum              "Ni2 N1 F6"
_cell_length_a       4.777350557416224
_cell_length_b       4.777354582468939
_cell_length_c       4.777353837366951
_cell_angle_alpha    59.99998640310516
_cell_angle_beta     60.00000418329508
_cell_angle_gamma    60.0000094691092

_space_group_name_H-M_alt    "P 1"
_space_group_IT_number       1

loop_
  _space_group_symop_operation_xyz
  'x, y, z'

loop_
  _atom_site_type_symbol
  _atom_site_label
  _atom_site_symmetry_multiplicity
  _atom_site_fract_x
  _atom_site_fract_y
  _atom_site_fract_z
  _atom_site_occupancy
  Ni  Ni1       1.0  0.25000104346945273  0.24999987470849847  0.2500029789600684  1.0000
  Ni  Ni2       1.0  0.749999200442809  0.7500006316407655  0.7500034277184671  1.0000
  N   N1        1.0  5.222091962665289e-06  0.9999967621097389  1.3576635238860725e-05  1.0000
  F   F1        1.0  0.24167498339484897  0.2416740081572838  0.7583271230378413  1.0000
  F   F2        1.0  0.7583242579682596  0.7583231321250744  0.24167756202102195  1.0000
  F   F3        1.0  0.7583311815401229  0.24166934078625443  0.24167154572476365  1.0000
  F   F4        1.0  0.24168074317279178  0.7583193266473184  0.7583204801276415  1.0000
  F   F5        1.0  0.24166642973824418  0.7583327917693806  0.24166774145608336  1.0000
  F   F6        1.0  0.7583160680387016  0.24168471925514806  0.7583166155849701  1.0000
