data_image0
_chemical_formula_structural       Ni2NCl6
_chemical_formula_sum              "Ni2 N1 Cl6"
_cell_length_a       6.441797223984581
_cell_length_b       6.441797107152902
_cell_length_c       6.441797114830465
_cell_angle_alpha    60.00000022922298
_cell_angle_beta     60.000000542808785
_cell_angle_gamma    60.00000030135652

_space_group_name_H-M_alt    "P 1"
_space_group_IT_number       1

loop_
  _space_group_symop_operation_xyz
  'x, y, z'

loop_
  _atom_site_type_symbol
  _atom_site_label
  _atom_site_symmetry_multiplicity
  _atom_site_fract_x
  _atom_site_fract_y
  _atom_site_fract_z
  _atom_site_occupancy
  Ni  Ni1       1.0  0.2500000055356782  0.2500000179346604  0.24999995964530963  1.0000
  Ni  Ni2       1.0  0.749999926602415  0.7499999796553405  0.7500000432877362  1.0000
  N   N1        1.0  0.9999999748147398  0.9999999733825388  0.9999999079218611  1.0000
  Cl  Cl1       1.0  0.24088732590645634  0.24088734923503186  0.7591126636885779  1.0000
  Cl  Cl2       1.0  0.7591127096723765  0.7591126445524753  0.24088732512966726  1.0000
  Cl  Cl3       1.0  0.7591126600491896  0.24088736406517228  0.2408873408692379  1.0000
  Cl  Cl4       1.0  0.24088734405965853  0.7591127133772118  0.7591126932652058  1.0000
  Cl  Cl5       1.0  0.24088735906723127  0.759112647121876  0.24088736026758112  1.0000
  Cl  Cl6       1.0  0.7591126837003093  0.2408873143444291  0.7591127140779175  1.0000
