data_image0
_chemical_formula_structural       Ni2NCl6
_chemical_formula_sum              "Ni2 N1 Cl6"
_cell_length_a       6.440277542459109
_cell_length_b       6.440277194638442
_cell_length_c       6.440276868559827
_cell_angle_alpha    59.999997731231886
_cell_angle_beta     60.00000117084357
_cell_angle_gamma    59.99999875306114

_space_group_name_H-M_alt    "P 1"
_space_group_IT_number       1

loop_
  _space_group_symop_operation_xyz
  'x, y, z'

loop_
  _atom_site_type_symbol
  _atom_site_label
  _atom_site_symmetry_multiplicity
  _atom_site_fract_x
  _atom_site_fract_y
  _atom_site_fract_z
  _atom_site_occupancy
  Ni  Ni1       1.0  0.24999989432498004  0.2499998950729512  0.2500002714215099  1.0000
  Ni  Ni2       1.0  0.7500001009214692  0.750000082673324  0.7500000603056053  1.0000
  N   N1        1.0  3.32420666297644e-08  5.134579069125692e-07  0.9999997732318456  1.0000
  Cl  Cl1       1.0  0.24094584019065407  0.2409457237772249  0.7590540935383788  1.0000
  Cl  Cl2       1.0  0.7590539531999004  0.7590540580943784  0.24094607526834055  1.0000
  Cl  Cl3       1.0  0.7590542348657872  0.24094591911839067  0.2409457560080627  1.0000
  Cl  Cl4       1.0  0.24094576213948835  0.7590539350176663  0.7590541118225951  1.0000
  Cl  Cl5       1.0  0.24094594118703255  0.7590540792076742  0.24094589551917378  1.0000
  Cl  Cl6       1.0  0.7590542480787689  0.2409457844368602  0.7590539692488601  1.0000
