data_image0
_chemical_formula_structural       Ni2NF6
_chemical_formula_sum              "Ni2 N1 F6"
_cell_length_a       4.777160938080644
_cell_length_b       4.777160918222643
_cell_length_c       4.777160940791356
_cell_angle_alpha    59.999999715850535
_cell_angle_beta     60.000000301473285
_cell_angle_gamma    60.00000111715063

_space_group_name_H-M_alt    "P 1"
_space_group_IT_number       1

loop_
  _space_group_symop_operation_xyz
  'x, y, z'

loop_
  _atom_site_type_symbol
  _atom_site_label
  _atom_site_symmetry_multiplicity
  _atom_site_fract_x
  _atom_site_fract_y
  _atom_site_fract_z
  _atom_site_occupancy
  Ni  Ni1       1.0  0.2500000080609304  0.2500000331184542  0.2500000027171732  1.0000
  Ni  Ni2       1.0  0.7500000397622286  0.7499999583490854  0.7499999808533184  1.0000
  N   N1        1.0  7.996213074796508e-08  0.9999999051412325  2.0008079715558324e-08  1.0000
  F   F1        1.0  0.24171620371874777  0.24171629229206135  0.7582837500870683  1.0000
  F   F2        1.0  0.7582837283252435  0.7582837709604907  0.2417162554805009  1.0000
  F   F3        1.0  0.7582836585301054  0.24171636455510692  0.24171626127451257  1.0000
  F   F4        1.0  0.24171629641585973  0.7582836807511922  0.7582836434304011  1.0000
  F   F5        1.0  0.2417162639909535  0.7582837077626092  0.24171631868361185  1.0000
  F   F6        1.0  0.7582837199856939  0.24171629395993127  0.7582837586680276  1.0000
