data_image0
_chemical_formula_structural       Ni2NO6
_chemical_formula_sum              "Ni2 N1 O6"
_cell_length_a       5.074415957154504
_cell_length_b       2.5126759981999913
_cell_length_c       2.607011802030615
_cell_angle_alpha    72.7731100294187
_cell_angle_beta     34.414674788312084
_cell_angle_gamma    69.58217482312864

_space_group_name_H-M_alt    "P 1"
_space_group_IT_number       1

loop_
  _space_group_symop_operation_xyz
  'x, y, z'

loop_
  _atom_site_type_symbol
  _atom_site_label
  _atom_site_symmetry_multiplicity
  _atom_site_fract_x
  _atom_site_fract_y
  _atom_site_fract_z
  _atom_site_occupancy
  Ni  Ni1       1.0  0.7441141795855446  0.5118113545397173  0.6031537252722668  1.0000
  Ni  Ni2       1.0  0.15508550975022226  0.9563310268117903  0.778385991916371  1.0000
  N   N1        1.0  0.041697426795151364  0.00347319665354183  0.7199655864795842  1.0000
  O   O1        1.0  0.10695630460947589  0.5416597916020629  0.7261845905812893  1.0000
  O   O2        1.0  0.9059637239108813  0.41546782132795224  0.28651868324686747  1.0000
  O   O3        1.0  0.7029217512515524  0.8125354272670806  0.004003932237665448  1.0000
  O   O4        1.0  0.3790641468517498  0.7769893743233326  0.5075701829679836  1.0000
  O   O5        1.0  0.33613703948567336  0.987528941486646  0.7488468913495696  1.0000
  O   O6        1.0  0.04163526391889971  0.4230098605050525  0.15833948413643567  1.0000
