data_image0
_chemical_formula_structural       Ni2PF6
_chemical_formula_sum              "Ni2 P1 F6"
_cell_length_a       5.245911823481595
_cell_length_b       5.245911073952555
_cell_length_c       5.245912096528064
_cell_angle_alpha    60.000002780947824
_cell_angle_beta     60.00000220807865
_cell_angle_gamma    60.00000373532411

_space_group_name_H-M_alt    "P 1"
_space_group_IT_number       1

loop_
  _space_group_symop_operation_xyz
  'x, y, z'

loop_
  _atom_site_type_symbol
  _atom_site_label
  _atom_site_symmetry_multiplicity
  _atom_site_fract_x
  _atom_site_fract_y
  _atom_site_fract_z
  _atom_site_occupancy
  Ni  Ni1       1.0  0.24999977600385712  0.25000001442736114  0.2500001871649224  1.0000
  Ni  Ni2       1.0  0.7500006581469661  0.7500000479514337  0.7499993755934681  1.0000
  P   P1        1.0  0.9999999294527939  0.9999999673146799  7.83037055444821e-08  1.0000
  F   F1        1.0  0.22289366069493205  0.2228938870664178  0.7771062946976245  1.0000
  F   F2        1.0  0.7771061984920687  0.7771060842604134  0.222893879380581  1.0000
  F   F3        1.0  0.7771061205360421  0.22289380774336523  0.2228938668761827  1.0000
  F   F4        1.0  0.22289369473870035  0.7771061962687801  0.7771062804093103  1.0000
  F   F5        1.0  0.22289369128770561  0.7771062002124471  0.2228938883990712  1.0000
  F   F6        1.0  0.7771061906889516  0.22289376877971376  0.7771062106392707  1.0000
