data_image0
_chemical_formula_structural       Ni2PI6
_chemical_formula_sum              "Ni2 P1 I6"
_cell_length_a       7.480257048795722
_cell_length_b       7.480257011196226
_cell_length_c       7.480257071048223
_cell_angle_alpha    59.99999959284995
_cell_angle_beta     60.00000027351519
_cell_angle_gamma    60.00000019156731

_space_group_name_H-M_alt    "P 1"
_space_group_IT_number       1

loop_
  _space_group_symop_operation_xyz
  'x, y, z'

loop_
  _atom_site_type_symbol
  _atom_site_label
  _atom_site_symmetry_multiplicity
  _atom_site_fract_x
  _atom_site_fract_y
  _atom_site_fract_z
  _atom_site_occupancy
  Ni  Ni1       1.0  0.2500000269340543  0.2499999714743373  0.25000000851195053  1.0000
  Ni  Ni2       1.0  0.7499999561532245  0.7500000290342356  0.7500000064913642  1.0000
  P   P1        1.0  0.999999983830312  1.1461122352526096e-08  0.9999999983437254  1.0000
  I   I1        1.0  0.25851230994350033  0.25851233555416675  0.7414876829067292  1.0000
  I   I2        1.0  0.7414877159918216  0.7414876846020448  0.2585123021855975  1.0000
  I   I3        1.0  0.7414876666730128  0.25851233374071525  0.25851232358323145  1.0000
  I   I4        1.0  0.2585123339403405  0.7414876651305545  0.7414876767914356  1.0000
  I   I5        1.0  0.2585123310982429  0.7414876682266626  0.25851232091322307  1.0000
  I   I6        1.0  0.741487676157962  0.25851230608505926  0.7414876750512676  1.0000
