data_image0
_chemical_formula_structural       Ni2PCl6
_chemical_formula_sum              "Ni2 P1 Cl6"
_cell_length_a       6.668763021042997
_cell_length_b       6.668763155097318
_cell_length_c       6.668763015245433
_cell_angle_alpha    59.99999877958029
_cell_angle_beta     59.99999870136854
_cell_angle_gamma    59.99999871047495

_space_group_name_H-M_alt    "P 1"
_space_group_IT_number       1

loop_
  _space_group_symop_operation_xyz
  'x, y, z'

loop_
  _atom_site_type_symbol
  _atom_site_label
  _atom_site_symmetry_multiplicity
  _atom_site_fract_x
  _atom_site_fract_y
  _atom_site_fract_z
  _atom_site_occupancy
  Ni  Ni1       1.0  0.24999989240468526  0.24999997076127958  0.25000011063394584  1.0000
  Ni  Ni2       1.0  0.7499999681761177  0.749999969216574  0.7499998895388393  1.0000
  P   P1        1.0  3.288059972568539e-08  3.1221175794935165e-08  0.9999999859434531  1.0000
  Cl  Cl1       1.0  0.24033572955867918  0.24033564937412047  0.7596643383484779  1.0000
  Cl  Cl2       1.0  0.7596643639532336  0.7596643034595065  0.24033572487239316  1.0000
  Cl  Cl3       1.0  0.7596643463004981  0.2403356563698755  0.24033569431133578  1.0000
  Cl  Cl4       1.0  0.24033571858003314  0.7596643148291508  0.7596642975665744  1.0000
  Cl  Cl5       1.0  0.24033561566905542  0.759664363897143  0.24033570356052655  1.0000
  Cl  Cl6       1.0  0.7596643386200648  0.24033574687890868  0.7596642468330632  1.0000
