data_image0
_chemical_formula_structural       Ni2RuCl6
_chemical_formula_sum              "Ni2 Ru1 Cl6"
_cell_length_a       6.632247722885981
_cell_length_b       6.632247761770296
_cell_length_c       6.632247746587338
_cell_angle_alpha    60.00000027861323
_cell_angle_beta     60.000000204598116
_cell_angle_gamma    60.000001019693904

_space_group_name_H-M_alt    "P 1"
_space_group_IT_number       1

loop_
  _space_group_symop_operation_xyz
  'x, y, z'

loop_
  _atom_site_type_symbol
  _atom_site_label
  _atom_site_symmetry_multiplicity
  _atom_site_fract_x
  _atom_site_fract_y
  _atom_site_fract_z
  _atom_site_occupancy
  Ni  Ni1       1.0  0.24999993604376566  0.24999999452175237  0.2499999733947053  1.0000
  Ni  Ni2       1.0  0.7500000532135412  0.7499999743320029  0.7499998806644129  1.0000
  Ru  Ru1       1.0  0.9999999916991296  9.233256249541623e-09  5.3814047147164047e-08  1.0000
  Cl  Cl1       1.0  0.24739734211708853  0.2473973746243203  0.7526026762980103  1.0000
  Cl  Cl2       1.0  0.7526026692456743  0.752602621929204  0.24739739862736032  1.0000
  Cl  Cl3       1.0  0.7526026708802972  0.24739736017639574  0.2473973607599418  1.0000
  Cl  Cl4       1.0  0.24739736107622431  0.7526026216039187  0.7526026418970698  1.0000
  Cl  Cl5       1.0  0.24739734373416505  0.7526026321381424  0.24739740447986563  1.0000
  Cl  Cl6       1.0  0.7526026320685255  0.24739740319505815  0.7526026085243251  1.0000
