data_image0
_chemical_formula_structural       Ni2RhCl6
_chemical_formula_sum              "Ni2 Rh1 Cl6"
_cell_length_a       6.581651509490954
_cell_length_b       6.581651396542846
_cell_length_c       6.58165158774524
_cell_angle_alpha    59.99999937223477
_cell_angle_beta     60.00000043804898
_cell_angle_gamma    59.99999902902432

_space_group_name_H-M_alt    "P 1"
_space_group_IT_number       1

loop_
  _space_group_symop_operation_xyz
  'x, y, z'

loop_
  _atom_site_type_symbol
  _atom_site_label
  _atom_site_symmetry_multiplicity
  _atom_site_fract_x
  _atom_site_fract_y
  _atom_site_fract_z
  _atom_site_occupancy
  Ni  Ni1       1.0  0.2500000570637129  0.24999990971693692  0.25000006836101246  1.0000
  Ni  Ni2       1.0  0.7500000664364405  0.7499999170963981  0.750000199952604  1.0000
  Rh  Rh1       1.0  1.3220519071883231e-08  0.9999999813915259  0.9999999479964604  1.0000
  Cl  Cl1       1.0  0.24786098254517347  0.24786100925071014  0.7521389731998973  1.0000
  Cl  Cl2       1.0  0.7521389795083421  0.7521390650553291  0.24786092390558323  1.0000
  Cl  Cl3       1.0  0.7521389732451413  0.24786105119957746  0.24786092049185404  1.0000
  Cl  Cl4       1.0  0.2478608865014217  0.7521390826535791  0.7521390390166813  1.0000
  Cl  Cl5       1.0  0.24786094907019762  0.7521390506984237  0.24786095676086942  1.0000
  Cl  Cl6       1.0  0.7521390838353279  0.247860926843551  0.7521389776106462  1.0000
