data_image0
_chemical_formula_structural       Ni2RuBr6
_chemical_formula_sum              "Ni2 Ru1 Br6"
_cell_length_a       7.030172276367625
_cell_length_b       7.030172279591971
_cell_length_c       7.03017235331024
_cell_angle_alpha    59.99999956730239
_cell_angle_beta     60.00000004787218
_cell_angle_gamma    59.99999963281039

_space_group_name_H-M_alt    "P 1"
_space_group_IT_number       1

loop_
  _space_group_symop_operation_xyz
  'x, y, z'

loop_
  _atom_site_type_symbol
  _atom_site_label
  _atom_site_symmetry_multiplicity
  _atom_site_fract_x
  _atom_site_fract_y
  _atom_site_fract_z
  _atom_site_occupancy
  Ni  Ni1       1.0  0.24999994762512898  0.25000005410969395  0.24999999168607012  1.0000
  Ni  Ni2       1.0  0.7499999973893456  0.7499999550160391  0.749999964474307  1.0000
  Ru  Ru1       1.0  0.999999965408023  5.226379350520807e-09  0.9999999905013147  1.0000
  Br  Br1       1.0  0.2478996309721761  0.24789965118028184  0.7521003633274194  1.0000
  Br  Br2       1.0  0.7521003530635837  0.7521003788509681  0.24789962830180753  1.0000
  Br  Br3       1.0  0.7521003536168445  0.24789966480193326  0.24789963264988507  1.0000
  Br  Br4       1.0  0.24789967448440625  0.7521003512923052  0.7521003510273032  1.0000
  Br  Br5       1.0  0.24789967586069497  0.7521003212055732  0.24789967415324468  1.0000
  Br  Br6       1.0  0.7521003980823628  0.24789961649297648  0.7521004011902171  1.0000
