data_image0
_chemical_formula_structural       Ni2RhBr6
_chemical_formula_sum              "Ni2 Rh1 Br6"
_cell_length_a       6.952856708688071
_cell_length_b       6.952856804253283
_cell_length_c       6.952856854612022
_cell_angle_alpha    60.00000004120884
_cell_angle_beta     59.999999855708126
_cell_angle_gamma    60.000000310073645

_space_group_name_H-M_alt    "P 1"
_space_group_IT_number       1

loop_
  _space_group_symop_operation_xyz
  'x, y, z'

loop_
  _atom_site_type_symbol
  _atom_site_label
  _atom_site_symmetry_multiplicity
  _atom_site_fract_x
  _atom_site_fract_y
  _atom_site_fract_z
  _atom_site_occupancy
  Ni  Ni1       1.0  0.24999997340236954  0.25000001737074135  0.25000003533570814  1.0000
  Ni  Ni2       1.0  0.7499999709192094  0.7500000344972366  0.7499999844657547  1.0000
  Rh  Rh1       1.0  0.9999999923841232  0.999999992954005  3.0343059298548486e-08  1.0000
  Br  Br1       1.0  0.2486460956864152  0.24864606479492118  0.7513539077128285  1.0000
  Br  Br2       1.0  0.7513539283860675  0.7513539271820988  0.2486460590109303  1.0000
  Br  Br3       1.0  0.7513539002263382  0.248646087907787  0.2486460969177369  1.0000
  Br  Br4       1.0  0.24864610438620094  0.7513539375377095  0.7513538930051672  1.0000
  Br  Br5       1.0  0.24864611970262787  0.7513538682837532  0.24864608733942276  1.0000
  Br  Br6       1.0  0.7513539092859529  0.24864606908680503  0.7513539071060331  1.0000
