data_image0
_chemical_formula_structural       Ni2RuF6
_chemical_formula_sum              "Ni2 Ru1 F6"
_cell_length_a       5.2962370509515
_cell_length_b       5.296237418570846
_cell_length_c       5.296236805452395
_cell_angle_alpha    60.00000251592143
_cell_angle_beta     60.00000085624857
_cell_angle_gamma    60.00000130125172

_space_group_name_H-M_alt    "P 1"
_space_group_IT_number       1

loop_
  _space_group_symop_operation_xyz
  'x, y, z'

loop_
  _atom_site_type_symbol
  _atom_site_label
  _atom_site_symmetry_multiplicity
  _atom_site_fract_x
  _atom_site_fract_y
  _atom_site_fract_z
  _atom_site_occupancy
  Ni  Ni1       1.0  0.24999981964838497  0.24999997411974903  0.2500001328264786  1.0000
  Ni  Ni2       1.0  0.7500001346194606  0.7499998182975953  0.7499999314123291  1.0000
  Ru  Ru1       1.0  1.0153004364000671e-08  0.9999999630003046  0.9999999737725508  1.0000
  F   F1        1.0  0.2572234967046042  0.25722356414507985  0.7427764495708254  1.0000
  F   F2        1.0  0.7427765009221007  0.7427764317705899  0.2572235516596466  1.0000
  F   F3        1.0  0.7427765241411254  0.2572235857097884  0.2572235367795851  1.0000
  F   F4        1.0  0.2572235316450955  0.7427765235174486  0.7427763881560093  1.0000
  F   F5        1.0  0.25722354699190875  0.7427764416310557  0.25722356107171335  1.0000
  F   F6        1.0  0.7427765018795591  0.25722364909633294  0.742776436991441  1.0000
