data_image0
_chemical_formula_structural       Ni2SbI6
_chemical_formula_sum              "Ni2 Sb1 I6"
_cell_length_a       7.794978012516477
_cell_length_b       7.794978131494468
_cell_length_c       7.794978105622774
_cell_angle_alpha    59.99999968703625
_cell_angle_beta     59.999999210468786
_cell_angle_gamma    59.99999855755224

_space_group_name_H-M_alt    "P 1"
_space_group_IT_number       1

loop_
  _space_group_symop_operation_xyz
  'x, y, z'

loop_
  _atom_site_type_symbol
  _atom_site_label
  _atom_site_symmetry_multiplicity
  _atom_site_fract_x
  _atom_site_fract_y
  _atom_site_fract_z
  _atom_site_occupancy
  Ni  Ni1       1.0  0.24999999886388918  0.24999999613621643  0.24999998135218193  1.0000
  Ni  Ni2       1.0  0.7499999731598169  0.7499999742678738  0.7499999718229996  1.0000
  Sb  Sb1       1.0  1.8553958764695867e-08  1.0998380829297937e-08  3.0124533521530375e-08  1.0000
  I   I1        1.0  0.2648598849405037  0.26485988361881  0.7351401095146671  1.0000
  I   I2        1.0  0.7351400992625133  0.7351401213516209  0.26485988571442776  1.0000
  I   I3        1.0  0.7351401366747816  0.26485986118316507  0.26485989747304606  1.0000
  I   I4        1.0  0.264859927805538  0.7351401029361341  0.7351401178121578  1.0000
  I   I5        1.0  0.26485987234235675  0.735140106060233  0.26485988913971065  1.0000
  I   I6        1.0  0.7351400882182585  0.2648599476173154  0.7351401153659397  1.0000
