data_image0
_chemical_formula_structural       Ni2SbF6
_chemical_formula_sum              "Ni2 Sb1 F6"
_cell_length_a       7.075595891724827
_cell_length_b       7.075594890857963
_cell_length_c       7.075597020210176
_cell_angle_alpha    59.99999415652489
_cell_angle_beta     59.999985053100865
_cell_angle_gamma    60.00000115933302

_space_group_name_H-M_alt    "P 1"
_space_group_IT_number       1

loop_
  _space_group_symop_operation_xyz
  'x, y, z'

loop_
  _atom_site_type_symbol
  _atom_site_label
  _atom_site_symmetry_multiplicity
  _atom_site_fract_x
  _atom_site_fract_y
  _atom_site_fract_z
  _atom_site_occupancy
  Ni  Ni1       1.0  0.25000038283309445  0.2500010008992694  0.24999933153463183  1.0000
  Ni  Ni2       1.0  0.7500036253575818  0.7499987740049738  0.7499971109520168  1.0000
  Sb  Sb1       1.0  0.9999994748067039  1.5578480223070397e-07  3.6702106090976505e-07  1.0000
  F   F1        1.0  0.19202108012578062  0.1920194077340996  0.8079802426304573  1.0000
  F   F2        1.0  0.8079783570535928  0.8079807341297318  0.19202075821222053  1.0000
  F   F3        1.0  0.8079789732711932  0.19202036348286344  0.19202077320401623  1.0000
  F   F4        1.0  0.192019944332277  0.807979182936647  0.8079808982134573  1.0000
  F   F5        1.0  0.1920200888903004  0.8079798448648391  0.19201981524943254  1.0000
  F   F6        1.0  0.8079780299180964  0.19202054106169505  0.8079807588712252  1.0000
