data_image0
_chemical_formula_structural       Ni2SbBr6
_chemical_formula_sum              "Ni2 Sb1 Br6"
_cell_length_a       7.15030410671821
_cell_length_b       7.150304235588835
_cell_length_c       7.15030419443346
_cell_angle_alpha    59.999999798383094
_cell_angle_beta     59.999999762119565
_cell_angle_gamma    60.00000065728231

_space_group_name_H-M_alt    "P 1"
_space_group_IT_number       1

loop_
  _space_group_symop_operation_xyz
  'x, y, z'

loop_
  _atom_site_type_symbol
  _atom_site_label
  _atom_site_symmetry_multiplicity
  _atom_site_fract_x
  _atom_site_fract_y
  _atom_site_fract_z
  _atom_site_occupancy
  Ni  Ni1       1.0  0.2499999850717627  0.25000000001013195  0.2500000381928263  1.0000
  Ni  Ni2       1.0  0.7499998162054451  0.7499998938332609  0.7500002203994652  1.0000
  Sb  Sb1       1.0  2.505467471674286e-08  4.1108568177666956e-08  0.9999999767081718  1.0000
  Br  Br1       1.0  0.25402893475727856  0.25402890779747883  0.7459710762738181  1.0000
  Br  Br2       1.0  0.7459710778251086  0.7459710836787653  0.25402887261130747  1.0000
  Br  Br3       1.0  0.7459710877628516  0.25402897692158155  0.2540288753488793  1.0000
  Br  Br4       1.0  0.25402899527044187  0.745971074504658  0.7459710097343372  1.0000
  Br  Br5       1.0  0.25402901366974623  0.7459710410329955  0.25402888804776025  1.0000
  Br  Br6       1.0  0.7459710698533468  0.25402898470038887  0.7459710418034476  1.0000
