data_image0
_chemical_formula_structural       Ni2SbCl6
_chemical_formula_sum              "Ni2 Sb1 Cl6"
_cell_length_a       6.757523289629606
_cell_length_b       6.757523295585442
_cell_length_c       6.757523205923309
_cell_angle_alpha    59.99999986043521
_cell_angle_beta     59.999999548733435
_cell_angle_gamma    59.99999979243611

_space_group_name_H-M_alt    "P 1"
_space_group_IT_number       1

loop_
  _space_group_symop_operation_xyz
  'x, y, z'

loop_
  _atom_site_type_symbol
  _atom_site_label
  _atom_site_symmetry_multiplicity
  _atom_site_fract_x
  _atom_site_fract_y
  _atom_site_fract_z
  _atom_site_occupancy
  Ni  Ni1       1.0  0.24999995251008197  0.2499999718586736  0.2500000198592486  1.0000
  Ni  Ni2       1.0  0.7500000313738828  0.7499999989471932  0.7499999901636251  1.0000
  Sb  Sb1       1.0  0.9999999889359759  1.2686917668480271e-08  0.9999999755112391  1.0000
  Cl  Cl1       1.0  0.2517792693616868  0.2517792759597671  0.7482207192840918  1.0000
  Cl  Cl2       1.0  0.7482207366147583  0.7482207310944355  0.25177925120954836  1.0000
  Cl  Cl3       1.0  0.7482207185009856  0.25177929265751925  0.25177929355912443  1.0000
  Cl  Cl4       1.0  0.25177927390900945  0.748220708959433  0.7482207426699874  1.0000
  Cl  Cl5       1.0  0.251779277151234  0.7482207377860327  0.25177928977015307  1.0000
  Cl  Cl6       1.0  0.7482207503313362  0.2517792765178371  0.7482207210993799  1.0000
