data_image0
_chemical_formula_structural       Ni2TaCl6
_chemical_formula_sum              "Ni2 Ta1 Cl6"
_cell_length_a       6.802498032036267
_cell_length_b       6.80249787459033
_cell_length_c       6.802498010020377
_cell_angle_alpha    60.000001018946
_cell_angle_beta     59.99999999088982
_cell_angle_gamma    59.99999968483288

_space_group_name_H-M_alt    "P 1"
_space_group_IT_number       1

loop_
  _space_group_symop_operation_xyz
  'x, y, z'

loop_
  _atom_site_type_symbol
  _atom_site_label
  _atom_site_symmetry_multiplicity
  _atom_site_fract_x
  _atom_site_fract_y
  _atom_site_fract_z
  _atom_site_occupancy
  Ni  Ni1       1.0  0.24999995003863365  0.2500000456013584  0.25000008377607036  1.0000
  Ni  Ni2       1.0  0.7499999870134926  0.7499999603615358  0.7500000505934515  1.0000
  Ta  Ta1       1.0  0.9999999923010877  1.8004340316607515e-08  0.9999999963173344  1.0000
  Cl  Cl1       1.0  0.24571154175739848  0.24571153673100424  0.7542884151405933  1.0000
  Cl  Cl2       1.0  0.7542884712864668  0.7542884602297164  0.2457115284389876  1.0000
  Cl  Cl3       1.0  0.754288440884852  0.24571153644685167  0.2457114660399541  1.0000
  Cl  Cl4       1.0  0.24571155789384333  0.7542884371082268  0.7542885066653702  1.0000
  Cl  Cl5       1.0  0.2457115770293087  0.754288488428196  0.2457114759127938  1.0000
  Cl  Cl6       1.0  0.7542884722614756  0.24571150673209105  0.7542884769044126  1.0000
