data_image0
_chemical_formula_structural       Ni2TaI6
_chemical_formula_sum              "Ni2 Ta1 I6"
_cell_length_a       7.784240410111796
_cell_length_b       7.784240311967752
_cell_length_c       7.784240491645941
_cell_angle_alpha    60.00000077125943
_cell_angle_beta     59.99999983839259
_cell_angle_gamma    60.00000050226804

_space_group_name_H-M_alt    "P 1"
_space_group_IT_number       1

loop_
  _space_group_symop_operation_xyz
  'x, y, z'

loop_
  _atom_site_type_symbol
  _atom_site_label
  _atom_site_symmetry_multiplicity
  _atom_site_fract_x
  _atom_site_fract_y
  _atom_site_fract_z
  _atom_site_occupancy
  Ni  Ni1       1.0  0.25000002318876696  0.25000002291268114  0.24999998330431814  1.0000
  Ni  Ni2       1.0  0.7499999818231068  0.7500000026567268  0.7500000037015655  1.0000
  Ta  Ta1       1.0  0.999999985060755  3.1467293493656463e-08  1.3574972462115175e-08  1.0000
  I   I1        1.0  0.24946426659283524  0.24946432262133048  0.7505357058543636  1.0000
  I   I2        1.0  0.7505356870559856  0.7505356478803146  0.24946434721339594  1.0000
  I   I3        1.0  0.7505357000135972  0.2494642748097691  0.24946428555737696  1.0000
  I   I4        1.0  0.24946431288053855  0.750535700411969  0.7505356777185707  1.0000
  I   I5        1.0  0.24946434423955846  0.7505356747368476  0.24946430713226894  1.0000
  I   I6        1.0  0.750535696388932  0.2494643240853614  0.7505356767235526  1.0000
