data_image0
_chemical_formula_structural       Ni2TaF6
_chemical_formula_sum              "Ni2 Ta1 F6"
_cell_length_a       5.310396867106602
_cell_length_b       5.3103967588408425
_cell_length_c       5.310396711075074
_cell_angle_alpha    59.99999722393652
_cell_angle_beta     59.99999987096449
_cell_angle_gamma    59.999997268748544

_space_group_name_H-M_alt    "P 1"
_space_group_IT_number       1

loop_
  _space_group_symop_operation_xyz
  'x, y, z'

loop_
  _atom_site_type_symbol
  _atom_site_label
  _atom_site_symmetry_multiplicity
  _atom_site_fract_x
  _atom_site_fract_y
  _atom_site_fract_z
  _atom_site_occupancy
  Ni  Ni1       1.0  0.24999999597252545  0.24999994992392935  0.2500000388356993  1.0000
  Ni  Ni2       1.0  0.7499999706729011  0.7500000319706962  0.7499999963680081  1.0000
  Ta  Ta1       1.0  0.9999999790246239  0.999999997693684  4.365352050881613e-08  1.0000
  F   F1        1.0  0.257329643115915  0.2573295566692084  0.742670397435657  1.0000
  F   F2        1.0  0.7426703904087677  0.7426704529012004  0.25732956601024914  1.0000
  F   F3        1.0  0.7426703758058679  0.2573296740140762  0.2573296143340878  1.0000
  F   F4        1.0  0.2573295710926618  0.7426703932142135  0.7426704295044008  1.0000
  F   F5        1.0  0.2573296345939849  0.7426703688984665  0.2573296095482773  1.0000
  F   F6        1.0  0.7426704389934679  0.2573295922393213  0.7426703505501612  1.0000
