data_image0
_chemical_formula_structural       Os2AsO6
_chemical_formula_sum              "Os2 As1 O6"
_cell_length_a       4.895572380263256
_cell_length_b       4.895572628804162
_cell_length_c       4.895572098268597
_cell_angle_alpha    59.9999965993794
_cell_angle_beta     59.99999404072403
_cell_angle_gamma    59.99999741301902

_space_group_name_H-M_alt    "P 1"
_space_group_IT_number       1

loop_
  _space_group_symop_operation_xyz
  'x, y, z'

loop_
  _atom_site_type_symbol
  _atom_site_label
  _atom_site_symmetry_multiplicity
  _atom_site_fract_x
  _atom_site_fract_y
  _atom_site_fract_z
  _atom_site_occupancy
  Os  Os1       1.0  0.24999941814351243  0.25000048833871963  0.2500001802484119  1.0000
  Os  Os2       1.0  0.7500010982400652  0.7499972145598721  0.7500070472719386  1.0000
  As  As1       1.0  3.8588846997864125e-09  4.503133191570676e-08  0.9999996732408857  1.0000
  O   O1        1.0  0.25285304307844025  0.25285435331511497  0.747145850947924  1.0000
  O   O2        1.0  0.747146504654028  0.7471463616786811  0.25285151420834023  1.0000
  O   O3        1.0  0.7471465655131296  0.2528552670631581  0.2528515886411398  1.0000
  O   O4        1.0  0.25285259798164916  0.7471462609960576  0.7471461503879485  1.0000
  O   O5        1.0  0.25285449312804015  0.747146615678541  0.2528521580767733  1.0000
  O   O6        1.0  0.7471462917950742  0.25285337381065026  0.7471458193678637  1.0000
