data_image0
_chemical_formula_structural       Os2AsS6
_chemical_formula_sum              "Os2 As1 S6"
_cell_length_a       5.553431041798206
_cell_length_b       5.5534300387044215
_cell_length_c       5.553427794378858
_cell_angle_alpha    60.000067366219426
_cell_angle_beta     60.00007478359198
_cell_angle_gamma    60.000088955809225

_space_group_name_H-M_alt    "P 1"
_space_group_IT_number       1

loop_
  _space_group_symop_operation_xyz
  'x, y, z'

loop_
  _atom_site_type_symbol
  _atom_site_label
  _atom_site_symmetry_multiplicity
  _atom_site_fract_x
  _atom_site_fract_y
  _atom_site_fract_z
  _atom_site_occupancy
  Os  Os1       1.0  0.25000984908762863  0.25001291739604975  0.2499862238464201  1.0000
  Os  Os2       1.0  0.7499835361331049  0.7499970505769822  0.7499892801996186  1.0000
  As  As1       1.0  2.3448046941280532e-07  0.9999995523077918  1.008751303975938e-06  1.0000
  S   S1        1.0  0.27463189128316184  0.2746238419870963  0.7253722246624842  1.0000
  S   S2        1.0  0.7253718821155191  0.725372190191173  0.27463804362586597  1.0000
  S   S3        1.0  0.7253659948232298  0.2746267750545503  0.2746294010539409  1.0000
  S   S4        1.0  0.2746390371107026  0.7253654815080118  0.7253793058936179  1.0000
  S   S5        1.0  0.27463025905671873  0.7253655602474613  0.27462650830671903  1.0000
  S   S6        1.0  0.725367301887904  0.2746366337645818  0.7253779870709838  1.0000
