data_image0
_chemical_formula_structural       Os2AsSe6
_chemical_formula_sum              "Os2 As1 Se6"
_cell_length_a       6.207084800273244
_cell_length_b       6.207084553410069
_cell_length_c       6.2070845064575435
_cell_angle_alpha    59.99999546609646
_cell_angle_beta     59.999996523471154
_cell_angle_gamma    59.999996772114514

_space_group_name_H-M_alt    "P 1"
_space_group_IT_number       1

loop_
  _space_group_symop_operation_xyz
  'x, y, z'

loop_
  _atom_site_type_symbol
  _atom_site_label
  _atom_site_symmetry_multiplicity
  _atom_site_fract_x
  _atom_site_fract_y
  _atom_site_fract_z
  _atom_site_occupancy
  Os  Os1       1.0  0.24999986489175502  0.2500001875514962  0.24999969370015285  1.0000
  Os  Os2       1.0  0.7499987862457463  0.7500022121997516  0.7500019100552682  1.0000
  As  As1       1.0  5.507700227302673e-08  0.9999999408057905  0.9999999327829237  1.0000
  Se  Se1       1.0  0.2732994639994816  0.2732976603511814  0.7267016388147304  1.0000
  Se  Se2       1.0  0.7267014292815717  0.7267014284705812  0.27329738515021634  1.0000
  Se  Se3       1.0  0.7267014972757033  0.2732985458210691  0.2732985716605873  1.0000
  Se  Se4       1.0  0.27329824232896593  0.7267012414923616  0.7267015933690747  1.0000
  Se  Se5       1.0  0.273299217121043  0.7267014389720966  0.2732979148356978  1.0000
  Se  Se6       1.0  0.7267014723595849  0.27329734598604355  0.7267013387953566  1.0000
