data_image0
_chemical_formula_structural       Os2GaS6
_chemical_formula_sum              "Os2 Ga1 S6"
_cell_length_a       5.6167927174456995
_cell_length_b       5.6167924432203105
_cell_length_c       5.616794262465585
_cell_angle_alpha    59.99998913783957
_cell_angle_beta     59.99999027989944
_cell_angle_gamma    59.999975431256736

_space_group_name_H-M_alt    "P 1"
_space_group_IT_number       1

loop_
  _space_group_symop_operation_xyz
  'x, y, z'

loop_
  _atom_site_type_symbol
  _atom_site_label
  _atom_site_symmetry_multiplicity
  _atom_site_fract_x
  _atom_site_fract_y
  _atom_site_fract_z
  _atom_site_occupancy
  Os  Os1       1.0  0.24999478925207547  0.24999292087115985  0.2500054524811892  1.0000
  Os  Os2       1.0  0.7500042974329041  0.7500007224879572  0.7499976559403527  1.0000
  Ga  Ga1       1.0  6.472004482366073e-08  3.794080720195028e-07  0.9999999292678146  1.0000
  S   S1        1.0  0.2697170253123106  0.2697182696293786  0.7302824217384026  1.0000
  S   S2        1.0  0.7302823091001305  0.7302830120430189  0.26971744335012776  1.0000
  S   S3        1.0  0.7302855211881277  0.26971691099439254  0.2697184437427338  1.0000
  S   S4        1.0  0.26971530749841804  0.7302857160500659  0.7302793712699607  1.0000
  S   S5        1.0  0.26971557025781007  0.7302858923624457  0.2697195301565418  1.0000
  S   S6        1.0  0.7302850882644271  0.26971613504283226  0.7302797664688894  1.0000
