data_image0
_chemical_formula_structural       Os2GaSe6
_chemical_formula_sum              "Os2 Ga1 Se6"
_cell_length_a       6.333005386089395
_cell_length_b       6.333005276995633
_cell_length_c       6.333005778610333
_cell_angle_alpha    59.99999759145715
_cell_angle_beta     59.99999635866575
_cell_angle_gamma    59.99999480266995

_space_group_name_H-M_alt    "P 1"
_space_group_IT_number       1

loop_
  _space_group_symop_operation_xyz
  'x, y, z'

loop_
  _atom_site_type_symbol
  _atom_site_label
  _atom_site_symmetry_multiplicity
  _atom_site_fract_x
  _atom_site_fract_y
  _atom_site_fract_z
  _atom_site_occupancy
  Os  Os1       1.0  0.24999876337513952  0.24999922347445014  0.25000106408172  1.0000
  Os  Os2       1.0  0.7500003287081768  0.7500010837707176  0.7499997789278029  1.0000
  Ga  Ga1       1.0  4.417566300078736e-09  1.508448181125105e-07  0.9999998371012401  1.0000
  Se  Se1       1.0  0.269466839169749  0.26946647803478346  0.7305333182805228  1.0000
  Se  Se2       1.0  0.7305333332432248  0.7305331426730219  0.26946647831521786  1.0000
  Se  Se3       1.0  0.7305338251644201  0.26946630323977405  0.2694671331210513  1.0000
  Se  Se4       1.0  0.2694663627100233  0.7305338454249003  0.7305327502051115  1.0000
  Se  Se5       1.0  0.2694666674370927  0.7305336152797579  0.2694669043431106  1.0000
  Se  Se6       1.0  0.7305338603340129  0.2694661427354994  0.7305327517147796  1.0000
