data_image0
_chemical_formula_structural       Os2GaO6
_chemical_formula_sum              "Os2 Ga1 O6"
_cell_length_a       4.918243411341222
_cell_length_b       4.918243524461047
_cell_length_c       4.918243389476277
_cell_angle_alpha    59.99999847176804
_cell_angle_beta     59.99999935236598
_cell_angle_gamma    59.99999901552557

_space_group_name_H-M_alt    "P 1"
_space_group_IT_number       1

loop_
  _space_group_symop_operation_xyz
  'x, y, z'

loop_
  _atom_site_type_symbol
  _atom_site_label
  _atom_site_symmetry_multiplicity
  _atom_site_fract_x
  _atom_site_fract_y
  _atom_site_fract_z
  _atom_site_occupancy
  Os  Os1       1.0  0.2499982130922359  0.24999918945076582  0.2500033594723571  1.0000
  Os  Os2       1.0  0.7499989985129133  0.7499986266907078  0.7500043177270744  1.0000
  Ga  Ga1       1.0  0.9999999167612961  0.999999932764385  1.5656701176650723e-07  1.0000
  O   O1        1.0  0.2585340407693914  0.25853393139481284  0.7414653855384149  1.0000
  O   O2        1.0  0.7414664133327601  0.7414661732478915  0.2585320417823385  1.0000
  O   O3        1.0  0.7414664333363129  0.2585347688597088  0.2585325639483625  1.0000
  O   O4        1.0  0.2585339215107484  0.7414671760466176  0.7414648203993216  1.0000
  O   O5        1.0  0.2585347056923372  0.7414660324768518  0.25853264357722655  1.0000
  O   O6        1.0  0.7414673452613465  0.2585341767545581  0.7414646466928355  1.0000
