data_image0
_chemical_formula_structural       Os2NO6
_chemical_formula_sum              "Os2 N1 O6"
_cell_length_a       3.0420494339851603
_cell_length_b       2.8147557095247135
_cell_length_c       3.201243536560766
_cell_angle_alpha    63.903476295083834
_cell_angle_beta     101.21513248232925
_cell_angle_gamma    95.50740304478191

_space_group_name_H-M_alt    "P 1"
_space_group_IT_number       1

loop_
  _space_group_symop_operation_xyz
  'x, y, z'

loop_
  _atom_site_type_symbol
  _atom_site_label
  _atom_site_symmetry_multiplicity
  _atom_site_fract_x
  _atom_site_fract_y
  _atom_site_fract_z
  _atom_site_occupancy
  Os  Os1       1.0  0.443076840990476  0.21580715820224514  0.0334462062349883  1.0000
  Os  Os2       1.0  0.16263371276004235  0.4019661085017234  0.8299679375660712  1.0000
  N   N1        1.0  0.2025400899633722  0.2226046938319343  0.1559243353898942  1.0000
  O   O1        1.0  0.4719495975378775  0.4653821262225597  0.6472345482492285  1.0000
  O   O2        1.0  0.9152164322714845  0.9249604903443865  0.3674166257785435  1.0000
  O   O3        1.0  0.2437368051785327  0.5525688693535935  0.12039698803119392  1.0000
  O   O4        1.0  0.7894946973038525  0.6519028317602218  0.9650155887538033  1.0000
  O   O5        1.0  0.4664808103089631  0.4864012080606032  0.23347283648002287  1.0000
  O   O6        1.0  0.13216602198231087  0.3319212616424314  0.738401155602409  1.0000
