data_image0
_chemical_formula_structural       P2BBr6
_chemical_formula_sum              "P2 B1 Br6"
_cell_length_a       7.002784168446477
_cell_length_b       7.002782950224278
_cell_length_c       7.002783324339221
_cell_angle_alpha    60.00000110881602
_cell_angle_beta     60.000007330117135
_cell_angle_gamma    60.000006770657755

_space_group_name_H-M_alt    "P 1"
_space_group_IT_number       1

loop_
  _space_group_symop_operation_xyz
  'x, y, z'

loop_
  _atom_site_type_symbol
  _atom_site_label
  _atom_site_symmetry_multiplicity
  _atom_site_fract_x
  _atom_site_fract_y
  _atom_site_fract_z
  _atom_site_occupancy
  P   P1        1.0  0.25000061759267145  0.24999853342497813  0.25000102712445343  1.0000
  P   P2        1.0  0.749998984995919  0.7500005182944829  0.7500009224197866  1.0000
  B   B1        1.0  2.578281189486059e-07  1.4166417616770905e-07  0.9999996703055318  1.0000
  Br  Br1       1.0  0.2316308599329506  0.2316303113705924  0.7683692275503657  1.0000
  Br  Br2       1.0  0.7683691025017485  0.7683697582320578  0.23163022527666233  1.0000
  Br  Br3       1.0  0.7683692952998189  0.23163068270861598  0.2316305818547658  1.0000
  Br  Br4       1.0  0.23163061982476155  0.7683698503631851  0.7683688413932086  1.0000
  Br  Br5       1.0  0.23163090282685728  0.7683696297704281  0.23163012416691367  1.0000
  Br  Br6       1.0  0.7683693599248589  0.23163057275170842  0.7683693548024901  1.0000
