data_image0
_chemical_formula_structural       P2BCl6
_chemical_formula_sum              "P2 B1 Cl6"
_cell_length_a       5.6847825169323185
_cell_length_b       5.684782748188773
_cell_length_c       5.68478270474582
_cell_angle_alpha    60.00000076986533
_cell_angle_beta     59.99999948683695
_cell_angle_gamma    60.00000056348816

_space_group_name_H-M_alt    "P 1"
_space_group_IT_number       1

loop_
  _space_group_symop_operation_xyz
  'x, y, z'

loop_
  _atom_site_type_symbol
  _atom_site_label
  _atom_site_symmetry_multiplicity
  _atom_site_fract_x
  _atom_site_fract_y
  _atom_site_fract_z
  _atom_site_occupancy
  P   P1        1.0  0.24999996259348756  0.25000000837076714  0.25000000385913723  1.0000
  P   P2        1.0  0.7500000146802531  0.7500000100313132  0.7500000453812024  1.0000
  B   B1        1.0  1.891812749600188e-08  0.9999999310583414  1.6222017604719298e-07  1.0000
  Cl  Cl1       1.0  0.24163831503337027  0.24163829402054374  0.7583616667367611  1.0000
  Cl  Cl2       1.0  0.7583616814647188  0.7583617459258045  0.2416382337062709  1.0000
  Cl  Cl3       1.0  0.7583617287724718  0.24163833376624946  0.2416382534686625  1.0000
  Cl  Cl4       1.0  0.24163826522268914  0.7583616954079648  0.7583617046252841  1.0000
  Cl  Cl5       1.0  0.24163828493337683  0.7583617064376258  0.24163827473519803  1.0000
  Cl  Cl6       1.0  0.7583617227064877  0.24163828180247815  0.7583616600627259  1.0000
