data_image0
_chemical_formula_structural       P2BF6
_chemical_formula_sum              "P2 B1 F6"
_cell_length_a       4.899347739099393
_cell_length_b       4.899344557505632
_cell_length_c       4.8993453597111705
_cell_angle_alpha    60.0000036117618
_cell_angle_beta     60.00000025894346
_cell_angle_gamma    59.999972706263186

_space_group_name_H-M_alt    "P 1"
_space_group_IT_number       1

loop_
  _space_group_symop_operation_xyz
  'x, y, z'

loop_
  _atom_site_type_symbol
  _atom_site_label
  _atom_site_symmetry_multiplicity
  _atom_site_fract_x
  _atom_site_fract_y
  _atom_site_fract_z
  _atom_site_occupancy
  P   P1        1.0  0.25001176684804666  0.24999718412015154  0.24999836109747028  1.0000
  P   P2        1.0  0.7500003676426551  0.750005261345228  0.7499907014159624  1.0000
  B   B1        1.0  5.015947723898752e-06  0.999999475038187  0.9999988097494309  1.0000
  F   F1        1.0  0.23198641144895288  0.23198379179763953  0.768014331375469  1.0000
  F   F2        1.0  0.7680095190379274  0.7680131265832516  0.23199090963838623  1.0000
  F   F3        1.0  0.7680098786268835  0.2319870987831167  0.2319886493227947  1.0000
  F   F4        1.0  0.23198502229264725  0.7680115719675679  0.7680160588386037  1.0000
  F   F5        1.0  0.23198300924363757  0.7680133774511787  0.23198823701430174  1.0000
  F   F6        1.0  0.7680092858718256  0.23198883303630774  0.7680138426680142  1.0000
