data_image0
_chemical_formula_structural       P2BI6
_chemical_formula_sum              "P2 B1 I6"
_cell_length_a       7.318717372590738
_cell_length_b       7.318718119086245
_cell_length_c       7.318716948595609
_cell_angle_alpha    60.00001026801837
_cell_angle_beta     60.000006803904654
_cell_angle_gamma    60.000006077996545

_space_group_name_H-M_alt    "P 1"
_space_group_IT_number       1

loop_
  _space_group_symop_operation_xyz
  'x, y, z'

loop_
  _atom_site_type_symbol
  _atom_site_label
  _atom_site_symmetry_multiplicity
  _atom_site_fract_x
  _atom_site_fract_y
  _atom_site_fract_z
  _atom_site_occupancy
  P   P1        1.0  0.24999966292968853  0.24999896109922773  0.25000501416918613  1.0000
  P   P2        1.0  0.7499988507985803  0.7500021630055569  0.750002934458251  1.0000
  B   B1        1.0  0.9999999369862609  0.9999999949796763  2.5818870618805597e-08  1.0000
  I   I1        1.0  0.2410724133650381  0.2410710137275137  0.7589263438925269  1.0000
  I   I2        1.0  0.7589282484554298  0.7589284135070182  0.24107006429915723  1.0000
  I   I3        1.0  0.7589275322374698  0.24107170576610434  0.2410713172877294  1.0000
  I   I4        1.0  0.24107125588798498  0.7589294802556481  0.758926837178455  1.0000
  I   I5        1.0  0.2410725791854733  0.7589279093184751  0.24107064866648187  1.0000
  I   I6        1.0  0.7589295166418569  0.241070339813189  0.7589268367024816  1.0000
