data_image0
_chemical_formula_structural       P2CBr6
_chemical_formula_sum              "P2 C1 Br6"
_cell_length_a       6.199917671328362
_cell_length_b       6.199917552101926
_cell_length_c       6.19991748982303
_cell_angle_alpha    60.000000552170874
_cell_angle_beta     60.000001328067114
_cell_angle_gamma    60.00000327754026

_space_group_name_H-M_alt    "P 1"
_space_group_IT_number       1

loop_
  _space_group_symop_operation_xyz
  'x, y, z'

loop_
  _atom_site_type_symbol
  _atom_site_label
  _atom_site_symmetry_multiplicity
  _atom_site_fract_x
  _atom_site_fract_y
  _atom_site_fract_z
  _atom_site_occupancy
  P   P1        1.0  0.25000013389521497  0.24999991089027368  0.24999999081340135  1.0000
  P   P2        1.0  0.7499997876758299  0.7500000270085575  0.7500001096952964  1.0000
  C   C1        1.0  4.5190485925423443e-10  0.9999999762949459  1.7775781775220572e-07  1.0000
  Br  Br1       1.0  0.24497582545181862  0.24497574551226303  0.7550242123935873  1.0000
  Br  Br2       1.0  0.7550241696938308  0.7550242733788396  0.24497574470176062  1.0000
  Br  Br3       1.0  0.755024213088575  0.2449757828911404  0.24497570577212333  1.0000
  Br  Br4       1.0  0.24497582050994363  0.7550242379753848  0.7550241633662418  1.0000
  Br  Br5       1.0  0.24497583779825483  0.755024253200551  0.2449756657884616  1.0000
  Br  Br6       1.0  0.7550242107934164  0.24497579532187147  0.7550242191226464  1.0000
