data_image0
_chemical_formula_structural       P2CCl6
_chemical_formula_sum              "P2 C1 Cl6"
_cell_length_a       5.698788653891985
_cell_length_b       5.698788420565754
_cell_length_c       5.698788294213266
_cell_angle_alpha    59.99999704662336
_cell_angle_beta     59.999999058002075
_cell_angle_gamma    59.99999826287152

_space_group_name_H-M_alt    "P 1"
_space_group_IT_number       1

loop_
  _space_group_symop_operation_xyz
  'x, y, z'

loop_
  _atom_site_type_symbol
  _atom_site_label
  _atom_site_symmetry_multiplicity
  _atom_site_fract_x
  _atom_site_fract_y
  _atom_site_fract_z
  _atom_site_occupancy
  P   P1        1.0  0.25000000921046367  0.2499999576100812  0.2500000026524422  1.0000
  P   P2        1.0  0.7499999581638758  0.7500000447608105  0.7499999865567005  1.0000
  C   C1        1.0  2.245352030057277e-08  0.9999999204821127  1.4494113247384734e-08  1.0000
  Cl  Cl1       1.0  0.24857394496189097  0.24857397823337718  0.7514260461022911  1.0000
  Cl  Cl2       1.0  0.7514259924896876  0.7514260348831736  0.24857399480961892  1.0000
  Cl  Cl3       1.0  0.751426071863376  0.24857400202852153  0.2485739760259022  1.0000
  Cl  Cl4       1.0  0.24857392956689853  0.7514260562198037  0.751426012085529  1.0000
  Cl  Cl5       1.0  0.24857397943716136  0.7514260134526304  0.24857398419928953  1.0000
  Cl  Cl6       1.0  0.7514260793418579  0.24857401255871478  0.7514259562610789  1.0000
