data_image0
_chemical_formula_structural       P2CF6
_chemical_formula_sum              "P2 C1 F6"
_cell_length_a       5.125510707282744
_cell_length_b       5.125513309687066
_cell_length_c       5.125510420056192
_cell_angle_alpha    59.9999964213666
_cell_angle_beta     59.999998096103894
_cell_angle_gamma    59.99999366294542

_space_group_name_H-M_alt    "P 1"
_space_group_IT_number       1

loop_
  _space_group_symop_operation_xyz
  'x, y, z'

loop_
  _atom_site_type_symbol
  _atom_site_label
  _atom_site_symmetry_multiplicity
  _atom_site_fract_x
  _atom_site_fract_y
  _atom_site_fract_z
  _atom_site_occupancy
  P   P1        1.0  0.2500006908548954  0.25000018468661905  0.2500001725733926  1.0000
  P   P2        1.0  0.7499995615004547  0.749999287622063  0.7500004769075506  1.0000
  C   C1        1.0  1.4930574709912818e-08  0.9999998470715306  1.997176611300422e-07  1.0000
  F   F1        1.0  0.22582083237509024  0.22582073580825837  0.7741790115649693  1.0000
  F   F2        1.0  0.7741792807912451  0.7741794987532575  0.22582073912535425  1.0000
  F   F3        1.0  0.7741791377172865  0.2258206006372989  0.2258208643672651  1.0000
  F   F4        1.0  0.2258207689404825  0.7741794762168153  0.7741789903900669  1.0000
  F   F5        1.0  0.2258206594058719  0.7741794345633866  0.22582049490363024  1.0000
  F   F6        1.0  0.7741790280381464  0.22582091469459253  0.7741790952335305  1.0000
