data_image0
_chemical_formula_structural       P2CI6
_chemical_formula_sum              "P2 C1 I6"
_cell_length_a       7.346086645417454
_cell_length_b       7.346087626476263
_cell_length_c       7.34608655001448
_cell_angle_alpha    60.000005251393986
_cell_angle_beta     60.00000663889723
_cell_angle_gamma    60.000007562851

_space_group_name_H-M_alt    "P 1"
_space_group_IT_number       1

loop_
  _space_group_symop_operation_xyz
  'x, y, z'

loop_
  _atom_site_type_symbol
  _atom_site_label
  _atom_site_symmetry_multiplicity
  _atom_site_fract_x
  _atom_site_fract_y
  _atom_site_fract_z
  _atom_site_occupancy
  P   P1        1.0  0.250002102350555  0.25000073897863295  0.24999465163642898  1.0000
  P   P2        1.0  0.7499956746797458  0.7499989358724112  0.7499993392429516  1.0000
  C   C1        1.0  5.6240965204000394e-08  0.9999997982679789  0.9999995459344213  1.0000
  I   I1        1.0  0.25226560366695394  0.25226435804178177  0.7477367074741214  1.0000
  I   I2        1.0  0.7477349027278087  0.747735366825319  0.25226646260775837  1.0000
  I   I3        1.0  0.7477347978091052  0.25226520543247843  0.2522652726581796  1.0000
  I   I4        1.0  0.25226724915639365  0.7477340992985311  0.747736632069099  1.0000
  I   I5        1.0  0.25226606433516024  0.7477354057414796  0.25226405739394325  1.0000
  I   I6        1.0  0.7477335446095769  0.2522661013697819  0.7477372981316653  1.0000
