data_image0
_chemical_formula_structural       P2NCl6
_chemical_formula_sum              "P2 N1 Cl6"
_cell_length_a       5.770090692176555
_cell_length_b       5.770090741659048
_cell_length_c       5.770090498074463
_cell_angle_alpha    60.00000060214337
_cell_angle_beta     60.00000123205304
_cell_angle_gamma    60.00000077240499

_space_group_name_H-M_alt    "P 1"
_space_group_IT_number       1

loop_
  _space_group_symop_operation_xyz
  'x, y, z'

loop_
  _atom_site_type_symbol
  _atom_site_label
  _atom_site_symmetry_multiplicity
  _atom_site_fract_x
  _atom_site_fract_y
  _atom_site_fract_z
  _atom_site_occupancy
  P   P1        1.0  0.24999999881747387  0.24999998955810593  0.2500000289667009  1.0000
  P   P2        1.0  0.7500000029207101  0.7499999792871914  0.7500000644949208  1.0000
  N   N1        1.0  4.310010966015687e-08  0.9999997686393567  2.015809226832294e-07  1.0000
  Cl  Cl1       1.0  0.2538356569681348  0.2538356598619039  0.7461643163606563  1.0000
  Cl  Cl2       1.0  0.7461643403410246  0.7461644363378769  0.25383556486070424  1.0000
  Cl  Cl3       1.0  0.7461643669054222  0.25383567774038573  0.2538355971600223  1.0000
  Cl  Cl4       1.0  0.25383562417823285  0.7461643951110731  0.7461643161790021  1.0000
  Cl  Cl5       1.0  0.2538356365078343  0.7461644103790589  0.2538355978394396  1.0000
  Cl  Cl6       1.0  0.7461643438623826  0.253835664594975  0.7461643059304158  1.0000
