data_image0
_chemical_formula_structural       P2NF6
_chemical_formula_sum              "P2 N1 F6"
_cell_length_a       2.674354799696415
_cell_length_b       3.0811996375472512
_cell_length_c       2.9193286256986126
_cell_angle_alpha    67.0907704281924
_cell_angle_beta     52.63394869283028
_cell_angle_gamma    73.62126054189568

_space_group_name_H-M_alt    "P 1"
_space_group_IT_number       1

loop_
  _space_group_symop_operation_xyz
  'x, y, z'

loop_
  _atom_site_type_symbol
  _atom_site_label
  _atom_site_symmetry_multiplicity
  _atom_site_fract_x
  _atom_site_fract_y
  _atom_site_fract_z
  _atom_site_occupancy
  P   P1        1.0  0.07195316504816707  0.5250810278080785  0.5440790344672537  1.0000
  P   P2        1.0  0.3350042201552883  0.8994228258785556  0.17269859422114253  1.0000
  N   N1        1.0  0.9301688968860646  0.30223524747481956  0.14515817545859444  1.0000
  F   F1        1.0  0.3991235817735219  0.4278733701347013  0.999182108088206  1.0000
  F   F2        1.0  0.34324911079028336  0.2947117983145233  0.9570425317232268  1.0000
  F   F3        1.0  0.13186339219618556  0.08696464719537798  0.09631870835676959  1.0000
  F   F4        1.0  0.4583129673257549  0.5026610808296357  0.899075966693152  1.0000
  F   F5        1.0  0.5342406084769941  0.5328839376854893  0.8491242071860955  1.0000
  F   F6        1.0  0.5245826191757972  0.6190764182763862  0.8921087123979143  1.0000
