data_image0
_chemical_formula_structural       P2NO6
_chemical_formula_sum              "P2 N1 O6"
_cell_length_a       4.354576764693275
_cell_length_b       1.6207795731802925
_cell_length_c       3.7570103175580423
_cell_angle_alpha    67.71782489742117
_cell_angle_beta     38.06197666246962
_cell_angle_gamma    71.47480267716804

_space_group_name_H-M_alt    "P 1"
_space_group_IT_number       1

loop_
  _space_group_symop_operation_xyz
  'x, y, z'

loop_
  _atom_site_type_symbol
  _atom_site_label
  _atom_site_symmetry_multiplicity
  _atom_site_fract_x
  _atom_site_fract_y
  _atom_site_fract_z
  _atom_site_occupancy
  P   P1        1.0  0.40071550377100024  0.6367629816773648  0.11229323711073036  1.0000
  P   P2        1.0  0.43511782683508726  0.05814343666969801  0.699040076480582  1.0000
  N   N1        1.0  0.6753385371362293  0.4701237411554246  0.15310740185904503  1.0000
  O   O1        1.0  0.698285313944212  0.47677618287106965  0.8438697109470253  1.0000
  O   O2        1.0  0.6970389463376581  0.5995807581269545  0.8229178369139069  1.0000
  O   O3        1.0  0.7108909956833158  0.5214496799224253  0.8161001416715279  1.0000
  O   O4        1.0  0.7607922669123239  0.5197237129326889  0.6082306296186208  1.0000
  O   O5        1.0  0.46152188713438425  0.8254943400085089  0.24161242304129638  1.0000
  O   O6        1.0  0.6581978753136586  0.39512879318504934  0.8853114029297202  1.0000
