data_image0
_chemical_formula_structural       Pb2AsBr6
_chemical_formula_sum              "Pb2 As1 Br6"
_cell_length_a       7.48588049407033
_cell_length_b       7.4858805334228595
_cell_length_c       7.4858804856708385
_cell_angle_alpha    60.00000016808501
_cell_angle_beta     60.00000082904216
_cell_angle_gamma    60.0000004868937

_space_group_name_H-M_alt    "P 1"
_space_group_IT_number       1

loop_
  _space_group_symop_operation_xyz
  'x, y, z'

loop_
  _atom_site_type_symbol
  _atom_site_label
  _atom_site_symmetry_multiplicity
  _atom_site_fract_x
  _atom_site_fract_y
  _atom_site_fract_z
  _atom_site_occupancy
  Pb  Pb1       1.0  0.24999992920675762  0.2500000742624281  0.24999997792820122  1.0000
  Pb  Pb2       1.0  0.7500000554441218  0.7499999561073492  0.7500000761484064  1.0000
  As  As1       1.0  0.9999999943592851  2.6177171668463683e-08  0.9999999549997183  1.0000
  Br  Br1       1.0  0.2504644575506062  0.25046451280981524  0.7495355221592562  1.0000
  Br  Br2       1.0  0.7495355210398764  0.7495354848384976  0.25046449253096076  1.0000
  Br  Br3       1.0  0.7495355708341862  0.25046447541774297  0.25046444310837085  1.0000
  Br  Br4       1.0  0.2504644713893137  0.7495354747844467  0.7495355113903195  1.0000
  Br  Br5       1.0  0.2504644410250705  0.7495355354194184  0.2504645042519076  1.0000
  Br  Br6       1.0  0.7495355551718895  0.25046445568460146  0.7495355209373958  1.0000
