data_image0
_chemical_formula_structural       Pb2AsF6
_chemical_formula_sum              "Pb2 As1 F6"
_cell_length_a       6.039536622027814
_cell_length_b       6.039536773932827
_cell_length_c       6.039537069498731
_cell_angle_alpha    59.99999870585102
_cell_angle_beta     60.00000022187722
_cell_angle_gamma    59.99999845113451

_space_group_name_H-M_alt    "P 1"
_space_group_IT_number       1

loop_
  _space_group_symop_operation_xyz
  'x, y, z'

loop_
  _atom_site_type_symbol
  _atom_site_label
  _atom_site_symmetry_multiplicity
  _atom_site_fract_x
  _atom_site_fract_y
  _atom_site_fract_z
  _atom_site_occupancy
  Pb  Pb1       1.0  0.2500000411411319  0.24999998064002082  0.24999996087130041  1.0000
  Pb  Pb2       1.0  0.7499999762631825  0.7500000392582492  0.7499999952799822  1.0000
  As  As1       1.0  0.9999998614749057  0.9999999452472722  2.2082061130608772e-07  1.0000
  F   F1        1.0  0.24599132621037653  0.24599130712822398  0.7540086906420193  1.0000
  F   F2        1.0  0.7540087564669586  0.7540088324148972  0.2459911829848651  1.0000
  F   F3        1.0  0.7540088209735588  0.24599113264247113  0.24599126122660434  1.0000
  F   F4        1.0  0.24599128380180582  0.7540087169139738  0.7540086917046539  1.0000
  F   F5        1.0  0.24599118407724688  0.754008797234109  0.2459912168391842  1.0000
  F   F6        1.0  0.7540087091494799  0.24599125105446681  0.7540087789269566  1.0000
