data_image0
_chemical_formula_structural       Pb2AsO6
_chemical_formula_sum              "Pb2 As1 O6"
_cell_length_a       5.587135920354413
_cell_length_b       5.587136061181989
_cell_length_c       5.587136109741609
_cell_angle_alpha    60.00000017066277
_cell_angle_beta     59.999999375680524
_cell_angle_gamma    60.00000007859215

_space_group_name_H-M_alt    "P 1"
_space_group_IT_number       1

loop_
  _space_group_symop_operation_xyz
  'x, y, z'

loop_
  _atom_site_type_symbol
  _atom_site_label
  _atom_site_symmetry_multiplicity
  _atom_site_fract_x
  _atom_site_fract_y
  _atom_site_fract_z
  _atom_site_occupancy
  Pb  Pb1       1.0  0.2499999570264939  0.25000000774441805  0.2499999684322784  1.0000
  Pb  Pb2       1.0  0.7499999248140157  0.7500000232332544  0.7499999822394611  1.0000
  As  As1       1.0  0.9999999727566324  1.972871961174621e-08  1.2904512545694694e-07  1.0000
  O   O1        1.0  0.23431794632168665  0.2343178391673923  0.7656821913251336  1.0000
  O   O2        1.0  0.7656821138006136  0.7656820909746045  0.23431786201978172  1.0000
  O   O3        1.0  0.7656821902665469  0.23431788677917145  0.23431790004455644  1.0000
  O   O4        1.0  0.23431795104137013  0.765682085012343  0.7656820328185431  1.0000
  O   O5        1.0  0.2343178915796518  0.7656820942107709  0.23431790256051382  1.0000
  O   O6        1.0  0.7656820076291116  0.23431796526394028  0.7656820538157912  1.0000
