data_image0
_chemical_formula_structural       Pb2AsCl6
_chemical_formula_sum              "Pb2 As1 Cl6"
_cell_length_a       7.0295303119388794
_cell_length_b       7.029530348306547
_cell_length_c       7.029530004190147
_cell_angle_alpha    60.00000096231164
_cell_angle_beta     60.00000213976827
_cell_angle_gamma    59.99999879760977

_space_group_name_H-M_alt    "P 1"
_space_group_IT_number       1

loop_
  _space_group_symop_operation_xyz
  'x, y, z'

loop_
  _atom_site_type_symbol
  _atom_site_label
  _atom_site_symmetry_multiplicity
  _atom_site_fract_x
  _atom_site_fract_y
  _atom_site_fract_z
  _atom_site_occupancy
  Pb  Pb1       1.0  0.2499999773996331  0.24999999679931914  0.25000010513476295  1.0000
  Pb  Pb2       1.0  0.750000001323718  0.7499999259333956  0.7500000456309609  1.0000
  As  As1       1.0  0.9999999958692144  0.9999999581851514  0.9999997270782128  1.0000
  Cl  Cl1       1.0  0.24718631694115847  0.24718622342511634  0.7528137235949844  1.0000
  Cl  Cl2       1.0  0.7528137535537882  0.7528137393801634  0.24718624744304205  1.0000
  Cl  Cl3       1.0  0.7528137114459977  0.24718628173336646  0.24718625567738123  1.0000
  Cl  Cl4       1.0  0.24718616325552922  0.7528138988576027  0.7528138323958277  1.0000
  Cl  Cl5       1.0  0.24718616706366803  0.7528138325113094  0.24718620607167416  1.0000
  Cl  Cl6       1.0  0.7528139054553978  0.24718613900539682  0.7528138549107837  1.0000
