data_image0
_chemical_formula_structural       Pb2BiBr6
_chemical_formula_sum              "Pb2 Bi1 Br6"
_cell_length_a       7.631480706132644
_cell_length_b       7.631480791883972
_cell_length_c       7.631480831668045
_cell_angle_alpha    59.99999916524903
_cell_angle_beta     60.00000039196986
_cell_angle_gamma    60.000000851296356

_space_group_name_H-M_alt    "P 1"
_space_group_IT_number       1

loop_
  _space_group_symop_operation_xyz
  'x, y, z'

loop_
  _atom_site_type_symbol
  _atom_site_label
  _atom_site_symmetry_multiplicity
  _atom_site_fract_x
  _atom_site_fract_y
  _atom_site_fract_z
  _atom_site_occupancy
  Pb  Pb1       1.0  0.2500000257725786  0.24999999958136523  0.2499999988691626  1.0000
  Pb  Pb2       1.0  0.7500000052408194  0.7499999698566374  0.7500000405378665  1.0000
  Bi  Bi1       1.0  0.9999999589948934  0.9999999550639544  3.117732096028176e-08  1.0000
  Br  Br1       1.0  0.2621081445211724  0.2621081784756178  0.7378918296529023  1.0000
  Br  Br2       1.0  0.737891875929492  0.7378918952782045  0.26210810522166944  1.0000
  Br  Br3       1.0  0.7378917899189241  0.2621082058494772  0.2621081575464912  1.0000
  Br  Br4       1.0  0.2621081938062571  0.7378918101294295  0.7378918271990036  1.0000
  Br  Br5       1.0  0.26210816121744773  0.7378918218040735  0.26210815424134676  1.0000
  Br  Br6       1.0  0.7378918432633662  0.2621081636825167  0.737891856338277  1.0000
