data_image0
_chemical_formula_structural       Pb2BiTe6
_chemical_formula_sum              "Pb2 Bi1 Te6"
_cell_length_a       7.69300736341789
_cell_length_b       7.693007675612996
_cell_length_c       7.693007605236975
_cell_angle_alpha    59.999999921488524
_cell_angle_beta     59.99999943638695
_cell_angle_gamma    60.0000001130364

_space_group_name_H-M_alt    "P 1"
_space_group_IT_number       1

loop_
  _space_group_symop_operation_xyz
  'x, y, z'

loop_
  _atom_site_type_symbol
  _atom_site_label
  _atom_site_symmetry_multiplicity
  _atom_site_fract_x
  _atom_site_fract_y
  _atom_site_fract_z
  _atom_site_occupancy
  Pb  Pb1       1.0  0.24999993590333067  0.2499999875830714  0.2500000367961798  1.0000
  Pb  Pb2       1.0  0.7500000144802325  0.7499999818534947  0.7500000117499788  1.0000
  Bi  Bi1       1.0  4.142117465460665e-08  0.9999999793036949  0.9999999831381569  1.0000
  Te  Te1       1.0  0.2789825443895664  0.2789825262446357  0.7210174837008404  1.0000
  Te  Te2       1.0  0.7210174498708241  0.7210174511520473  0.2789825597249536  1.0000
  Te  Te3       1.0  0.7210174641426275  0.2789825429798983  0.2789825220378257  1.0000
  Te  Te4       1.0  0.27898253034404685  0.7210175012817701  0.7210174540454086  1.0000
  Te  Te5       1.0  0.2789825313844749  0.7210175008029743  0.2789824988420115  1.0000
  Te  Te6       1.0  0.721017486511684  0.2789825227623893  0.7210174511868805  1.0000
