data_image0
_chemical_formula_structural       Pb2BBr6
_chemical_formula_sum              "Pb2 B1 Br6"
_cell_length_a       7.195381027525254
_cell_length_b       7.195381484325759
_cell_length_c       7.1953810190027525
_cell_angle_alpha    59.99999987548371
_cell_angle_beta     59.999999778281875
_cell_angle_gamma    59.99999550643737

_space_group_name_H-M_alt    "P 1"
_space_group_IT_number       1

loop_
  _space_group_symop_operation_xyz
  'x, y, z'

loop_
  _atom_site_type_symbol
  _atom_site_label
  _atom_site_symmetry_multiplicity
  _atom_site_fract_x
  _atom_site_fract_y
  _atom_site_fract_z
  _atom_site_occupancy
  Pb  Pb1       1.0  0.2500000601184298  0.24999990842228897  0.2500000582814252  1.0000
  Pb  Pb2       1.0  0.7500000608533093  0.7499998767561309  0.7499999239777321  1.0000
  B   B1        1.0  6.612717732079991e-08  0.9999995897875471  0.999999484101313  1.0000
  Br  Br1       1.0  0.22632097051559258  0.22632132934221252  0.773678869517705  1.0000
  Br  Br2       1.0  0.7736789750426203  0.7736788183891375  0.2263212971278379  1.0000
  Br  Br3       1.0  0.7736787720092141  0.22632130741976997  0.22632132358243265  1.0000
  Br  Br4       1.0  0.2263209763833792  0.773679109247562  0.7736789558844349  1.0000
  Br  Br5       1.0  0.2263210487809836  0.7736788963717807  0.22632121427191054  1.0000
  Br  Br6       1.0  0.773679106194141  0.2263211815723753  0.7736788130697511  1.0000
