data_image0
_chemical_formula_structural       Pb2BI6
_chemical_formula_sum              "Pb2 B1 I6"
_cell_length_a       7.639600294227505
_cell_length_b       7.639600528183346
_cell_length_c       7.639601019420658
_cell_angle_alpha    59.9999987883582
_cell_angle_beta     59.999998347926045
_cell_angle_gamma    60.000000897076994

_space_group_name_H-M_alt    "P 1"
_space_group_IT_number       1

loop_
  _space_group_symop_operation_xyz
  'x, y, z'

loop_
  _atom_site_type_symbol
  _atom_site_label
  _atom_site_symmetry_multiplicity
  _atom_site_fract_x
  _atom_site_fract_y
  _atom_site_fract_z
  _atom_site_occupancy
  Pb  Pb1       1.0  0.2500002376801666  0.24999992373687344  0.24999995921261445  1.0000
  Pb  Pb2       1.0  0.7499999326492469  0.7499998225115055  0.7500001047412862  1.0000
  B   B1        1.0  0.9999999393422094  3.6872518951331026e-08  3.0218199736751667e-08  1.0000
  I   I1        1.0  0.23644459921987337  0.23644468027821763  0.7635553397512126  1.0000
  I   I2        1.0  0.7635553402164061  0.7635553641566217  0.2364446211806736  1.0000
  I   I3        1.0  0.7635552530075763  0.23644476998820307  0.23644465672426196  1.0000
  I   I4        1.0  0.2364446752825888  0.7635553305569921  0.7635553105228193  1.0000
  I   I5        1.0  0.23644478265880395  0.7635552975908598  0.23644466639430656  1.0000
  I   I6        1.0  0.7635552458466277  0.23644477890704163  0.7635553059647623  1.0000
