data_image0
_chemical_formula_structural       Pb2BiF6
_chemical_formula_sum              "Pb2 Bi1 F6"
_cell_length_a       6.226748708765962
_cell_length_b       6.226748517964367
_cell_length_c       6.2267486207059415
_cell_angle_alpha    59.9999972620519
_cell_angle_beta     59.99999983492024
_cell_angle_gamma    59.999999189095135

_space_group_name_H-M_alt    "P 1"
_space_group_IT_number       1

loop_
  _space_group_symop_operation_xyz
  'x, y, z'

loop_
  _atom_site_type_symbol
  _atom_site_label
  _atom_site_symmetry_multiplicity
  _atom_site_fract_x
  _atom_site_fract_y
  _atom_site_fract_z
  _atom_site_occupancy
  Pb  Pb1       1.0  0.25000009263196876  0.24999999973487932  0.24999994039247211  1.0000
  Pb  Pb2       1.0  0.7499999440071748  0.7499999716679032  0.750000066129135  1.0000
  Bi  Bi1       1.0  0.999999990615412  5.9007297883465464e-09  0.9999999021715051  1.0000
  F   F1        1.0  0.2545831846579234  0.25458319388904505  0.7454168372972388  1.0000
  F   F2        1.0  0.7454168141792886  0.7454168797930176  0.2545830904124295  1.0000
  F   F3        1.0  0.7454166870041307  0.25458331955993696  0.2545832451748028  1.0000
  F   F4        1.0  0.25458316986548013  0.7454168406661273  0.7454168130290375  1.0000
  F   F5        1.0  0.2545831962762213  0.7454168320206546  0.2545831096823575  1.0000
  F   F6        1.0  0.7454169211732751  0.2545829859632085  0.7454169829287469  1.0000
