data_image0
_chemical_formula_structural       Pb2BiI6
_chemical_formula_sum              "Pb2 Bi1 I6"
_cell_length_a       8.166723507708134
_cell_length_b       8.166723573829989
_cell_length_c       8.166723645444023
_cell_angle_alpha    59.99999909744751
_cell_angle_beta     60.00000008012257
_cell_angle_gamma    60.00000052658969

_space_group_name_H-M_alt    "P 1"
_space_group_IT_number       1

loop_
  _space_group_symop_operation_xyz
  'x, y, z'

loop_
  _atom_site_type_symbol
  _atom_site_label
  _atom_site_symmetry_multiplicity
  _atom_site_fract_x
  _atom_site_fract_y
  _atom_site_fract_z
  _atom_site_occupancy
  Pb  Pb1       1.0  0.2500000089662767  0.24999999339557494  0.24999998751371622  1.0000
  Pb  Pb2       1.0  0.7499999813106651  0.7499999981828499  0.7500000142960872  1.0000
  Bi  Bi1       1.0  1.999570070447152e-09  0.9999999940012908  6.322363222878635e-08  1.0000
  I   I1        1.0  0.2635418263139502  0.2635418321239585  0.7364581677163664  1.0000
  I   I2        1.0  0.7364581609636374  0.7364581684525293  0.2635418310940826  1.0000
  I   I3        1.0  0.7364581656055978  0.26354184628711624  0.26354183283220195  1.0000
  I   I4        1.0  0.2635418656747099  0.7364581452913093  0.7364581337821431  1.0000
  I   I5        1.0  0.2635418277967856  0.7364581692108335  0.2635418247850337  1.0000
  I   I6        1.0  0.736458159051962  0.2635418538608119  0.7364581446250373  1.0000
