data_image0
_chemical_formula_structural       Pb2BiSe6
_chemical_formula_sum              "Pb2 Bi1 Se6"
_cell_length_a       7.137031210750065
_cell_length_b       7.137031035650616
_cell_length_c       7.1370309027460435
_cell_angle_alpha    59.999999846867304
_cell_angle_beta     60.000000605246726
_cell_angle_gamma    59.99999770054183

_space_group_name_H-M_alt    "P 1"
_space_group_IT_number       1

loop_
  _space_group_symop_operation_xyz
  'x, y, z'

loop_
  _atom_site_type_symbol
  _atom_site_label
  _atom_site_symmetry_multiplicity
  _atom_site_fract_x
  _atom_site_fract_y
  _atom_site_fract_z
  _atom_site_occupancy
  Pb  Pb1       1.0  0.25000003029441037  0.2500000482196848  0.24999994493340078  1.0000
  Pb  Pb2       1.0  0.7499998753772719  0.7500000485606769  0.7499999681840867  1.0000
  Bi  Bi1       1.0  2.1147687633792646e-08  0.9999999656791497  0.9999998356471507  1.0000
  Se  Se1       1.0  0.27884863679632793  0.27884858866456264  0.7211514031469318  1.0000
  Se  Se2       1.0  0.72115140002632  0.7211513330794563  0.2788486426035313  1.0000
  Se  Se3       1.0  0.7211513775136347  0.2788485940171052  0.2788486800441361  1.0000
  Se  Se4       1.0  0.2788486869759243  0.7211513757761037  0.7211514553522776  1.0000
  Se  Se5       1.0  0.27884861375549624  0.7211514074309209  0.2788486035518334  1.0000
  Se  Se6       1.0  0.7211513591333805  0.2788486430162897  0.7211514616562057  1.0000
