data_image0
_chemical_formula_structural       Pb2BiO6
_chemical_formula_sum              "Pb2 Bi1 O6"
_cell_length_a       5.834312680012739
_cell_length_b       5.834312385572356
_cell_length_c       5.8343121811939636
_cell_angle_alpha    60.00000229242235
_cell_angle_beta     60.00000165714753
_cell_angle_gamma    60.00000101512006

_space_group_name_H-M_alt    "P 1"
_space_group_IT_number       1

loop_
  _space_group_symop_operation_xyz
  'x, y, z'

loop_
  _atom_site_type_symbol
  _atom_site_label
  _atom_site_symmetry_multiplicity
  _atom_site_fract_x
  _atom_site_fract_y
  _atom_site_fract_z
  _atom_site_occupancy
  Pb  Pb1       1.0  0.2500001052928206  0.2499998499747137  0.24999998105718008  1.0000
  Pb  Pb2       1.0  0.750000062080009  0.7499999550717231  0.7499999377709033  1.0000
  Bi  Bi1       1.0  2.5608949975225344e-08  6.2976312600715835e-09  2.9006883221484914e-09  1.0000
  O   O1        1.0  0.2488285480058849  0.24882858114567813  0.7511714197231488  1.0000
  O   O2        1.0  0.7511713734474471  0.7511714925996743  0.24882861797908576  1.0000
  O   O3        1.0  0.7511713935422031  0.2488286443159943  0.248828581249746  1.0000
  O   O4        1.0  0.24882857433033062  0.7511714861080345  0.75117134148562  1.0000
  O   O5        1.0  0.24882856711901835  0.751171418651525  0.24882862804128492  1.0000
  O   O6        1.0  0.7511713547356788  0.24882856482778595  0.7511714614492796  1.0000
