data_image0
_chemical_formula_structural       Pb2GaTe6
_chemical_formula_sum              "Pb2 Ga1 Te6"
_cell_length_a       7.375237892675035
_cell_length_b       7.375237888870294
_cell_length_c       7.375237982826906
_cell_angle_alpha    59.99999972158622
_cell_angle_beta     59.99999995257412
_cell_angle_gamma    60.000000303963695

_space_group_name_H-M_alt    "P 1"
_space_group_IT_number       1

loop_
  _space_group_symop_operation_xyz
  'x, y, z'

loop_
  _atom_site_type_symbol
  _atom_site_label
  _atom_site_symmetry_multiplicity
  _atom_site_fract_x
  _atom_site_fract_y
  _atom_site_fract_z
  _atom_site_occupancy
  Pb  Pb1       1.0  0.24999999566253206  0.2500000217308741  0.24999999747976126  1.0000
  Pb  Pb2       1.0  0.7500000025029868  0.7499999904648372  0.7500000572985807  1.0000
  Ga  Ga1       1.0  1.5846395983067245e-08  0.9999999900362954  0.9999999997704313  1.0000
  Te  Te1       1.0  0.2661251750950104  0.26612514546061616  0.7338748430561505  1.0000
  Te  Te2       1.0  0.7338748430603005  0.733874858432008  0.26612512316964376  1.0000
  Te  Te3       1.0  0.7338748277159756  0.2661251744038685  0.2661251436307429  1.0000
  Te  Te4       1.0  0.2661251341710826  0.7338748245069029  0.7338748572877691  1.0000
  Te  Te5       1.0  0.26612515554104654  0.7338748492887518  0.2661251360959905  1.0000
  Te  Te6       1.0  0.7338748413437438  0.2661251479614025  0.7338748440862988  1.0000
