data_image0
_chemical_formula_structural       Pb2GaF6
_chemical_formula_sum              "Pb2 Ga1 F6"
_cell_length_a       5.794131270680756
_cell_length_b       5.794131483848822
_cell_length_c       5.794131185868875
_cell_angle_alpha    60.00000112148528
_cell_angle_beta     60.0000002677398
_cell_angle_gamma    60.000000060969484

_space_group_name_H-M_alt    "P 1"
_space_group_IT_number       1

loop_
  _space_group_symop_operation_xyz
  'x, y, z'

loop_
  _atom_site_type_symbol
  _atom_site_label
  _atom_site_symmetry_multiplicity
  _atom_site_fract_x
  _atom_site_fract_y
  _atom_site_fract_z
  _atom_site_occupancy
  Pb  Pb1       1.0  0.25000002439393304  0.24999998721280361  0.2500000008152807  1.0000
  Pb  Pb2       1.0  0.7499999826145208  0.7500000778956409  0.7500000120373614  1.0000
  Ga  Ga1       1.0  0.9999999932373659  0.999999936586966  5.234667727061251e-08  1.0000
  F   F1        1.0  0.23419754320026778  0.2341975854095405  0.7658024073846967  1.0000
  F   F2        1.0  0.7658024374586812  0.7658024331960134  0.23419752971166435  1.0000
  F   F3        1.0  0.7658024368796953  0.23419756942228018  0.23419755819707594  1.0000
  F   F4        1.0  0.23419755187166014  0.7658024428419697  0.7658024418814529  1.0000
  F   F5        1.0  0.2341975776979971  0.7658024226494098  0.23419755108547008  1.0000
  F   F6        1.0  0.7658024592451314  0.2341975705909296  0.765802396439673  1.0000
