data_image0
_chemical_formula_structural       Pb2GaBr6
_chemical_formula_sum              "Pb2 Ga1 Br6"
_cell_length_a       7.269701430784797
_cell_length_b       7.269701423368829
_cell_length_c       7.269701330121389
_cell_angle_alpha    60.00000091152019
_cell_angle_beta     60.00000051870204
_cell_angle_gamma    60.00000014732882

_space_group_name_H-M_alt    "P 1"
_space_group_IT_number       1

loop_
  _space_group_symop_operation_xyz
  'x, y, z'

loop_
  _atom_site_type_symbol
  _atom_site_label
  _atom_site_symmetry_multiplicity
  _atom_site_fract_x
  _atom_site_fract_y
  _atom_site_fract_z
  _atom_site_occupancy
  Pb  Pb1       1.0  0.24999996831955493  0.2500000502319254  0.24999996905407681  1.0000
  Pb  Pb2       1.0  0.7499999688653375  0.7499999923316152  0.7500000768169113  1.0000
  Ga  Ga1       1.0  2.716199895943327e-08  4.717230296774567e-08  0.9999999023076667  1.0000
  Br  Br1       1.0  0.2489967920597997  0.2489967704329769  0.751003222519014  1.0000
  Br  Br2       1.0  0.7510031423833429  0.7510031659928806  0.24899682414436947  1.0000
  Br  Br3       1.0  0.7510032100366976  0.24899682086417754  0.2489968018750014  1.0000
  Br  Br4       1.0  0.24899679031428537  0.7510032132757368  0.7510031863621632  1.0000
  Br  Br5       1.0  0.24899686565982881  0.7510031769236252  0.24899680590548998  1.0000
  Br  Br6       1.0  0.7510032306047679  0.2489967696105827  0.7510032056891675  1.0000
