data_image0
_chemical_formula_structural       Pb2GaO6
_chemical_formula_sum              "Pb2 Ga1 O6"
_cell_length_a       5.321531875959449
_cell_length_b       5.321531978823512
_cell_length_c       5.321531920183735
_cell_angle_alpha    59.99999944184859
_cell_angle_beta     59.99999875643505
_cell_angle_gamma    59.99999954478021

_space_group_name_H-M_alt    "P 1"
_space_group_IT_number       1

loop_
  _space_group_symop_operation_xyz
  'x, y, z'

loop_
  _atom_site_type_symbol
  _atom_site_label
  _atom_site_symmetry_multiplicity
  _atom_site_fract_x
  _atom_site_fract_y
  _atom_site_fract_z
  _atom_site_occupancy
  Pb  Pb1       1.0  0.2499999816807248  0.2500000112553385  0.25000001685370526  1.0000
  Pb  Pb2       1.0  0.7500000194757049  0.7499999992436761  0.7499999911431988  1.0000
  Ga  Ga1       1.0  1.3282438927131981e-08  0.9999999861910648  0.9999999326135552  1.0000
  O   O1        1.0  0.2615009105012988  0.26150088802553745  0.7384990819309767  1.0000
  O   O2        1.0  0.7384990865786503  0.738499108664542  0.2615008748755751  1.0000
  O   O3        1.0  0.73849905284204  0.2615009041970434  0.2615009430772596  1.0000
  O   O4        1.0  0.261500874648022  0.7384991385228207  0.7384991608087296  1.0000
  O   O5        1.0  0.26150092394421387  0.7384990957362803  0.2615008987682347  1.0000
  O   O6        1.0  0.7384991381226417  0.2615008687329486  0.7384991431298283  1.0000
