data_image0
_chemical_formula_structural       Pb2GaSe6
_chemical_formula_sum              "Pb2 Ga1 Se6"
_cell_length_a       6.823064196810378
_cell_length_b       6.823064445732859
_cell_length_c       6.823064405895064
_cell_angle_alpha    60.00000011821003
_cell_angle_beta     59.999999333404205
_cell_angle_gamma    60.00000041222972

_space_group_name_H-M_alt    "P 1"
_space_group_IT_number       1

loop_
  _space_group_symop_operation_xyz
  'x, y, z'

loop_
  _atom_site_type_symbol
  _atom_site_label
  _atom_site_symmetry_multiplicity
  _atom_site_fract_x
  _atom_site_fract_y
  _atom_site_fract_z
  _atom_site_occupancy
  Pb  Pb1       1.0  0.2500000392169651  0.25000005300307454  0.2499998938818957  1.0000
  Pb  Pb2       1.0  0.7499999747956105  0.7499999884835558  0.7500000449881769  1.0000
  Ga  Ga1       1.0  0.9999999751954886  2.8720112546894486e-08  0.9999999760579426  1.0000
  Se  Se1       1.0  0.26311341666204624  0.2631134452353951  0.7368865643316224  1.0000
  Se  Se2       1.0  0.7368865250077703  0.7368865441960315  0.2631134455311342  1.0000
  Se  Se3       1.0  0.7368865374907115  0.2631134898749165  0.2631134046330835  1.0000
  Se  Se4       1.0  0.2631135189508587  0.736886515711573  0.7368865602849046  1.0000
  Se  Se5       1.0  0.263113498251654  0.7368864916053114  0.2631135142102132  1.0000
  Se  Se6       1.0  0.7368865118307273  0.2631134601309672  0.7368865814214162  1.0000
