data_image0
_chemical_formula_structural       Pb2IrI6
_chemical_formula_sum              "Pb2 Ir1 I6"
_cell_length_a       7.731324704638092
_cell_length_b       7.731324689402168
_cell_length_c       7.731324820882798
_cell_angle_alpha    59.99999883045916
_cell_angle_beta     59.999999314997574
_cell_angle_gamma    60.00000071046679

_space_group_name_H-M_alt    "P 1"
_space_group_IT_number       1

loop_
  _space_group_symop_operation_xyz
  'x, y, z'

loop_
  _atom_site_type_symbol
  _atom_site_label
  _atom_site_symmetry_multiplicity
  _atom_site_fract_x
  _atom_site_fract_y
  _atom_site_fract_z
  _atom_site_occupancy
  Pb  Pb1       1.0  0.25000006006932646  0.2500000275534795  0.2499999313482788  1.0000
  Pb  Pb2       1.0  0.7499999589396109  0.750000016126836  0.7500000427144126  1.0000
  Ir  Ir1       1.0  0.9999999872518801  1.5841332393746044e-08  4.372377207868645e-08  1.0000
  I   I1        1.0  0.24550943553510973  0.24550948651461232  0.7544905451472407  1.0000
  I   I2        1.0  0.7544905296470508  0.7544905080575705  0.24550947132882997  1.0000
  I   I3        1.0  0.754490555665711  0.24550944412913775  0.24550946019574832  1.0000
  I   I4        1.0  0.24550950198106575  0.7544904791570486  0.754490526289422  1.0000
  I   I5        1.0  0.24550949095744592  0.7544905599209385  0.2455094317474629  1.0000
  I   I6        1.0  0.7544904816768465  0.24550946158151046  0.7544905481358181  1.0000
