data_image0
_chemical_formula_structural       Pb2IrF6
_chemical_formula_sum              "Pb2 Ir1 F6"
_cell_length_a       5.786854671604578
_cell_length_b       5.7868546961968095
_cell_length_c       5.786854458901318
_cell_angle_alpha    60.00000114041164
_cell_angle_beta     60.0000009497138
_cell_angle_gamma    60.00000316858442

_space_group_name_H-M_alt    "P 1"
_space_group_IT_number       1

loop_
  _space_group_symop_operation_xyz
  'x, y, z'

loop_
  _atom_site_type_symbol
  _atom_site_label
  _atom_site_symmetry_multiplicity
  _atom_site_fract_x
  _atom_site_fract_y
  _atom_site_fract_z
  _atom_site_occupancy
  Pb  Pb1       1.0  0.2499999648203677  0.2500000073688853  0.24999998025615708  1.0000
  Pb  Pb2       1.0  0.7500000154741354  0.7500000242230848  0.7500000122639383  1.0000
  Ir  Ir1       1.0  0.9999999955458345  0.9999999894178709  2.479869249624642e-08  1.0000
  F   F1        1.0  0.2522349575602691  0.2522349544454716  0.7477650484518964  1.0000
  F   F2        1.0  0.7477650469624714  0.747764992489468  0.2522349414495596  1.0000
  F   F3        1.0  0.7477650080375554  0.2522350125603031  0.25223488515729103  1.0000
  F   F4        1.0  0.25223497882753904  0.7477650232645188  0.7477650708561017  1.0000
  F   F5        1.0  0.2522350974661573  0.7477649287406296  0.25223506744235674  1.0000
  F   F6        1.0  0.7477648962116082  0.25223509861848914  0.7477650017210956  1.0000
