data_image0
_chemical_formula_structural       Pb2IrBr6
_chemical_formula_sum              "Pb2 Ir1 Br6"
_cell_length_a       7.295876335946579
_cell_length_b       7.295876272095186
_cell_length_c       7.295876325818602
_cell_angle_alpha    59.999999749037734
_cell_angle_beta     59.999999614520085
_cell_angle_gamma    59.99999902530764

_space_group_name_H-M_alt    "P 1"
_space_group_IT_number       1

loop_
  _space_group_symop_operation_xyz
  'x, y, z'

loop_
  _atom_site_type_symbol
  _atom_site_label
  _atom_site_symmetry_multiplicity
  _atom_site_fract_x
  _atom_site_fract_y
  _atom_site_fract_z
  _atom_site_occupancy
  Pb  Pb1       1.0  0.2500000155073771  0.2500000394127949  0.24999997131213686  1.0000
  Pb  Pb2       1.0  0.7500000035842348  0.74999999065863  0.7500000033071482  1.0000
  Ir  Ir1       1.0  2.6441929047709104e-08  0.9999999966426383  2.4202561098728055e-07  1.0000
  Br  Br1       1.0  0.24167223989142858  0.2416722532696178  0.7583277641562909  1.0000
  Br  Br2       1.0  0.758327732775975  0.7583277214053348  0.24167227233843283  1.0000
  Br  Br3       1.0  0.7583278419396241  0.2416721685437426  0.24167215177042908  1.0000
  Br  Br4       1.0  0.24167226501660652  0.7583277356266073  0.7583277102859061  1.0000
  Br  Br5       1.0  0.24167214960990346  0.7583278321910941  0.2416721746204462  1.0000
  Br  Br6       1.0  0.7583277257928346  0.2416722633488901  0.7583277088984559  1.0000
