data_image0
_chemical_formula_structural       Pb2MoBr6
_chemical_formula_sum              "Pb2 Mo1 Br6"
_cell_length_a       7.403429796642231
_cell_length_b       7.403429749294481
_cell_length_c       7.403429809586192
_cell_angle_alpha    60.00000026084731
_cell_angle_beta     60.000000161170966
_cell_angle_gamma    60.000000353071286

_space_group_name_H-M_alt    "P 1"
_space_group_IT_number       1

loop_
  _space_group_symop_operation_xyz
  'x, y, z'

loop_
  _atom_site_type_symbol
  _atom_site_label
  _atom_site_symmetry_multiplicity
  _atom_site_fract_x
  _atom_site_fract_y
  _atom_site_fract_z
  _atom_site_occupancy
  Pb  Pb1       1.0  0.24999995490084573  0.2499999647300164  0.2500000490571137  1.0000
  Pb  Pb2       1.0  0.7499999782727966  0.7500000728537907  0.749999988897814  1.0000
  Mo  Mo1       1.0  5.8465164927621264e-08  0.9999999602969464  0.9999999500971851  1.0000
  Br  Br1       1.0  0.24731787850218254  0.24731787550051723  0.7526821231042403  1.0000
  Br  Br2       1.0  0.7526821500959694  0.7526821471946449  0.24731783811317187  1.0000
  Br  Br3       1.0  0.7526820940733666  0.24731787591841528  0.2473178931849205  1.0000
  Br  Br4       1.0  0.24731788949942538  0.7526821087279872  0.752682139285508  1.0000
  Br  Br5       1.0  0.24731788887887907  0.7526821259600267  0.2473178746515012  1.0000
  Br  Br6       1.0  0.7526821043196116  0.24731787192072716  0.7526821423367265  1.0000
