data_image0
_chemical_formula_structural       Pb2MoF6
_chemical_formula_sum              "Pb2 Mo1 F6"
_cell_length_a       6.069534654156102
_cell_length_b       6.069534954730834
_cell_length_c       6.069534315007082
_cell_angle_alpha    60.00000063141268
_cell_angle_beta     59.999998099910755
_cell_angle_gamma    60.00000176402977

_space_group_name_H-M_alt    "P 1"
_space_group_IT_number       1

loop_
  _space_group_symop_operation_xyz
  'x, y, z'

loop_
  _atom_site_type_symbol
  _atom_site_label
  _atom_site_symmetry_multiplicity
  _atom_site_fract_x
  _atom_site_fract_y
  _atom_site_fract_z
  _atom_site_occupancy
  Pb  Pb1       1.0  0.25000002695306783  0.2500000866995443  0.2499999311082212  1.0000
  Pb  Pb2       1.0  0.7499999998287158  0.7499998867952418  0.7500000896896734  1.0000
  Mo  Mo1       1.0  3.885688432002091e-08  0.9999999576250213  0.9999999951687556  1.0000
  F   F1        1.0  0.24625159119693338  0.24625177253275748  0.7537483725709774  1.0000
  F   F2        1.0  0.7537482334434005  0.7537482594798542  0.246251764523201  1.0000
  F   F3        1.0  0.7537484411808653  0.2462515929150435  0.24625154247391073  1.0000
  F   F4        1.0  0.2462516048364608  0.7537484027761624  0.7537483554584846  1.0000
  F   F5        1.0  0.2462518258179144  0.7537482425138086  0.24625173802404546  1.0000
  F   F6        1.0  0.7537482005780619  0.24625181774879154  0.7537482791245926  1.0000
