data_image0
_chemical_formula_structural       Pb2NF6
_chemical_formula_sum              "Pb2 N1 F6"
_cell_length_a       5.438843420677611
_cell_length_b       5.438843625479073
_cell_length_c       5.4388436484014715
_cell_angle_alpha    59.999998976971185
_cell_angle_beta     59.999998509707694
_cell_angle_gamma    60.000001445963456

_space_group_name_H-M_alt    "P 1"
_space_group_IT_number       1

loop_
  _space_group_symop_operation_xyz
  'x, y, z'

loop_
  _atom_site_type_symbol
  _atom_site_label
  _atom_site_symmetry_multiplicity
  _atom_site_fract_x
  _atom_site_fract_y
  _atom_site_fract_z
  _atom_site_occupancy
  Pb  Pb1       1.0  0.25000004830257677  0.2500000228311702  0.24999998753320854  1.0000
  Pb  Pb2       1.0  0.7499999328811272  0.7500000167010052  0.7500000172868834  1.0000
  N   N1        1.0  1.3724467412298615e-08  2.251847970572408e-08  0.9999999542991345  1.0000
  F   F1        1.0  0.22662630756670307  0.2266264847308277  0.7733736134832532  1.0000
  F   F2        1.0  0.7733737685367741  0.7733733273647099  0.22662641898412378  1.0000
  F   F3        1.0  0.7733734970395916  0.22662663678682568  0.22662653313343384  1.0000
  F   F4        1.0  0.22662643050821552  0.7733735063303526  0.7733734834846266  1.0000
  F   F5        1.0  0.2266264348689603  0.7733734440341483  0.22662657831793087  1.0000
  F   F6        1.0  0.7733736049252873  0.2266265279425905  0.7733734236201033  1.0000
