data_image0
_chemical_formula_structural       Pb2NO6
_chemical_formula_sum              "Pb2 N1 O6"
_cell_length_a       5.005375666373812
_cell_length_b       5.005375592648474
_cell_length_c       5.00537559631023
_cell_angle_alpha    60.00000046885303
_cell_angle_beta     60.00000079121828
_cell_angle_gamma    59.99999991153971

_space_group_name_H-M_alt    "P 1"
_space_group_IT_number       1

loop_
  _space_group_symop_operation_xyz
  'x, y, z'

loop_
  _atom_site_type_symbol
  _atom_site_label
  _atom_site_symmetry_multiplicity
  _atom_site_fract_x
  _atom_site_fract_y
  _atom_site_fract_z
  _atom_site_occupancy
  Pb  Pb1       1.0  0.2499999540366912  0.2500000196511907  0.25000001307840225  1.0000
  Pb  Pb2       1.0  0.749999940429453  0.7500000246975447  0.7500000072142705  1.0000
  N   N1        1.0  9.407160802483411e-07  0.99999970393005  0.9999997575910189  1.0000
  O   O1        1.0  0.2380280966078343  0.23802806647452734  0.7619719106840316  1.0000
  O   O2        1.0  0.761971671753508  0.7619715741424611  0.23802837652476583  1.0000
  O   O3        1.0  0.7619716774812513  0.23802833078872315  0.23802838011296024  1.0000
  O   O4        1.0  0.23802809350254434  0.7619719386710488  0.7619719050259961  1.0000
  O   O5        1.0  0.23802805655029216  0.7619719682014467  0.23802802489866906  1.0000
  O   O6        1.0  0.7619715815156229  0.23802841626069918  0.7619715779412243  1.0000
