data_image0
_chemical_formula_structural       Pb2PCl6
_chemical_formula_sum              "Pb2 P1 Cl6"
_cell_length_a       7.084824967994931
_cell_length_b       7.084825445332343
_cell_length_c       7.084825394526384
_cell_angle_alpha    59.999999742207976
_cell_angle_beta     60.00000187707243
_cell_angle_gamma    60.00000091285443

_space_group_name_H-M_alt    "P 1"
_space_group_IT_number       1

loop_
  _space_group_symop_operation_xyz
  'x, y, z'

loop_
  _atom_site_type_symbol
  _atom_site_label
  _atom_site_symmetry_multiplicity
  _atom_site_fract_x
  _atom_site_fract_y
  _atom_site_fract_z
  _atom_site_occupancy
  Pb  Pb1       1.0  0.2500000571246222  0.24999995757709237  0.2499999669456381  1.0000
  Pb  Pb2       1.0  0.7500000909363488  0.7499998744599649  0.7499999444257294  1.0000
  P   P1        1.0  0.9999995585750361  3.8549729729125307e-07  1.0700599276279471e-07  1.0000
  Cl  Cl1       1.0  0.25000083988256483  0.2500007530304398  0.7499991881065766  1.0000
  Cl  Cl2       1.0  0.7499992113408998  0.7499992570614198  0.2500008421519544  1.0000
  Cl  Cl3       1.0  0.749999327530102  0.2500006452670856  0.2500007282036833  1.0000
  Cl  Cl4       1.0  0.25000084998348937  0.7499991521962259  0.749999026232433  1.0000
  Cl  Cl5       1.0  0.2500008822210721  0.7499992072570514  0.25000091873019537  1.0000
  Cl  Cl6       1.0  0.7499991654800845  0.2500007596176192  0.749999301451236  1.0000
