data_image0
_chemical_formula_structural       Pb2PF6
_chemical_formula_sum              "Pb2 P1 F6"
_cell_length_a       5.878814088997533
_cell_length_b       5.878813753901647
_cell_length_c       5.8788140794107
_cell_angle_alpha    59.999998811981314
_cell_angle_beta     60.00000005248722
_cell_angle_gamma    59.99999732495046

_space_group_name_H-M_alt    "P 1"
_space_group_IT_number       1

loop_
  _space_group_symop_operation_xyz
  'x, y, z'

loop_
  _atom_site_type_symbol
  _atom_site_label
  _atom_site_symmetry_multiplicity
  _atom_site_fract_x
  _atom_site_fract_y
  _atom_site_fract_z
  _atom_site_occupancy
  Pb  Pb1       1.0  0.24999995768158978  0.24999994779605217  0.25000016249311424  1.0000
  Pb  Pb2       1.0  0.7500000992785439  0.7500000308869293  0.7499995848945215  1.0000
  P   P1        1.0  6.390891960771896e-08  0.9999997729181428  1.4282330817812122e-07  1.0000
  F   F1        1.0  0.25039724960063364  0.25039714260907786  0.7496027643860032  1.0000
  F   F2        1.0  0.7496028430107163  0.749602923573337  0.25039728884735113  1.0000
  F   F3        1.0  0.7496027673456274  0.25039716971199455  0.25039736119141903  1.0000
  F   F4        1.0  0.2503971738065831  0.7496028735539051  0.7496028234563695  1.0000
  F   F5        1.0  0.25039707892403573  0.749602828242547  0.250397186354944  1.0000
  F   F6        1.0  0.7496027543756467  0.25039730877274213  0.7496026889540717  1.0000
