data_image0
_chemical_formula_structural       Pb2PBr6
_chemical_formula_sum              "Pb2 P1 Br6"
_cell_length_a       7.399631292153908
_cell_length_b       7.399631235995922
_cell_length_c       7.399631260062983
_cell_angle_alpha    60.00000003650158
_cell_angle_beta     59.999999901512005
_cell_angle_gamma    59.999999796982046

_space_group_name_H-M_alt    "P 1"
_space_group_IT_number       1

loop_
  _space_group_symop_operation_xyz
  'x, y, z'

loop_
  _atom_site_type_symbol
  _atom_site_label
  _atom_site_symmetry_multiplicity
  _atom_site_fract_x
  _atom_site_fract_y
  _atom_site_fract_z
  _atom_site_occupancy
  Pb  Pb1       1.0  0.25000003541198595  0.24999998449664151  0.2499999912079609  1.0000
  Pb  Pb2       1.0  0.7500000350838317  0.7499999750067853  0.7499999997929342  1.0000
  P   P1        1.0  2.3501917598950637e-08  0.9999999950345706  0.9999999718118942  1.0000
  Br  Br1       1.0  0.25422315058161815  0.2542231761225841  0.7457768350999571  1.0000
  Br  Br2       1.0  0.7457768268990578  0.7457768330351363  0.254223170824269  1.0000
  Br  Br3       1.0  0.7457768132330934  0.25422319822637096  0.25422316510301823  1.0000
  Br  Br4       1.0  0.25422314348799574  0.7457768357584963  0.745776859058708  1.0000
  Br  Br5       1.0  0.2542231431809917  0.7457768262304344  0.2542231753983809  1.0000
  Br  Br6       1.0  0.7457768318250902  0.25422317630671354  0.7457768310191726  1.0000
