data_image0
_chemical_formula_structural       Pb2RhCl6
_chemical_formula_sum              "Pb2 Rh1 Cl6"
_cell_length_a       6.893908558788296
_cell_length_b       6.89390868215268
_cell_length_c       6.893908941614876
_cell_angle_alpha    59.99999841209217
_cell_angle_beta     59.99999808421662
_cell_angle_gamma    60.000000919998016

_space_group_name_H-M_alt    "P 1"
_space_group_IT_number       1

loop_
  _space_group_symop_operation_xyz
  'x, y, z'

loop_
  _atom_site_type_symbol
  _atom_site_label
  _atom_site_symmetry_multiplicity
  _atom_site_fract_x
  _atom_site_fract_y
  _atom_site_fract_z
  _atom_site_occupancy
  Pb  Pb1       1.0  0.2499999791958934  0.24999998758364533  0.24999999248740343  1.0000
  Pb  Pb2       1.0  0.7500000647828658  0.7499999680806211  0.7499999344086684  1.0000
  Rh  Rh1       1.0  7.0713801982751825e-09  3.9084340917414493e-08  0.9999998681304499  1.0000
  Cl  Cl1       1.0  0.2419111621488309  0.24191120779604702  0.7580888938028574  1.0000
  Cl  Cl2       1.0  0.7580888194152166  0.7580888295900199  0.2419112990452832  1.0000
  Cl  Cl3       1.0  0.7580887411533301  0.24191131837551882  0.2419112524821558  1.0000
  Cl  Cl4       1.0  0.24191120234240993  0.7580887829667414  0.7580886982342161  1.0000
  Cl  Cl5       1.0  0.24191126960928697  0.7580886426946228  0.24191136713058073  1.0000
  Cl  Cl6       1.0  0.7580887538316898  0.24191121881191385  0.7580886983443754  1.0000
