data_image0
_chemical_formula_structural       Pb2RuBr6
_chemical_formula_sum              "Pb2 Ru1 Br6"
_cell_length_a       7.27615471558829
_cell_length_b       7.276154659692301
_cell_length_c       7.276154641158993
_cell_angle_alpha    60.00000003463833
_cell_angle_beta     59.999999773981486
_cell_angle_gamma    59.999999644048856

_space_group_name_H-M_alt    "P 1"
_space_group_IT_number       1

loop_
  _space_group_symop_operation_xyz
  'x, y, z'

loop_
  _atom_site_type_symbol
  _atom_site_label
  _atom_site_symmetry_multiplicity
  _atom_site_fract_x
  _atom_site_fract_y
  _atom_site_fract_z
  _atom_site_occupancy
  Pb  Pb1       1.0  0.24999996234462912  0.2499999852311013  0.24999999611098367  1.0000
  Pb  Pb2       1.0  0.749999967102729  0.7500000011405396  0.7500000781280194  1.0000
  Ru  Ru1       1.0  4.412971742887941e-08  4.376400433313928e-08  0.9999997732642806  1.0000
  Br  Br1       1.0  0.24332168383684205  0.24332165782412152  0.7566783649886254  1.0000
  Br  Br2       1.0  0.7566783236606152  0.7566783133984406  0.24332167505116256  1.0000
  Br  Br3       1.0  0.7566783005492942  0.24332171007086786  0.24332166012806955  1.0000
  Br  Br4       1.0  0.24332161576772848  0.756678382344323  0.7566783813978496  1.0000
  Br  Br5       1.0  0.2433217342132026  0.7566782738114641  0.24332167854087342  1.0000
  Br  Br6       1.0  0.7566783703147053  0.2433216300818598  0.7566783892532299  1.0000
