data_image0
_chemical_formula_structural       Pb2RuCl6
_chemical_formula_sum              "Pb2 Ru1 Cl6"
_cell_length_a       6.913231550748819
_cell_length_b       6.913231684124882
_cell_length_c       6.913231429729759
_cell_angle_alpha    60.00000114654449
_cell_angle_beta     60.00000306135659
_cell_angle_gamma    59.99999748629416

_space_group_name_H-M_alt    "P 1"
_space_group_IT_number       1

loop_
  _space_group_symop_operation_xyz
  'x, y, z'

loop_
  _atom_site_type_symbol
  _atom_site_label
  _atom_site_symmetry_multiplicity
  _atom_site_fract_x
  _atom_site_fract_y
  _atom_site_fract_z
  _atom_site_occupancy
  Pb  Pb1       1.0  0.2500000496681212  0.24999991405665808  0.25000002922272924  1.0000
  Pb  Pb2       1.0  0.7499999649640562  0.7500001088902097  0.7499999601656813  1.0000
  Ru  Ru1       1.0  0.9999999865826547  2.6573929246663836e-07  1.6892534290416244e-07  1.0000
  Cl  Cl1       1.0  0.24278093985435392  0.24278082142892898  0.7572191151431863  1.0000
  Cl  Cl2       1.0  0.7572189537103797  0.7572190686482972  0.24278094913970863  1.0000
  Cl  Cl3       1.0  0.7572193241863757  0.24278066302432907  0.24278078547064835  1.0000
  Cl  Cl4       1.0  0.24278102499620238  0.7572190126898473  0.7572190149812041  1.0000
  Cl  Cl5       1.0  0.24278068109774728  0.7572192641794977  0.24278077481406687  1.0000
  Cl  Cl6       1.0  0.7572190750613108  0.24278088277905327  0.7572192239449947  1.0000
