data_image0
_chemical_formula_structural       Pb2SbBr6
_chemical_formula_sum              "Pb2 Sb1 Br6"
_cell_length_a       7.576267327313773
_cell_length_b       7.576267092045555
_cell_length_c       7.5762674023218555
_cell_angle_alpha    59.99999880026493
_cell_angle_beta     59.999999077270054
_cell_angle_gamma    59.99999952450361

_space_group_name_H-M_alt    "P 1"
_space_group_IT_number       1

loop_
  _space_group_symop_operation_xyz
  'x, y, z'

loop_
  _atom_site_type_symbol
  _atom_site_label
  _atom_site_symmetry_multiplicity
  _atom_site_fract_x
  _atom_site_fract_y
  _atom_site_fract_z
  _atom_site_occupancy
  Pb  Pb1       1.0  0.2500000447122362  0.25000004569543843  0.24999999208860665  1.0000
  Pb  Pb2       1.0  0.7499999529403154  0.7499999948295151  0.750000089155704  1.0000
  Sb  Sb1       1.0  2.5352300646070437e-08  1.8913688015778786e-07  0.9999999151938996  1.0000
  Br  Br1       1.0  0.2569448131098146  0.256944715902415  0.7430552316927452  1.0000
  Br  Br2       1.0  0.7430551289540257  0.743055175899521  0.25694483159551273  1.0000
  Br  Br3       1.0  0.7430552136015343  0.2569448389169022  0.256944730627084  1.0000
  Br  Br4       1.0  0.25694480999248  0.7430551466451971  0.7430552159779594  1.0000
  Br  Br5       1.0  0.2569448044126902  0.7430551446976618  0.2569448062058853  1.0000
  Br  Br6       1.0  0.7430552050655926  0.2569447551870474  0.7430551810563408  1.0000
