data_image0
_chemical_formula_structural       Pb2SbTe6
_chemical_formula_sum              "Pb2 Sb1 Te6"
_cell_length_a       7.590883368639032
_cell_length_b       7.590883496982878
_cell_length_c       7.59088344491416
_cell_angle_alpha    59.99999974887926
_cell_angle_beta     59.99999944332542
_cell_angle_gamma    60.000000706505666

_space_group_name_H-M_alt    "P 1"
_space_group_IT_number       1

loop_
  _space_group_symop_operation_xyz
  'x, y, z'

loop_
  _atom_site_type_symbol
  _atom_site_label
  _atom_site_symmetry_multiplicity
  _atom_site_fract_x
  _atom_site_fract_y
  _atom_site_fract_z
  _atom_site_occupancy
  Pb  Pb1       1.0  0.24999997458907003  0.24999996096460647  0.25000004111150836  1.0000
  Pb  Pb2       1.0  0.7500000571975319  0.7500000119691642  0.7499999328000537  1.0000
  Sb  Sb1       1.0  1.0816889898281231e-08  1.7747859893129465e-08  0.999999967274449  1.0000
  Te  Te1       1.0  0.27244922702719987  0.2724492508167616  0.7275507655714146  1.0000
  Te  Te2       1.0  0.7275507628574105  0.727550765679937  0.27244926810868636  1.0000
  Te  Te3       1.0  0.727550749591796  0.272449230984045  0.2724492714769871  1.0000
  Te  Te4       1.0  0.2724492313503574  0.7275507758320029  0.7275507412151643  1.0000
  Te  Te5       1.0  0.27244920690116403  0.7275507746856297  0.27244927273350916  1.0000
  Te  Te6       1.0  0.7275507748556259  0.2724492159960003  0.7275507463011632  1.0000
