data_image0
_chemical_formula_structural       Pb2SbO6
_chemical_formula_sum              "Pb2 Sb1 O6"
_cell_length_a       5.760597505833011
_cell_length_b       5.760597355208008
_cell_length_c       5.760597165644564
_cell_angle_alpha    59.99999890680135
_cell_angle_beta     59.99999980361943
_cell_angle_gamma    59.999998357710496

_space_group_name_H-M_alt    "P 1"
_space_group_IT_number       1

loop_
  _space_group_symop_operation_xyz
  'x, y, z'

loop_
  _atom_site_type_symbol
  _atom_site_label
  _atom_site_symmetry_multiplicity
  _atom_site_fract_x
  _atom_site_fract_y
  _atom_site_fract_z
  _atom_site_occupancy
  Pb  Pb1       1.0  0.24999998507195992  0.24999997922921616  0.2500000057035443  1.0000
  Pb  Pb2       1.0  0.7500000469147501  0.7499999993437557  0.7500000220219053  1.0000
  Sb  Sb1       1.0  0.9999999847735767  2.763894574125828e-08  0.9999999833781518  1.0000
  O   O1        1.0  0.24520283294389836  0.2452029683415052  0.7547970816707474  1.0000
  O   O2        1.0  0.7547971830069689  0.7547970102314676  0.24520289331503356  1.0000
  O   O3        1.0  0.7547970500077513  0.24520292853580847  0.2452029007454087  1.0000
  O   O4        1.0  0.245202971612643  0.7547970330285826  0.7547970885895555  1.0000
  O   O5        1.0  0.24520292767281396  0.754797113778899  0.24520291083094928  1.0000
  O   O6        1.0  0.7547970887435588  0.2452028754244369  0.7547970985333134  1.0000
