data_image0
_chemical_formula_structural       Pb2SbI6
_chemical_formula_sum              "Pb2 Sb1 I6"
_cell_length_a       8.105774058116893
_cell_length_b       8.105774048237313
_cell_length_c       8.105774126535364
_cell_angle_alpha    59.999999723377805
_cell_angle_beta     59.99999978628484
_cell_angle_gamma    60.00000084728847

_space_group_name_H-M_alt    "P 1"
_space_group_IT_number       1

loop_
  _space_group_symop_operation_xyz
  'x, y, z'

loop_
  _atom_site_type_symbol
  _atom_site_label
  _atom_site_symmetry_multiplicity
  _atom_site_fract_x
  _atom_site_fract_y
  _atom_site_fract_z
  _atom_site_occupancy
  Pb  Pb1       1.0  0.24999998347344743  0.24999998485545308  0.25000000946881173  1.0000
  Pb  Pb2       1.0  0.7500000125668319  0.7500000074497369  0.74999998816314  1.0000
  Sb  Sb1       1.0  5.6981629269676735e-09  5.606621458850359e-17  0.999999950270757  1.0000
  I   I1        1.0  0.25982561642816426  0.25982561227541434  0.7401743850548352  1.0000
  I   I2        1.0  0.7401743813674814  0.7401743875845437  0.25982562395999914  1.0000
  I   I3        1.0  0.7401743498275406  0.25982565264062557  0.2598256462004753  1.0000
  I   I4        1.0  0.25982562952066235  0.7401743683726832  0.7401743762656667  1.0000
  I   I5        1.0  0.2598256496175114  0.7401743455935956  0.2598256509806921  1.0000
  I   I6        1.0  0.7401743678772917  0.2598256421787338  0.7401743702663279  1.0000
