data_image0
_chemical_formula_structural       Pb2SbCl6
_chemical_formula_sum              "Pb2 Sb1 Cl6"
_cell_length_a       7.247373743351752
_cell_length_b       7.247373530068337
_cell_length_c       7.24737379405853
_cell_angle_alpha    60.00000077273934
_cell_angle_beta     59.99999945621939
_cell_angle_gamma    60.0000045162819

_space_group_name_H-M_alt    "P 1"
_space_group_IT_number       1

loop_
  _space_group_symop_operation_xyz
  'x, y, z'

loop_
  _atom_site_type_symbol
  _atom_site_label
  _atom_site_symmetry_multiplicity
  _atom_site_fract_x
  _atom_site_fract_y
  _atom_site_fract_z
  _atom_site_occupancy
  Pb  Pb1       1.0  0.24999987043029195  0.2500001904403199  0.24999997864031961  1.0000
  Pb  Pb2       1.0  0.7500000970995928  0.7500001606715341  0.7499999107595974  1.0000
  Sb  Sb1       1.0  0.999999859792459  0.9999999999999896  0.9999999459208616  1.0000
  Cl  Cl1       1.0  0.25435209479194154  0.2543520946815868  0.7456478858275251  1.0000
  Cl  Cl2       1.0  0.7456480331169142  0.7456478947883702  0.2543520407325819  1.0000
  Cl  Cl3       1.0  0.7456477929751605  0.2543521522795236  0.254352253454596  1.0000
  Cl  Cl4       1.0  0.2543521722934349  0.7456477324156683  0.7456478426880866  1.0000
  Cl  Cl5       1.0  0.2543523512602866  0.7456475873178751  0.2543523605025393  1.0000
  Cl  Cl6       1.0  0.7456477292565509  0.2543521858429049  0.7456477765573409  1.0000
