data_image0
_chemical_formula_structural       Pb2TlBr6
_chemical_formula_sum              "Pb2 Tl1 Br6"
_cell_length_a       7.448078236025472
_cell_length_b       7.448078265769323
_cell_length_c       7.448078294943342
_cell_angle_alpha    60.000000602628674
_cell_angle_beta     60.00000054123244
_cell_angle_gamma    60.00000068963468

_space_group_name_H-M_alt    "P 1"
_space_group_IT_number       1

loop_
  _space_group_symop_operation_xyz
  'x, y, z'

loop_
  _atom_site_type_symbol
  _atom_site_label
  _atom_site_symmetry_multiplicity
  _atom_site_fract_x
  _atom_site_fract_y
  _atom_site_fract_z
  _atom_site_occupancy
  Pb  Pb1       1.0  0.249999979131555  0.2499999932499006  0.25000003181804153  1.0000
  Pb  Pb2       1.0  0.7499999765748137  0.7500000389472734  0.749999897233534  1.0000
  Tl  Tl1       1.0  5.025284119847032e-08  0.9999999934224918  0.9999999123735517  1.0000
  Br  Br1       1.0  0.2605817570983588  0.2605817345891314  0.7394182578583397  1.0000
  Br  Br2       1.0  0.7394182567388338  0.7394182301885861  0.26058179130357784  1.0000
  Br  Br3       1.0  0.7394182222390058  0.2605817395210706  0.2605818134874676  1.0000
  Br  Br4       1.0  0.26058174176715715  0.739418291031727  0.7394182599255018  1.0000
  Br  Br5       1.0  0.2605817550054644  0.7394182210905149  0.26058178726684617  1.0000
  Br  Br6       1.0  0.7394182673975166  0.2605817551978416  0.7394182384305759  1.0000
