data_image0
_chemical_formula_structural       Pb2TlI6
_chemical_formula_sum              "Pb2 Tl1 I6"
_cell_length_a       7.944305706062374
_cell_length_b       7.9443057170154745
_cell_length_c       7.944305710717296
_cell_angle_alpha    59.999998389145965
_cell_angle_beta     60.00000023093081
_cell_angle_gamma    60.00000007934452

_space_group_name_H-M_alt    "P 1"
_space_group_IT_number       1

loop_
  _space_group_symop_operation_xyz
  'x, y, z'

loop_
  _atom_site_type_symbol
  _atom_site_label
  _atom_site_symmetry_multiplicity
  _atom_site_fract_x
  _atom_site_fract_y
  _atom_site_fract_z
  _atom_site_occupancy
  Pb  Pb1       1.0  0.2500000751014139  0.24999995724856833  0.24999998430665243  1.0000
  Pb  Pb2       1.0  0.749999957080247  0.7500000397870626  0.7499999463669276  1.0000
  Tl  Tl1       1.0  5.5645982956459684e-09  0.9999999876666887  2.98183846794445e-08  1.0000
  I   I1        1.0  0.263718372083037  0.26371831385325817  0.7362816667653002  1.0000
  I   I2        1.0  0.7362816347720321  0.7362817155573119  0.2637183371686635  1.0000
  I   I3        1.0  0.7362815985875913  0.2637183459981537  0.263718374668491  1.0000
  I   I4        1.0  0.2637183976975514  0.7362816279125182  0.7362816459364635  1.0000
  I   I5        1.0  0.26371835172277014  0.7362816140045332  0.2637183586158485  1.0000
  I   I6        1.0  0.7362816104266436  0.26371839690607074  0.7362816567807141  1.0000
