data_image0
_chemical_formula_structural       Pb2TlCl6
_chemical_formula_sum              "Pb2 Tl1 Cl6"
_cell_length_a       7.139048364368329
_cell_length_b       7.139048387213857
_cell_length_c       7.139048469906103
_cell_angle_alpha    59.99999990764352
_cell_angle_beta     60.00000001933737
_cell_angle_gamma    60.00000041336055

_space_group_name_H-M_alt    "P 1"
_space_group_IT_number       1

loop_
  _space_group_symop_operation_xyz
  'x, y, z'

loop_
  _atom_site_type_symbol
  _atom_site_label
  _atom_site_symmetry_multiplicity
  _atom_site_fract_x
  _atom_site_fract_y
  _atom_site_fract_z
  _atom_site_occupancy
  Pb  Pb1       1.0  0.2500000332211097  0.25000004797058734  0.2499999504150579  1.0000
  Pb  Pb2       1.0  0.7500000069337679  0.7499999174581586  0.7500000234434773  1.0000
  Tl  Tl1       1.0  2.0536190205332996e-08  2.5733364106923798e-08  7.681654738739422e-09  1.0000
  Cl  Cl1       1.0  0.25851524585409436  0.2585152634397606  0.7414847525305743  1.0000
  Cl  Cl2       1.0  0.7414846453166124  0.7414846831178511  0.25851536968997046  1.0000
  Cl  Cl3       1.0  0.74148472276114  0.25851528075613245  0.25851533081265804  1.0000
  Cl  Cl4       1.0  0.258515370867478  0.741484679525941  0.7414846048748748  1.0000
  Cl  Cl5       1.0  0.2585152787556678  0.7414847543460454  0.2585153306345796  1.0000
  Cl  Cl6       1.0  0.7414846718819265  0.2585153534739806  0.7414846279929322  1.0000
