data_image0
_chemical_formula_structural       Pb2TaBr6
_chemical_formula_sum              "Pb2 Ta1 Br6"
_cell_length_a       7.582412802470491
_cell_length_b       7.582413303135221
_cell_length_c       7.582412592012058
_cell_angle_alpha    59.99999976476308
_cell_angle_beta     60.00000178090658
_cell_angle_gamma    59.999999047566114

_space_group_name_H-M_alt    "P 1"
_space_group_IT_number       1

loop_
  _space_group_symop_operation_xyz
  'x, y, z'

loop_
  _atom_site_type_symbol
  _atom_site_label
  _atom_site_symmetry_multiplicity
  _atom_site_fract_x
  _atom_site_fract_y
  _atom_site_fract_z
  _atom_site_occupancy
  Pb  Pb1       1.0  0.2500000446173668  0.25000000602499084  0.24999999822520821  1.0000
  Pb  Pb2       1.0  0.7499999711666263  0.7500000309969322  0.7500000088906739  1.0000
  Ta  Ta1       1.0  5.353264003643078e-08  0.9999999079310897  0.999999825398445  1.0000
  Br  Br1       1.0  0.23932305837963536  0.2393229327463788  0.7606770234344616  1.0000
  Br  Br2       1.0  0.7606769556677562  0.7606770089761413  0.23932298208345013  1.0000
  Br  Br3       1.0  0.7606770294749994  0.23932293354693754  0.23932301282718893  1.0000
  Br  Br4       1.0  0.23932283475860766  0.7606772246182966  0.7606771215937497  1.0000
  Br  Br5       1.0  0.23932288841718571  0.7606770409081137  0.23932296696596686  1.0000
  Br  Br6       1.0  0.7606771542110173  0.23932289273818333  0.7606770652272117  1.0000
