data_image0
_chemical_formula_structural       Pb2TaI6
_chemical_formula_sum              "Pb2 Ta1 I6"
_cell_length_a       8.092994728404161
_cell_length_b       8.092994754344105
_cell_length_c       8.092994648989247
_cell_angle_alpha    59.99999909717222
_cell_angle_beta     60.000000517178506
_cell_angle_gamma    59.99999891651758

_space_group_name_H-M_alt    "P 1"
_space_group_IT_number       1

loop_
  _space_group_symop_operation_xyz
  'x, y, z'

loop_
  _atom_site_type_symbol
  _atom_site_label
  _atom_site_symmetry_multiplicity
  _atom_site_fract_x
  _atom_site_fract_y
  _atom_site_fract_z
  _atom_site_occupancy
  Pb  Pb1       1.0  0.25000000421752705  0.24999999527039243  0.25000002843601987  1.0000
  Pb  Pb2       1.0  0.7499999697623262  0.7499999903511976  0.7500000254024377  1.0000
  Ta  Ta1       1.0  1.080847457891514e-08  3.178013232659119e-08  0.9999998341362197  1.0000
  I   I1        1.0  0.2446743546947585  0.24467432615450468  0.7553256612975279  1.0000
  I   I2        1.0  0.7553256178434544  0.7553256851938578  0.2446743482718132  1.0000
  I   I3        1.0  0.7553256448907691  0.24467433935513763  0.2446743837206027  1.0000
  I   I4        1.0  0.2446743114334559  0.7553256992333359  0.7553256611116825  1.0000
  I   I5        1.0  0.24467437777456313  0.7553256513305976  0.24467433810272105  1.0000
  I   I6        1.0  0.755325706011284  0.24467428737746563  0.7553257090022348  1.0000
