data_image0
_chemical_formula_structural       Pb2YSe6
_chemical_formula_sum              "Pb2 Y1 Se6"
_cell_length_a       7.199540643815899
_cell_length_b       7.199540553957655
_cell_length_c       7.199540749098089
_cell_angle_alpha    60.00000166158085
_cell_angle_beta     60.000000852446156
_cell_angle_gamma    60.000000536359956

_space_group_name_H-M_alt    "P 1"
_space_group_IT_number       1

loop_
  _space_group_symop_operation_xyz
  'x, y, z'

loop_
  _atom_site_type_symbol
  _atom_site_label
  _atom_site_symmetry_multiplicity
  _atom_site_fract_x
  _atom_site_fract_y
  _atom_site_fract_z
  _atom_site_occupancy
  Pb  Pb1       1.0  0.2500000114914494  0.25000003102749424  0.24999992296263018  1.0000
  Pb  Pb2       1.0  0.750000032128425  0.7499999076578906  0.7499999766692984  1.0000
  Y   Y1        1.0  0.9999999791666025  0.9999999710805674  2.652774546614847e-09  1.0000
  Se  Se1       1.0  0.2721860394951358  0.2721860565765187  0.727813954544451  1.0000
  Se  Se2       1.0  0.7278139990685228  0.727813979074025  0.2721860519205311  1.0000
  Se  Se3       1.0  0.7278140380780003  0.2721860312191982  0.27218601367631257  1.0000
  Se  Se4       1.0  0.27218598148407896  0.7278139074661905  0.7278140479940797  1.0000
  Se  Se5       1.0  0.272186060199743  0.7278139271739361  0.2721860532900283  1.0000
  Se  Se6       1.0  0.7278138630476905  0.27218615610861396  0.7278139953509278  1.0000
