data_image0
_chemical_formula_structural       Pb2YO6
_chemical_formula_sum              "Pb2 Y1 O6"
_cell_length_a       5.615804684427866
_cell_length_b       5.615804695201876
_cell_length_c       5.6158046958193575
_cell_angle_alpha    59.99999886126558
_cell_angle_beta     59.99999934719257
_cell_angle_gamma    59.9999997038571

_space_group_name_H-M_alt    "P 1"
_space_group_IT_number       1

loop_
  _space_group_symop_operation_xyz
  'x, y, z'

loop_
  _atom_site_type_symbol
  _atom_site_label
  _atom_site_symmetry_multiplicity
  _atom_site_fract_x
  _atom_site_fract_y
  _atom_site_fract_z
  _atom_site_occupancy
  Pb  Pb1       1.0  0.2500000683826395  0.24999998451362168  0.2499999510852727  1.0000
  Pb  Pb2       1.0  0.7499999894575401  0.7500000146057666  0.7499999465947552  1.0000
  Y   Y1        1.0  0.9999999809956316  2.6170673102591593e-08  0.9999999429961863  1.0000
  O   O1        1.0  0.27871951272534456  0.2787195293018196  0.721280499255075  1.0000
  O   O2        1.0  0.7212804439887044  0.7212804894455713  0.2787195709449816  1.0000
  O   O3        1.0  0.7212804217509314  0.2787195486830943  0.2787195724446795  1.0000
  O   O4        1.0  0.2787195921828782  0.7212804526171825  0.7212804208870149  1.0000
  O   O5        1.0  0.27871953700115754  0.7212804224382177  0.27871963130583227  1.0000
  O   O6        1.0  0.7212804499958881  0.2787195177971555  0.7212804683508012  1.0000
