data_image0
_chemical_formula_structural       Pb2YS6
_chemical_formula_sum              "Pb2 Y1 S6"
_cell_length_a       6.866158616688623
_cell_length_b       6.8661583030286
_cell_length_c       6.866158206659363
_cell_angle_alpha    60.00000028945019
_cell_angle_beta     60.0000013364958
_cell_angle_gamma    60.000002210569036

_space_group_name_H-M_alt    "P 1"
_space_group_IT_number       1

loop_
  _space_group_symop_operation_xyz
  'x, y, z'

loop_
  _atom_site_type_symbol
  _atom_site_label
  _atom_site_symmetry_multiplicity
  _atom_site_fract_x
  _atom_site_fract_y
  _atom_site_fract_z
  _atom_site_occupancy
  Pb  Pb1       1.0  0.24999999451536828  0.24999999640907478  0.2500000476642821  1.0000
  Pb  Pb2       1.0  0.7500000555718332  0.7499999749572978  0.7499999116727702  1.0000
  Y   Y1        1.0  4.3759909732894805e-08  0.9999999393528045  6.087470960818485e-08  1.0000
  S   S1        1.0  0.2733815283861423  0.2733816125504638  0.7266183802750934  1.0000
  S   S2        1.0  0.726618423939357  0.7266183998419508  0.2733815054804928  1.0000
  S   S3        1.0  0.7266183402643802  0.2733814295929287  0.2733817694990467  1.0000
  S   S4        1.0  0.27338160506617454  0.7266183616155915  0.7266184429830638  1.0000
  S   S5        1.0  0.27338157225528037  0.7266185041188978  0.27338159161478914  1.0000
  S   S6        1.0  0.7266184419325705  0.27338179188835066  0.7266182859774968  1.0000
