data_image0
_chemical_formula_structural       Pd2AsI6
_chemical_formula_sum              "Pd2 As1 I6"
_cell_length_a       7.667535890660264
_cell_length_b       7.667535928227545
_cell_length_c       7.667535961749986
_cell_angle_alpha    60.000000329355515
_cell_angle_beta     60.00000025639127
_cell_angle_gamma    59.99999976057795

_space_group_name_H-M_alt    "P 1"
_space_group_IT_number       1

loop_
  _space_group_symop_operation_xyz
  'x, y, z'

loop_
  _atom_site_type_symbol
  _atom_site_label
  _atom_site_symmetry_multiplicity
  _atom_site_fract_x
  _atom_site_fract_y
  _atom_site_fract_z
  _atom_site_occupancy
  Pd  Pd1       1.0  0.2500000414022293  0.24999997927226542  0.25000000585424975  1.0000
  Pd  Pd2       1.0  0.7499999915438003  0.7500000240716556  0.749999993815565  1.0000
  As  As1       1.0  0.9999999910399155  2.2362370629328537e-08  0.9999999202636599  1.0000
  I   I1        1.0  0.25960365632356086  0.259603638351865  0.7403963466435384  1.0000
  I   I2        1.0  0.7403963316263603  0.7403963554081833  0.25960367640366677  1.0000
  I   I3        1.0  0.7403963494852129  0.25960363469459813  0.2596036602886356  1.0000
  I   I4        1.0  0.25960361789802666  0.7403963846224454  0.7403963706970123  1.0000
  I   I5        1.0  0.2596036425546685  0.7403963431292863  0.2596036383455727  1.0000
  I   I6        1.0  0.7403963732333546  0.2596036122952689  0.740396392558728  1.0000
