data_image0
_chemical_formula_structural       Pd2AsS6
_chemical_formula_sum              "Pd2 As1 S6"
_cell_length_a       6.156479416239799
_cell_length_b       6.156479330960788
_cell_length_c       6.15647920369054
_cell_angle_alpha    59.99999901031758
_cell_angle_beta     60.00000040788586
_cell_angle_gamma    59.99999967399894

_space_group_name_H-M_alt    "P 1"
_space_group_IT_number       1

loop_
  _space_group_symop_operation_xyz
  'x, y, z'

loop_
  _atom_site_type_symbol
  _atom_site_label
  _atom_site_symmetry_multiplicity
  _atom_site_fract_x
  _atom_site_fract_y
  _atom_site_fract_z
  _atom_site_occupancy
  Pd  Pd1       1.0  0.24999973804616607  0.2499994147851103  0.25000062827094116  1.0000
  Pd  Pd2       1.0  0.7499998784683667  0.7500008484265592  0.7499990876098528  1.0000
  As  As1       1.0  0.9999999795765825  2.1882951295745533e-08  0.9999999960216229  1.0000
  S   S1        1.0  0.2651912009738618  0.2651907425278182  0.7348090406915951  1.0000
  S   S2        1.0  0.7348087663176044  0.7348092560990641  0.2651914604886809  1.0000
  S   S3        1.0  0.7348089524989344  0.2651904059179387  0.26519148742887494  1.0000
  S   S4        1.0  0.26519108819079623  0.7348093500071274  0.7348086565922176  1.0000
  S   S5        1.0  0.2651907005614814  0.734809341698759  0.2651912380072921  1.0000
  S   S6        1.0  0.7348096749640894  0.2651906250983888  0.7348083846411688  1.0000
