data_image0
_chemical_formula_structural       Pd2AsO6
_chemical_formula_sum              "Pd2 As1 O6"
_cell_length_a       5.312831679557981
_cell_length_b       5.312831888955243
_cell_length_c       5.312831830568507
_cell_angle_alpha    60.00000377179858
_cell_angle_beta     60.00000337807001
_cell_angle_gamma    60.000001273007996

_space_group_name_H-M_alt    "P 1"
_space_group_IT_number       1

loop_
  _space_group_symop_operation_xyz
  'x, y, z'

loop_
  _atom_site_type_symbol
  _atom_site_label
  _atom_site_symmetry_multiplicity
  _atom_site_fract_x
  _atom_site_fract_y
  _atom_site_fract_z
  _atom_site_occupancy
  Pd  Pd1       1.0  0.24999933951500913  0.2500002969715803  0.24999768822295565  1.0000
  Pd  Pd2       1.0  0.7499988884516672  0.750000178590217  0.7500027923241103  1.0000
  As  As1       1.0  1.892418213491539e-08  0.9999999953894823  0.9999999307294011  1.0000
  O   O1        1.0  0.2430860327767969  0.24308536644323658  0.7569152499486103  1.0000
  O   O2        1.0  0.7569144588750811  0.7569142123731527  0.24308475605673605  1.0000
  O   O3        1.0  0.7569149311639238  0.2430859817031159  0.24308529527248923  1.0000
  O   O4        1.0  0.24308574779356432  0.7569138045864947  0.7569147053314608  1.0000
  O   O5        1.0  0.24308633077398234  0.7569146944742015  0.2430851470828626  1.0000
  O   O6        1.0  0.7569142244453542  0.24308550215133085  0.7569144184757262  1.0000
