data_image0
_chemical_formula_structural       Pd2AsCl6
_chemical_formula_sum              "Pd2 As1 Cl6"
_cell_length_a       6.633512820030926
_cell_length_b       6.633512780451596
_cell_length_c       6.6335130586848665
_cell_angle_alpha    59.999998377235755
_cell_angle_beta     60.00000288838483
_cell_angle_gamma    59.999999147434245

_space_group_name_H-M_alt    "P 1"
_space_group_IT_number       1

loop_
  _space_group_symop_operation_xyz
  'x, y, z'

loop_
  _atom_site_type_symbol
  _atom_site_label
  _atom_site_symmetry_multiplicity
  _atom_site_fract_x
  _atom_site_fract_y
  _atom_site_fract_z
  _atom_site_occupancy
  Pd  Pd1       1.0  0.24999984452372026  0.2499999337830911  0.2500001182069856  1.0000
  Pd  Pd2       1.0  0.7500000017096656  0.7500001724553915  0.7500004204126427  1.0000
  As  As1       1.0  4.671855954333798e-08  0.9999999538425213  0.9999999846444927  1.0000
  Cl  Cl1       1.0  0.24945054754034104  0.24945049565986685  0.7505494722759901  1.0000
  Cl  Cl2       1.0  0.7505494242894817  0.7505495053395768  0.2494503265364712  1.0000
  Cl  Cl3       1.0  0.750549536458829  0.24945055132421143  0.2494504925796144  1.0000
  Cl  Cl4       1.0  0.2494504438452344  0.7505494921401108  0.7505493772430852  1.0000
  Cl  Cl5       1.0  0.24945059126132046  0.7505494476567106  0.24945047504816856  1.0000
  Cl  Cl6       1.0  0.7505495757932725  0.2494504481036795  0.7505493270113394  1.0000
