data_image0
_chemical_formula_structural       Pd2BF6
_chemical_formula_sum              "Pd2 B1 F6"
_cell_length_a       5.101197907487512
_cell_length_b       5.10119786489245
_cell_length_c       5.101197823186802
_cell_angle_alpha    60.00000004386219
_cell_angle_beta     60.000000707255694
_cell_angle_gamma    60.00000139509156

_space_group_name_H-M_alt    "P 1"
_space_group_IT_number       1

loop_
  _space_group_symop_operation_xyz
  'x, y, z'

loop_
  _atom_site_type_symbol
  _atom_site_label
  _atom_site_symmetry_multiplicity
  _atom_site_fract_x
  _atom_site_fract_y
  _atom_site_fract_z
  _atom_site_occupancy
  Pd  Pd1       1.0  0.25000006152403287  0.25000000288557234  0.24999997715976724  1.0000
  Pd  Pd2       1.0  0.750000019055629  0.7500000230620941  0.7500000070348478  1.0000
  B   B1        1.0  0.9999999717620381  1.6806275969516016e-08  0.9999999625887172  1.0000
  F   F1        1.0  0.22441557451154193  0.22441546078567057  0.7755845169005768  1.0000
  F   F2        1.0  0.7755844318052357  0.7755845027386828  0.22441552191486958  1.0000
  F   F3        1.0  0.7755844615108237  0.22441557120461464  0.22441548190908073  1.0000
  F   F4        1.0  0.22441550069932492  0.775584449941257  0.7755844736962889  1.0000
  F   F5        1.0  0.22441552547299817  0.7755844204798203  0.22441555504280122  1.0000
  F   F6        1.0  0.775584461432663  0.22441549262570398  0.7755844971240552  1.0000
