data_image0
_chemical_formula_structural       Pd2BiF6
_chemical_formula_sum              "Pd2 Bi1 F6"
_cell_length_a       5.767210568076099
_cell_length_b       5.767210099132414
_cell_length_c       5.76721043501599
_cell_angle_alpha    59.99999981494459
_cell_angle_beta     59.999998874865305
_cell_angle_gamma    59.999999675841806

_space_group_name_H-M_alt    "P 1"
_space_group_IT_number       1

loop_
  _space_group_symop_operation_xyz
  'x, y, z'

loop_
  _atom_site_type_symbol
  _atom_site_label
  _atom_site_symmetry_multiplicity
  _atom_site_fract_x
  _atom_site_fract_y
  _atom_site_fract_z
  _atom_site_occupancy
  Pd  Pd1       1.0  0.24999990764124572  0.25000000122401134  0.2500000439881152  1.0000
  Pd  Pd2       1.0  0.7500000185596388  0.7499999696938808  0.7500000496858021  1.0000
  Bi  Bi1       1.0  2.429071705688691e-10  0.999999987258189  0.9999999490294138  1.0000
  F   F1        1.0  0.25460226005617004  0.2546023669585057  0.7453976992119224  1.0000
  F   F2        1.0  0.7453977385459505  0.7453976570502601  0.2546023091747126  1.0000
  F   F3        1.0  0.7453977474879667  0.25460232300368096  0.25460230795162037  1.0000
  F   F4        1.0  0.25460233474082644  0.7453976903869118  0.7453976778022877  1.0000
  F   F5        1.0  0.25460229498362963  0.7453977175444583  0.25460228277354197  1.0000
  F   F6        1.0  0.7453977074007888  0.2546022831043221  0.7453976868516011  1.0000
