data_image0
_chemical_formula_structural       Pd2BI6
_chemical_formula_sum              "Pd2 B1 I6"
_cell_length_a       7.260173569315805
_cell_length_b       7.260173953208763
_cell_length_c       7.260173482050328
_cell_angle_alpha    60.00000441563808
_cell_angle_beta     60.00000175788454
_cell_angle_gamma    59.999997741168315

_space_group_name_H-M_alt    "P 1"
_space_group_IT_number       1

loop_
  _space_group_symop_operation_xyz
  'x, y, z'

loop_
  _atom_site_type_symbol
  _atom_site_label
  _atom_site_symmetry_multiplicity
  _atom_site_fract_x
  _atom_site_fract_y
  _atom_site_fract_z
  _atom_site_occupancy
  Pd  Pd1       1.0  0.25000004170435086  0.25000014419350175  0.24999989310605264  1.0000
  Pd  Pd2       1.0  0.7500000002471823  0.749999891074079  0.7500000056174078  1.0000
  B   B1        1.0  4.3066275291853714e-08  2.715966800601399e-07  0.9999997407425883  1.0000
  I   I1        1.0  0.23872156164757694  0.23872141965424445  0.7612785899925725  1.0000
  I   I2        1.0  0.7612784619600138  0.7612784654760437  0.23872159269124824  1.0000
  I   I3        1.0  0.761278437021121  0.23872150573418088  0.23872146548576126  1.0000
  I   I4        1.0  0.2387214472352406  0.7612784586821019  0.7612785860775029  1.0000
  I   I5        1.0  0.2387214771534769  0.761278442866802  0.23872150110224558  1.0000
  I   I6        1.0  0.7612785176660106  0.23872139502927978  0.7612786094025242  1.0000
