data_image0
_chemical_formula_structural       Pd2BiCl6
_chemical_formula_sum              "Pd2 Bi1 Cl6"
_cell_length_a       6.866984898143639
_cell_length_b       6.866984800897264
_cell_length_c       6.866984994759639
_cell_angle_alpha    60.00000099262521
_cell_angle_beta     60.00000113552749
_cell_angle_gamma    59.999998012247474

_space_group_name_H-M_alt    "P 1"
_space_group_IT_number       1

loop_
  _space_group_symop_operation_xyz
  'x, y, z'

loop_
  _atom_site_type_symbol
  _atom_site_label
  _atom_site_symmetry_multiplicity
  _atom_site_fract_x
  _atom_site_fract_y
  _atom_site_fract_z
  _atom_site_occupancy
  Pd  Pd1       1.0  0.2499999067194167  0.24999996153581028  0.25000006563740423  1.0000
  Pd  Pd2       1.0  0.7499999550442105  0.7499999416802694  0.7500000494765737  1.0000
  Bi  Bi1       1.0  4.2717128127735876e-08  2.3185841257794642e-08  0.9999999131675189  1.0000
  Cl  Cl1       1.0  0.25828701803677107  0.2582870283407597  0.7417128665042564  1.0000
  Cl  Cl2       1.0  0.7417129684801876  0.7417130050727421  0.25828698133500383  1.0000
  Cl  Cl3       1.0  0.7417131223560935  0.25828702899264644  0.2582869966612041  1.0000
  Cl  Cl4       1.0  0.2582870169086223  0.7417129598326953  0.7417130635907588  1.0000
  Cl  Cl5       1.0  0.25828697093917596  0.7417130592111213  0.25828700165635055  1.0000
  Cl  Cl6       1.0  0.741712997267514  0.25828699382117487  0.7417130566839065  1.0000
