data_image0
_chemical_formula_structural       Pd2GaF6
_chemical_formula_sum              "Pd2 Ga1 F6"
_cell_length_a       5.284761412226466
_cell_length_b       5.284761267782917
_cell_length_c       5.284761717541317
_cell_angle_alpha    59.99999470552749
_cell_angle_beta     59.99999541828607
_cell_angle_gamma    59.99999687554858

_space_group_name_H-M_alt    "P 1"
_space_group_IT_number       1

loop_
  _space_group_symop_operation_xyz
  'x, y, z'

loop_
  _atom_site_type_symbol
  _atom_site_label
  _atom_site_symmetry_multiplicity
  _atom_site_fract_x
  _atom_site_fract_y
  _atom_site_fract_z
  _atom_site_occupancy
  Pd  Pd1       1.0  0.25000041270597473  0.2499998731911387  0.2500001730181434  1.0000
  Pd  Pd2       1.0  0.74999962668302  0.750000442286939  0.7499998689025764  1.0000
  Ga  Ga1       1.0  5.049647830149894e-08  2.549253123662169e-08  1.742384671499143e-09  1.0000
  F   F1        1.0  0.25161411099759795  0.2516137685589709  0.7483859581747561  1.0000
  F   F2        1.0  0.7483859235407004  0.7483862665012655  0.2516139255152065  1.0000
  F   F3        1.0  0.7483858299508825  0.25161369839692566  0.2516141945171763  1.0000
  F   F4        1.0  0.251613961882451  0.74838619297813  0.7483859296736891  1.0000
  F   F5        1.0  0.25161401038574244  0.7483860744641224  0.2516138185885325  1.0000
  F   F6        1.0  0.7483860560485973  0.2516137010357936  0.7483861467656143  1.0000
