data_image0
_chemical_formula_structural       Pd2GaF6
_chemical_formula_sum              "Pd2 Ga1 F6"
_cell_length_a       5.28210717682375
_cell_length_b       5.282107201015211
_cell_length_c       5.2821071495593435
_cell_angle_alpha    60.00000011518761
_cell_angle_beta     60.000000286168024
_cell_angle_gamma    59.999999128472126

_space_group_name_H-M_alt    "P 1"
_space_group_IT_number       1

loop_
  _space_group_symop_operation_xyz
  'x, y, z'

loop_
  _atom_site_type_symbol
  _atom_site_label
  _atom_site_symmetry_multiplicity
  _atom_site_fract_x
  _atom_site_fract_y
  _atom_site_fract_z
  _atom_site_occupancy
  Pd  Pd1       1.0  0.24999997189933404  0.2499999504625337  0.250000054779703  1.0000
  Pd  Pd2       1.0  0.7500000098500526  0.7500000345623097  0.7499998874733076  1.0000
  Ga  Ga1       1.0  0.9999999814734137  1.6230670782232663e-08  0.9999999576047289  1.0000
  F   F1        1.0  0.2517296889406579  0.25172972811498284  0.7482702610903261  1.0000
  F   F2        1.0  0.7482702858527273  0.7482702777778651  0.2517297972636338  1.0000
  F   F3        1.0  0.7482703063258008  0.2517296602772115  0.2517297315525837  1.0000
  F   F4        1.0  0.2517297304501647  0.7482703432969684  0.7482702950762362  1.0000
  F   F5        1.0  0.2517296801934244  0.7482702890310444  0.25172971956578916  1.0000
  F   F6        1.0  0.7482703604469867  0.2517297029497995  0.7482703090342923  1.0000
