data_image0
_chemical_formula_structural       Pd2GaBr6
_chemical_formula_sum              "Pd2 Ga1 Br6"
_cell_length_a       7.021121829390963
_cell_length_b       7.021121688461353
_cell_length_c       7.021121709445119
_cell_angle_alpha    59.9999998294278
_cell_angle_beta     59.999999952149416
_cell_angle_gamma    59.99999946524087

_space_group_name_H-M_alt    "P 1"
_space_group_IT_number       1

loop_
  _space_group_symop_operation_xyz
  'x, y, z'

loop_
  _atom_site_type_symbol
  _atom_site_label
  _atom_site_symmetry_multiplicity
  _atom_site_fract_x
  _atom_site_fract_y
  _atom_site_fract_z
  _atom_site_occupancy
  Pd  Pd1       1.0  0.25000001859415133  0.2500000830630421  0.2499997449582814  1.0000
  Pd  Pd2       1.0  0.7500002182398774  0.7499998654272652  0.7499997015955233  1.0000
  Ga  Ga1       1.0  0.9999999438837436  1.0466232739144422e-08  7.552314430924343e-08  1.0000
  Br  Br1       1.0  0.25230387863309206  0.2523040923443288  0.7476960474673564  1.0000
  Br  Br2       1.0  0.7476960387133587  0.7476959363870962  0.2523040841463956  1.0000
  Br  Br3       1.0  0.7476960076794122  0.2523039727396767  0.25230406365911145  1.0000
  Br  Br4       1.0  0.25230401505605815  0.7476959914499806  0.7476960745922172  1.0000
  Br  Br5       1.0  0.2523039312311745  0.747696104089414  0.2523040496289991  1.0000
  Br  Br6       1.0  0.7476959388861715  0.25230395778508097  0.7476961417259025  1.0000
