data_image0
_chemical_formula_structural       Pd2GaI6
_chemical_formula_sum              "Pd2 Ga1 I6"
_cell_length_a       7.561317123077082
_cell_length_b       7.561317179462524
_cell_length_c       7.561316875828403
_cell_angle_alpha    60.00000074918011
_cell_angle_beta     60.00000116284456
_cell_angle_gamma    60.00000060034015

_space_group_name_H-M_alt    "P 1"
_space_group_IT_number       1

loop_
  _space_group_symop_operation_xyz
  'x, y, z'

loop_
  _atom_site_type_symbol
  _atom_site_label
  _atom_site_symmetry_multiplicity
  _atom_site_fract_x
  _atom_site_fract_y
  _atom_site_fract_z
  _atom_site_occupancy
  Pd  Pd1       1.0  0.25000004322730324  0.24999995616109955  0.25000000360828106  1.0000
  Pd  Pd2       1.0  0.749999997283302  0.7500000045423555  0.7500000261873903  1.0000
  Ga  Ga1       1.0  0.9999999902973895  1.6197509233914313e-09  0.999999969655885  1.0000
  I   I1        1.0  0.25812993442217086  0.2581299429934165  0.7418700635174198  1.0000
  I   I2        1.0  0.7418700296082326  0.7418700776408139  0.25812992694221004  1.0000
  I   I3        1.0  0.7418700445518828  0.2581299716902058  0.2581299550898387  1.0000
  I   I4        1.0  0.2581299394236584  0.7418700440847724  0.7418700503097048  1.0000
  I   I5        1.0  0.2581299645901266  0.7418700636067366  0.25812997182622394  1.0000
  I   I6        1.0  0.7418700583811266  0.2581299359707348  0.7418700446570733  1.0000
