data_image0
_chemical_formula_structural       Pd2GaI6
_chemical_formula_sum              "Pd2 Ga1 I6"
_cell_length_a       7.559866039804474
_cell_length_b       7.559866136388878
_cell_length_c       7.559866115229552
_cell_angle_alpha    59.999999973605995
_cell_angle_beta     59.999999874147925
_cell_angle_gamma    60.00000063044273

_space_group_name_H-M_alt    "P 1"
_space_group_IT_number       1

loop_
  _space_group_symop_operation_xyz
  'x, y, z'

loop_
  _atom_site_type_symbol
  _atom_site_label
  _atom_site_symmetry_multiplicity
  _atom_site_fract_x
  _atom_site_fract_y
  _atom_site_fract_z
  _atom_site_occupancy
  Pd  Pd1       1.0  0.2499999682557199  0.25000000378073833  0.25000001578103936  1.0000
  Pd  Pd2       1.0  0.7500000069341353  0.7499999935215382  0.7500000012016447  1.0000
  Ga  Ga1       1.0  2.7138642323358736e-08  0.9999999918996922  1.5613553016946856e-08  1.0000
  I   I1        1.0  0.258180680881401  0.2581806964965281  0.7418193147538579  1.0000
  I   I2        1.0  0.7418193240545461  0.7418192894653175  0.2581806864121219  1.0000
  I   I3        1.0  0.7418192888322026  0.25818073513592543  0.25818069115724396  1.0000
  I   I4        1.0  0.2581806944261673  0.7418192929475214  0.741819309046147  1.0000
  I   I5        1.0  0.25818070854863784  0.7418192842526398  0.2581806870406166  1.0000
  I   I6        1.0  0.7418192997041887  0.2581807146696985  0.741819279531182  1.0000
