data_image0
_chemical_formula_structural       Pd2GaBr6
_chemical_formula_sum              "Pd2 Ga1 Br6"
_cell_length_a       7.019331965470715
_cell_length_b       7.019332007748783
_cell_length_c       7.019331507344699
_cell_angle_alpha    60.00000149794438
_cell_angle_beta     60.000002331252176
_cell_angle_gamma    60.00000380167296

_space_group_name_H-M_alt    "P 1"
_space_group_IT_number       1

loop_
  _space_group_symop_operation_xyz
  'x, y, z'

loop_
  _atom_site_type_symbol
  _atom_site_label
  _atom_site_symmetry_multiplicity
  _atom_site_fract_x
  _atom_site_fract_y
  _atom_site_fract_z
  _atom_site_occupancy
  Pd  Pd1       1.0  0.24999989503495462  0.24999972616405516  0.2500000422643888  1.0000
  Pd  Pd2       1.0  0.7500000616193998  0.750000022983505  0.7499997826973595  1.0000
  Ga  Ga1       1.0  1.497059673903379e-08  4.8854870532359454e-08  0.9999999980046449  1.0000
  Br  Br1       1.0  0.25237044564495614  0.252370393148941  0.7476296252574485  1.0000
  Br  Br2       1.0  0.7476295524144371  0.7476295426940134  0.25237052586694225  1.0000
  Br  Br3       1.0  0.7476295853348068  0.25237048515053706  0.2523705088452531  1.0000
  Br  Br4       1.0  0.25237051812042066  0.7476295885329477  0.7476295163870433  1.0000
  Br  Br5       1.0  0.25237033859285524  0.7476297001191398  0.2523705351135462  1.0000
  Br  Br6       1.0  0.7476295786062462  0.25237050791523374  0.7476294562366103  1.0000
