data_image0
_chemical_formula_structural       Pd2GaCl6
_chemical_formula_sum              "Pd2 Ga1 Cl6"
_cell_length_a       6.630566900639365
_cell_length_b       6.63056646732673
_cell_length_c       6.6305665950776
_cell_angle_alpha    60.00000035857957
_cell_angle_beta     60.00000018375961
_cell_angle_gamma    60.0000010835369

_space_group_name_H-M_alt    "P 1"
_space_group_IT_number       1

loop_
  _space_group_symop_operation_xyz
  'x, y, z'

loop_
  _atom_site_type_symbol
  _atom_site_label
  _atom_site_symmetry_multiplicity
  _atom_site_fract_x
  _atom_site_fract_y
  _atom_site_fract_z
  _atom_site_occupancy
  Pd  Pd1       1.0  0.24999990013136703  0.250000040191133  0.2500000174932353  1.0000
  Pd  Pd2       1.0  0.7500002381616278  0.750000017134719  0.7499998775439454  1.0000
  Ga  Ga1       1.0  1.2327696411524566e-07  0.9999999279623387  0.9999997798268374  1.0000
  Cl  Cl1       1.0  0.2501953496456162  0.250195274128672  0.7498046806625207  1.0000
  Cl  Cl2       1.0  0.7498047281362284  0.7498047296307122  0.25019522616846673  1.0000
  Cl  Cl3       1.0  0.7498045802753392  0.250195371621449  0.25019540340359037  1.0000
  Cl  Cl4       1.0  0.2501951323387285  0.7498047558949394  0.7498049408478034  1.0000
  Cl  Cl5       1.0  0.2501952363109132  0.7498046627557516  0.2501953556920275  1.0000
  Cl  Cl6       1.0  0.7498046956634673  0.2501952246351013  0.7498047425536282  1.0000
