data_image0
_chemical_formula_structural       Pd2GaCl6
_chemical_formula_sum              "Pd2 Ga1 Cl6"
_cell_length_a       6.632034880152135
_cell_length_b       6.632034708027521
_cell_length_c       6.632034756769097
_cell_angle_alpha    60.00000109089205
_cell_angle_beta     60.000000956880356
_cell_angle_gamma    59.99999962259904

_space_group_name_H-M_alt    "P 1"
_space_group_IT_number       1

loop_
  _space_group_symop_operation_xyz
  'x, y, z'

loop_
  _atom_site_type_symbol
  _atom_site_label
  _atom_site_symmetry_multiplicity
  _atom_site_fract_x
  _atom_site_fract_y
  _atom_site_fract_z
  _atom_site_occupancy
  Pd  Pd1       1.0  0.24999989965761757  0.2500001392654908  0.24999996434579355  1.0000
  Pd  Pd2       1.0  0.749999948589408  0.7500000189069854  0.7499999420406843  1.0000
  Ga  Ga1       1.0  5.638498602424525e-08  0.9999999039710501  5.751780287950867e-08  1.0000
  Cl  Cl1       1.0  0.25008083534939946  0.2500808363530515  0.7499191301067335  1.0000
  Cl  Cl2       1.0  0.7499191517659076  0.7499191611556042  0.25008084145949605  1.0000
  Cl  Cl3       1.0  0.7499192907503176  0.2500808144219731  0.2500808052498695  1.0000
  Cl  Cl4       1.0  0.2500808612590955  0.7499191793932622  0.7499192455463016  1.0000
  Cl  Cl5       1.0  0.2500807742972987  0.7499191373918199  0.25008086653717354  1.0000
  Cl  Cl6       1.0  0.7499191824288287  0.25008081025565054  0.7499191572169008  1.0000
