data_image0
_chemical_formula_structural       Pd2IrI6
_chemical_formula_sum              "Pd2 Ir1 I6"
_cell_length_a       7.446487360684366
_cell_length_b       7.446487428503602
_cell_length_c       7.446487344452907
_cell_angle_alpha    59.999999533840445
_cell_angle_beta     60.00000082420254
_cell_angle_gamma    59.9999999911799

_space_group_name_H-M_alt    "P 1"
_space_group_IT_number       1

loop_
  _space_group_symop_operation_xyz
  'x, y, z'

loop_
  _atom_site_type_symbol
  _atom_site_label
  _atom_site_symmetry_multiplicity
  _atom_site_fract_x
  _atom_site_fract_y
  _atom_site_fract_z
  _atom_site_occupancy
  Pd  Pd1       1.0  0.25000001521125165  0.24999997504156496  0.2499999829227429  1.0000
  Pd  Pd2       1.0  0.7500000139297383  0.750000015584752  0.7499999556489144  1.0000
  Ir  Ir1       1.0  3.1953931290061024e-08  0.9999999506581495  7.315388299088253e-08  1.0000
  I   I1        1.0  0.25234509990351706  0.2523451343446891  0.7476548928544657  1.0000
  I   I2        1.0  0.7476548969234275  0.7476548973998351  0.25234512189001385  1.0000
  I   I3        1.0  0.7476548786926488  0.2523450877057337  0.25234515492768783  1.0000
  I   I4        1.0  0.25234514938413327  0.7476548502892767  0.7476548534650088  1.0000
  I   I5        1.0  0.25234505176998956  0.747654955094617  0.25234509784954867  1.0000
  I   I6        1.0  0.7476548611947177  0.25234513750485604  0.7476548639386513  1.0000
