data_image0
_chemical_formula_structural       Pd2IrBr6
_chemical_formula_sum              "Pd2 Ir1 Br6"
_cell_length_a       7.085911839484224
_cell_length_b       7.085911706080598
_cell_length_c       7.085911758735228
_cell_angle_alpha    59.99999976547504
_cell_angle_beta     59.999999541048055
_cell_angle_gamma    59.99999917311822

_space_group_name_H-M_alt    "P 1"
_space_group_IT_number       1

loop_
  _space_group_symop_operation_xyz
  'x, y, z'

loop_
  _atom_site_type_symbol
  _atom_site_label
  _atom_site_symmetry_multiplicity
  _atom_site_fract_x
  _atom_site_fract_y
  _atom_site_fract_z
  _atom_site_occupancy
  Pd  Pd1       1.0  0.25000004536889364  0.2500000470496106  0.2499999057506718  1.0000
  Pd  Pd2       1.0  0.75000004172717  0.7499999060833811  0.7500000470908629  1.0000
  Ir  Ir1       1.0  1.5637692256813314e-08  0.9999999775305082  0.9999999766021308  1.0000
  Br  Br1       1.0  0.2467201022721437  0.2467201268789905  0.7532798897103301  1.0000
  Br  Br2       1.0  0.7532798616993873  0.7532799023045892  0.2467201205382015  1.0000
  Br  Br3       1.0  0.7532798832327042  0.24672012592738937  0.24672011226389112  1.0000
  Br  Br4       1.0  0.24672006557842538  0.753279929182527  0.7532799095366849  1.0000
  Br  Br5       1.0  0.24672008931408038  0.7532798756649549  0.24672013477529756  1.0000
  Br  Br6       1.0  0.753279897784973  0.24672010857964133  0.7532799019027251  1.0000
