data_image0
_chemical_formula_structural       Pd2MoBr6
_chemical_formula_sum              "Pd2 Mo1 Br6"
_cell_length_a       7.162266744983695
_cell_length_b       7.162266656380076
_cell_length_c       7.162266870832152
_cell_angle_alpha    60.00000025083388
_cell_angle_beta     59.999999657328345
_cell_angle_gamma    60.00000174994982

_space_group_name_H-M_alt    "P 1"
_space_group_IT_number       1

loop_
  _space_group_symop_operation_xyz
  'x, y, z'

loop_
  _atom_site_type_symbol
  _atom_site_label
  _atom_site_symmetry_multiplicity
  _atom_site_fract_x
  _atom_site_fract_y
  _atom_site_fract_z
  _atom_site_occupancy
  Pd  Pd1       1.0  0.2500000450601917  0.24999998934101011  0.24999995970753947  1.0000
  Pd  Pd2       1.0  0.7500000091355981  0.7499999834129949  0.7500000545238407  1.0000
  Mo  Mo1       1.0  2.2864186479083286e-08  0.999999984610035  1.0224949149964564e-08  1.0000
  Br  Br1       1.0  0.24605312348108474  0.2460531194642591  0.7539468797668382  1.0000
  Br  Br2       1.0  0.7539468686687413  0.7539468943296522  0.24605310308139078  1.0000
  Br  Br3       1.0  0.7539468511364634  0.24605315262999541  0.2460531643328206  1.0000
  Br  Br4       1.0  0.24605310943716052  0.753946854323931  0.7539468837982998  1.0000
  Br  Br5       1.0  0.2460531685018367  0.7539468185649199  0.2460531527960573  1.0000
  Br  Br6       1.0  0.7539468030637976  0.2460532037789714  0.7539467955793034  1.0000
