data_image0
_chemical_formula_structural       Pd2MoI6
_chemical_formula_sum              "Pd2 Mo1 I6"
_cell_length_a       7.618451335028401
_cell_length_b       7.618451450859649
_cell_length_c       7.618451385401055
_cell_angle_alpha    60.00000014059209
_cell_angle_beta     60.000000350125546
_cell_angle_gamma    60.00000002173166

_space_group_name_H-M_alt    "P 1"
_space_group_IT_number       1

loop_
  _space_group_symop_operation_xyz
  'x, y, z'

loop_
  _atom_site_type_symbol
  _atom_site_label
  _atom_site_symmetry_multiplicity
  _atom_site_fract_x
  _atom_site_fract_y
  _atom_site_fract_z
  _atom_site_occupancy
  Pd  Pd1       1.0  0.24999999962202793  0.2500000014295286  0.2500000025483432  1.0000
  Pd  Pd2       1.0  0.7499999906599594  0.7500000107189999  0.7499999153380915  1.0000
  Mo  Mo1       1.0  0.9999999574379449  5.948132701956424e-08  2.0417623608675666e-08  1.0000
  I   I1        1.0  0.25375115008992855  0.25375119101746346  0.7462488243023915  1.0000
  I   I2        1.0  0.7462488502816076  0.7462487954094096  0.25375120772091686  1.0000
  I   I3        1.0  0.7462488402408057  0.2537511706555693  0.25375117072217385  1.0000
  I   I4        1.0  0.2537512023092496  0.7462488029104765  0.7462488072642072  1.0000
  I   I5        1.0  0.2537511822095151  0.7462487774417674  0.2537512068188648  1.0000
  I   I6        1.0  0.746248831099015  0.25375119290907117  0.7462488464630047  1.0000
