data_image0
_chemical_formula_structural       Pd2MoCl6
_chemical_formula_sum              "Pd2 Mo1 Cl6"
_cell_length_a       6.806924839851409
_cell_length_b       6.806925393934231
_cell_length_c       6.8069246942703865
_cell_angle_alpha    60.0000023856969
_cell_angle_beta     59.99999942446037
_cell_angle_gamma    60.00000332738747

_space_group_name_H-M_alt    "P 1"
_space_group_IT_number       1

loop_
  _space_group_symop_operation_xyz
  'x, y, z'

loop_
  _atom_site_type_symbol
  _atom_site_label
  _atom_site_symmetry_multiplicity
  _atom_site_fract_x
  _atom_site_fract_y
  _atom_site_fract_z
  _atom_site_occupancy
  Pd  Pd1       1.0  0.25000007538450936  0.24999997847747338  0.24999977229069228  1.0000
  Pd  Pd2       1.0  0.7500002135763338  0.7499999426294668  0.7500000614537136  1.0000
  Mo  Mo1       1.0  0.9999999657817188  0.9999999856058964  5.221894470912118e-08  1.0000
  Cl  Cl1       1.0  0.243704146435514  0.24370406457958724  0.7562959146081482  1.0000
  Cl  Cl2       1.0  0.7562958377623545  0.7562958853155556  0.2437041144182424  1.0000
  Cl  Cl3       1.0  0.756295916881557  0.24370413259692605  0.24370406994907015  1.0000
  Cl  Cl4       1.0  0.24370395879911444  0.756295903662834  0.7562959863136252  1.0000
  Cl  Cl5       1.0  0.24370400118029412  0.7562959592512588  0.2437041404874446  1.0000
  Cl  Cl6       1.0  0.7562958810447135  0.2437041489790164  0.7562958985542074  1.0000
