data_image0
_chemical_formula_structural       Pd2NF6
_chemical_formula_sum              "Pd2 N1 F6"
_cell_length_a       3.8606754967657246
_cell_length_b       3.964188086251777
_cell_length_c       3.9641882510923465
_cell_angle_alpha    57.5282542183335
_cell_angle_beta     60.860101247922756
_cell_angle_gamma    60.860070997836985

_space_group_name_H-M_alt    "P 1"
_space_group_IT_number       1

loop_
  _space_group_symop_operation_xyz
  'x, y, z'

loop_
  _atom_site_type_symbol
  _atom_site_label
  _atom_site_symmetry_multiplicity
  _atom_site_fract_x
  _atom_site_fract_y
  _atom_site_fract_z
  _atom_site_occupancy
  Pd  Pd1       1.0  0.3278947374714631  0.17210694046160152  0.1721033193219676  1.0000
  Pd  Pd2       1.0  0.6721060399038336  0.8278947939385632  0.8278924953956793  1.0000
  N   N1        1.0  4.196883860123286e-07  5.886452878260771e-07  0.9999981133050624  1.0000
  F   F1        1.0  0.2728061772654618  0.24692257324007777  0.753075755882962  1.0000
  F   F2        1.0  0.7271941825916534  0.7530790694619297  0.2469198912149309  1.0000
  F   F3        1.0  0.7569731380556969  0.24302829817092497  0.2430252180868991  1.0000
  F   F4        1.0  0.24302787318149066  0.7569728537327799  0.7569712447434724  1.0000
  F   F5        1.0  0.2728064575541607  0.7530790628825366  0.2469200819890387  1.0000
  F   F6        1.0  0.7271948933507989  0.24692265117376866  0.7530757253693919  1.0000
