data_image0
_chemical_formula_structural       Pd2NF6
_chemical_formula_sum              "Pd2 N1 F6"
_cell_length_a       5.020726319271252
_cell_length_b       5.020726298425353
_cell_length_c       5.020726552162052
_cell_angle_alpha    60.000000382184226
_cell_angle_beta     60.000001334193804
_cell_angle_gamma    60.00000111055504

_space_group_name_H-M_alt    "P 1"
_space_group_IT_number       1

loop_
  _space_group_symop_operation_xyz
  'x, y, z'

loop_
  _atom_site_type_symbol
  _atom_site_label
  _atom_site_symmetry_multiplicity
  _atom_site_fract_x
  _atom_site_fract_y
  _atom_site_fract_z
  _atom_site_occupancy
  Pd  Pd1       1.0  0.24999998899009454  0.2500000232089466  0.2499999960146782  1.0000
  Pd  Pd2       1.0  0.7500000308803393  0.7499999744911032  0.7499999956899003  1.0000
  N   N1        1.0  1.6468569641564773e-07  0.9999999268186661  3.192582173781459e-08  1.0000
  F   F1        1.0  0.241968862284586  0.24196873873359723  0.7580311981033993  1.0000
  F   F2        1.0  0.7580311757536398  0.7580311906638723  0.24196883858600898  1.0000
  F   F3        1.0  0.7580310648866285  0.24196886441074095  0.24196904375382877  1.0000
  F   F4        1.0  0.24196884363753074  0.7580311430468195  0.758031020654309  1.0000
  F   F5        1.0  0.24196880063567203  0.7580312341998473  0.2419689001707364  1.0000
  F   F6        1.0  0.7580310442095765  0.24196893669602884  0.7580309948530838  1.0000
