data_image0
_chemical_formula_structural       Pd2NCl6
_chemical_formula_sum              "Pd2 N1 Cl6"
_cell_length_a       6.5023414490231914
_cell_length_b       6.502341193757083
_cell_length_c       6.502341575694042
_cell_angle_alpha    59.99999859177498
_cell_angle_beta     59.99999890726307
_cell_angle_gamma    60.000000861210516

_space_group_name_H-M_alt    "P 1"
_space_group_IT_number       1

loop_
  _space_group_symop_operation_xyz
  'x, y, z'

loop_
  _atom_site_type_symbol
  _atom_site_label
  _atom_site_symmetry_multiplicity
  _atom_site_fract_x
  _atom_site_fract_y
  _atom_site_fract_z
  _atom_site_occupancy
  Pd  Pd1       1.0  0.2499999669523627  0.250000039992612  0.24999999855997362  1.0000
  Pd  Pd2       1.0  0.750000159717964  0.7499999240892168  0.7499998719193398  1.0000
  N   N1        1.0  1.3818998856448292e-09  0.9999999585620213  0.9999999831182588  1.0000
  Cl  Cl1       1.0  0.23630557089041657  0.2363056448538767  0.7636944329301573  1.0000
  Cl  Cl2       1.0  0.7636944209435885  0.7636942815570602  0.2363057006621276  1.0000
  Cl  Cl3       1.0  0.763694320476711  0.2363056439528889  0.23630568300621863  1.0000
  Cl  Cl4       1.0  0.23630558374792993  0.7636944067719806  0.7636943445730542  1.0000
  Cl  Cl5       1.0  0.23630558923293704  0.7636944667215463  0.23630560271463544  1.0000
  Cl  Cl6       1.0  0.7636943903825845  0.2363056348590261  0.7636943602034383  1.0000
