data_image0
_chemical_formula_structural       Pd2NO6
_chemical_formula_sum              "Pd2 N1 O6"
_cell_length_a       6.228265167327552
_cell_length_b       6.703573935575702
_cell_length_c       5.111789543363163
_cell_angle_alpha    48.46503728665856
_cell_angle_beta     55.19216242493686
_cell_angle_gamma    79.64637026566191

_space_group_name_H-M_alt    "P 1"
_space_group_IT_number       1

loop_
  _space_group_symop_operation_xyz
  'x, y, z'

loop_
  _atom_site_type_symbol
  _atom_site_label
  _atom_site_symmetry_multiplicity
  _atom_site_fract_x
  _atom_site_fract_y
  _atom_site_fract_z
  _atom_site_occupancy
  Pd  Pd1       1.0  0.23645751529396447  0.4390355126928853  0.884148451459376  1.0000
  Pd  Pd2       1.0  0.22468283729781388  0.897411745746569  0.8887782863533756  1.0000
  N   N1        1.0  0.16745197530130604  0.042263743478615674  0.15489126216354004  1.0000
  O   O1        1.0  0.1715717113186843  0.18314689858120822  0.8787421176107025  1.0000
  O   O2        1.0  0.22513529687466782  0.2790445602806652  0.658963781253422  1.0000
  O   O3        1.0  0.9959433916655158  0.08869271156087495  0.10870298279639772  1.0000
  O   O4        1.0  0.2373472042548615  0.6727176357900702  0.8744608327501265  1.0000
  O   O5        1.0  0.3620062744630258  0.14867842173506585  0.8755305188091347  1.0000
  O   O6        1.0  0.3792573400306554  0.24863808144916114  0.6759201045371352  1.0000
