data_image0
_chemical_formula_structural       Pd2PF6
_chemical_formula_sum              "Pd2 P1 F6"
_cell_length_a       5.830744207055277
_cell_length_b       5.830744247896542
_cell_length_c       5.830743789171624
_cell_angle_alpha    60.0000038647378
_cell_angle_beta     60.00000321555538
_cell_angle_gamma    60.000002489773784

_space_group_name_H-M_alt    "P 1"
_space_group_IT_number       1

loop_
  _space_group_symop_operation_xyz
  'x, y, z'

loop_
  _atom_site_type_symbol
  _atom_site_label
  _atom_site_symmetry_multiplicity
  _atom_site_fract_x
  _atom_site_fract_y
  _atom_site_fract_z
  _atom_site_occupancy
  Pd  Pd1       1.0  0.249999975574253  0.24999972096605644  0.2500001377738031  1.0000
  Pd  Pd2       1.0  0.7500000348667253  0.7500001039198579  0.7499998424323208  1.0000
  P   P1        1.0  1.3841948226461297e-08  3.5708412536313896e-08  0.9999999958053848  1.0000
  F   F1        1.0  0.20149418593376187  0.20149424687272224  0.7985057869473575  1.0000
  F   F2        1.0  0.7985058221217065  0.7985058762834609  0.2014941465041662  1.0000
  F   F3        1.0  0.7985057152021723  0.20149423241307637  0.20149431385564778  1.0000
  F   F4        1.0  0.20149424468619045  0.7985057857183654  0.7985057665087277  1.0000
  F   F5        1.0  0.20149426532001694  0.7985058273928204  0.20149421574971887  1.0000
  F   F6        1.0  0.7985057254339005  0.20149419914060085  0.7985058569862191  1.0000
