data_image0
_chemical_formula_structural       Pd2PI6
_chemical_formula_sum              "Pd2 P1 I6"
_cell_length_a       7.509494586640223
_cell_length_b       7.509494393174002
_cell_length_c       7.509494570553989
_cell_angle_alpha    59.99999947373179
_cell_angle_beta     59.999999868297614
_cell_angle_gamma    59.99999953961014

_space_group_name_H-M_alt    "P 1"
_space_group_IT_number       1

loop_
  _space_group_symop_operation_xyz
  'x, y, z'

loop_
  _atom_site_type_symbol
  _atom_site_label
  _atom_site_symmetry_multiplicity
  _atom_site_fract_x
  _atom_site_fract_y
  _atom_site_fract_z
  _atom_site_occupancy
  Pd  Pd1       1.0  0.25000002879250777  0.2500000104076634  0.2499999877863525  1.0000
  Pd  Pd2       1.0  0.7499999921462562  0.7500000002353475  0.7500000286318073  1.0000
  P   P1        1.0  9.599022498721483e-09  0.9999999804288573  0.9999999796847567  1.0000
  I   I1        1.0  0.2580428808041711  0.25804289237559624  0.7419571014539725  1.0000
  I   I2        1.0  0.7419571351645368  0.7419571101127718  0.25804285893910234  1.0000
  I   I3        1.0  0.7419570990837164  0.25804288308099366  0.25804288407033804  1.0000
  I   I4        1.0  0.2580428518371456  0.7419571438713025  0.7419571392274169  1.0000
  I   I5        1.0  0.25804288544175186  0.741957129054047  0.258042868246904  1.0000
  I   I6        1.0  0.7419571244856172  0.2580428408157501  0.7419571540888469  1.0000
