data_image0
_chemical_formula_structural       Pd2PBr6
_chemical_formula_sum              "Pd2 P1 Br6"
_cell_length_a       7.012331356988261
_cell_length_b       7.01233154468602
_cell_length_c       7.012331804530156
_cell_angle_alpha    59.999996251146385
_cell_angle_beta     59.99999826461262
_cell_angle_gamma    59.999994453999356

_space_group_name_H-M_alt    "P 1"
_space_group_IT_number       1

loop_
  _space_group_symop_operation_xyz
  'x, y, z'

loop_
  _atom_site_type_symbol
  _atom_site_label
  _atom_site_symmetry_multiplicity
  _atom_site_fract_x
  _atom_site_fract_y
  _atom_site_fract_z
  _atom_site_occupancy
  Pd  Pd1       1.0  0.2499998685669161  0.2500003795176999  0.24999987728196452  1.0000
  Pd  Pd2       1.0  0.7499995397404441  0.7499997902097113  0.7500003504062387  1.0000
  P   P1        1.0  1.027928419083819e-07  0.9999999633222615  0.9999999455515619  1.0000
  Br  Br1       1.0  0.2419859328667532  0.24198595670267795  0.7580140634768968  1.0000
  Br  Br2       1.0  0.7580141659497416  0.7580139248425025  0.24198593737879706  1.0000
  Br  Br3       1.0  0.7580140448613488  0.241986034640556  0.24198587845388295  1.0000
  Br  Br4       1.0  0.24198611947092405  0.7580139516981473  0.7580141071240574  1.0000
  Br  Br5       1.0  0.24198611569434064  0.7580140510253598  0.2419857878881248  1.0000
  Br  Br6       1.0  0.7580141049072834  0.24198594928581468  0.7580140598926448  1.0000
