data_image0
_chemical_formula_structural       Pd2RhI6
_chemical_formula_sum              "Pd2 Rh1 I6"
_cell_length_a       7.438010897766201
_cell_length_b       7.43801095597506
_cell_length_c       7.438010890364637
_cell_angle_alpha    59.99999943769938
_cell_angle_beta     60.00000025277375
_cell_angle_gamma    59.99999888908606

_space_group_name_H-M_alt    "P 1"
_space_group_IT_number       1

loop_
  _space_group_symop_operation_xyz
  'x, y, z'

loop_
  _atom_site_type_symbol
  _atom_site_label
  _atom_site_symmetry_multiplicity
  _atom_site_fract_x
  _atom_site_fract_y
  _atom_site_fract_z
  _atom_site_occupancy
  Pd  Pd1       1.0  0.24999999482152976  0.24999999615502994  0.2500000214389064  1.0000
  Pd  Pd2       1.0  0.7500000165948048  0.7500000131641301  0.7500000036353998  1.0000
  Rh  Rh1       1.0  2.413401613751307e-08  0.999999955541727  1.6884356030915427e-08  1.0000
  I   I1        1.0  0.2518473961943295  0.2518474099356832  0.748152580889899  1.0000
  I   I2        1.0  0.7481526195187747  0.7481525911504636  0.2518473923747104  1.0000
  I   I3        1.0  0.7481525946592774  0.2518473822117496  0.2518473924817509  1.0000
  I   I4        1.0  0.25184735511447753  0.7481526304006167  0.7481526254672141  1.0000
  I   I5        1.0  0.2518473919959227  0.7481526422046955  0.25184736516653217  1.0000
  I   I6        1.0  0.7481526083650466  0.2518473769940813  0.7481526026844934  1.0000
