data_image0
_chemical_formula_structural       Pd2RhF6
_chemical_formula_sum              "Pd2 Rh1 F6"
_cell_length_a       5.5147096422322175
_cell_length_b       5.514709757962287
_cell_length_c       5.514709462380785
_cell_angle_alpha    60.000000446759586
_cell_angle_beta     59.999998549843724
_cell_angle_gamma    60.00000017620007

_space_group_name_H-M_alt    "P 1"
_space_group_IT_number       1

loop_
  _space_group_symop_operation_xyz
  'x, y, z'

loop_
  _atom_site_type_symbol
  _atom_site_label
  _atom_site_symmetry_multiplicity
  _atom_site_fract_x
  _atom_site_fract_y
  _atom_site_fract_z
  _atom_site_occupancy
  Pd  Pd1       1.0  0.25000008256523226  0.2500001243933669  0.2499998037942007  1.0000
  Pd  Pd2       1.0  0.7499998327349797  0.750000173301879  0.7500000306952124  1.0000
  Rh  Rh1       1.0  3.756238698413323e-08  6.6626073133874024e-09  0.9999999742608378  1.0000
  F   F1        1.0  0.250927279505256  0.25092709465601504  0.7490728378165848  1.0000
  F   F2        1.0  0.7490728253489676  0.7490727788532285  0.25092716838878876  1.0000
  F   F3        1.0  0.74907278773186  0.25092716400583615  0.25092725165341323  1.0000
  F   F4        1.0  0.25092721549596386  0.7490727317120983  0.7490728631674383  1.0000
  F   F5        1.0  0.250927229247721  0.7490727411038192  0.250927188847761  1.0000
  F   F6        1.0  0.7490727281475178  0.25092717904367606  0.7490728423813313  1.0000
