data_image0
_chemical_formula_structural       Pd2RuI6
_chemical_formula_sum              "Pd2 Ru1 I6"
_cell_length_a       7.470107552881077
_cell_length_b       7.470107476417508
_cell_length_c       7.470107604102363
_cell_angle_alpha    59.999999798570165
_cell_angle_beta     59.99999956887909
_cell_angle_gamma    59.99999989946555

_space_group_name_H-M_alt    "P 1"
_space_group_IT_number       1

loop_
  _space_group_symop_operation_xyz
  'x, y, z'

loop_
  _atom_site_type_symbol
  _atom_site_label
  _atom_site_symmetry_multiplicity
  _atom_site_fract_x
  _atom_site_fract_y
  _atom_site_fract_z
  _atom_site_occupancy
  Pd  Pd1       1.0  0.2499999598451981  0.25000000146078943  0.24999998992343256  1.0000
  Pd  Pd2       1.0  0.7499999917520034  0.749999983068508  0.7499999952684695  1.0000
  Ru  Ru1       1.0  0.9999999938008658  2.787197232408361e-08  0.9999999998729314  1.0000
  I   I1        1.0  0.25204784101625294  0.2520478495331532  0.7479521464483103  1.0000
  I   I2        1.0  0.747952174675128  0.7479521513914225  0.25204784267493335  1.0000
  I   I3        1.0  0.7479521708545441  0.25204784639626  0.2520478231176873  1.0000
  I   I4        1.0  0.25204783901276717  0.7479521627259546  0.7479521808827974  1.0000
  I   I5        1.0  0.2520478766771756  0.7479521455411039  0.25204783748915316  1.0000
  I   I6        1.0  0.7479521533011242  0.25204783570913863  0.7479521837785114  1.0000
