data_image0
_chemical_formula_structural       Pd2RuF6
_chemical_formula_sum              "Pd2 Ru1 F6"
_cell_length_a       5.709747407276611
_cell_length_b       5.709747502543743
_cell_length_c       5.7097480078011715
_cell_angle_alpha    60.0000007668932
_cell_angle_beta     59.9999986823497
_cell_angle_gamma    60.0000012718028

_space_group_name_H-M_alt    "P 1"
_space_group_IT_number       1

loop_
  _space_group_symop_operation_xyz
  'x, y, z'

loop_
  _atom_site_type_symbol
  _atom_site_label
  _atom_site_symmetry_multiplicity
  _atom_site_fract_x
  _atom_site_fract_y
  _atom_site_fract_z
  _atom_site_occupancy
  Pd  Pd1       1.0  0.2499998549061157  0.25000001350519735  0.25000014097617135  1.0000
  Pd  Pd2       1.0  0.7500000325114834  0.7499999718753676  0.7500001025061002  1.0000
  Ru  Ru1       1.0  1.679203065867942e-08  0.9999999678248931  0.9999999604039865  1.0000
  F   F1        1.0  0.24100502576428456  0.24100509130731396  0.7589949437578014  1.0000
  F   F2        1.0  0.7589949993156174  0.7589948511731054  0.24100506319318832  1.0000
  F   F3        1.0  0.7589949997705185  0.24100505314208912  0.2410049922293992  1.0000
  F   F4        1.0  0.24100501321387824  0.758995028763787  0.7589949545594002  1.0000
  F   F5        1.0  0.24100512225040094  0.7589949104871586  0.24100492424987638  1.0000
  F   F6        1.0  0.7589949726086777  0.24100511993854457  0.7589948584734526  1.0000
