data_image0
_chemical_formula_structural       Pd2RhCl6
_chemical_formula_sum              "Pd2 Rh1 Cl6"
_cell_length_a       6.674024147277858
_cell_length_b       6.674024158878088
_cell_length_c       6.674024090299093
_cell_angle_alpha    59.999999533919436
_cell_angle_beta     59.999997102885835
_cell_angle_gamma    59.999996853759974

_space_group_name_H-M_alt    "P 1"
_space_group_IT_number       1

loop_
  _space_group_symop_operation_xyz
  'x, y, z'

loop_
  _atom_site_type_symbol
  _atom_site_label
  _atom_site_symmetry_multiplicity
  _atom_site_fract_x
  _atom_site_fract_y
  _atom_site_fract_z
  _atom_site_occupancy
  Pd  Pd1       1.0  0.24999976528203038  0.25000011703573044  0.24999996813035216  1.0000
  Pd  Pd2       1.0  0.749999880571141  0.7499999308710907  0.7500001338026226  1.0000
  Rh  Rh1       1.0  4.154140392725889e-08  0.9999999688034334  0.9999999393887635  1.0000
  Cl  Cl1       1.0  0.24604957047787995  0.24604948648745623  0.7539505419753808  1.0000
  Cl  Cl2       1.0  0.7539505022494957  0.7539504953560385  0.24604944248269425  1.0000
  Cl  Cl3       1.0  0.7539505320945357  0.24604953215598444  0.24604948338698823  1.0000
  Cl  Cl4       1.0  0.2460495495294605  0.7539503762838271  0.7539506157336705  1.0000
  Cl  Cl5       1.0  0.24604956548263837  0.7539505381454251  0.24604946531721328  1.0000
  Cl  Cl6       1.0  0.7539506058957219  0.24604956297905187  0.7539504056798362  1.0000
