data_image0
_chemical_formula_structural       Pd2RhBr6
_chemical_formula_sum              "Pd2 Rh1 Br6"
_cell_length_a       7.026623326067665
_cell_length_b       7.026623311492079
_cell_length_c       7.026623265512609
_cell_angle_alpha    59.99999964972202
_cell_angle_beta     60.00000057662797
_cell_angle_gamma    59.999999077815644

_space_group_name_H-M_alt    "P 1"
_space_group_IT_number       1

loop_
  _space_group_symop_operation_xyz
  'x, y, z'

loop_
  _atom_site_type_symbol
  _atom_site_label
  _atom_site_symmetry_multiplicity
  _atom_site_fract_x
  _atom_site_fract_y
  _atom_site_fract_z
  _atom_site_occupancy
  Pd  Pd1       1.0  0.2500000712356404  0.25000000338598144  0.24999993758328817  1.0000
  Pd  Pd2       1.0  0.7500000347841819  0.7499999996999073  0.7500000141771543  1.0000
  Rh  Rh1       1.0  2.367009199128951e-08  2.2659082169398904e-08  0.9999999398332868  1.0000
  Br  Br1       1.0  0.24792108872703972  0.24792117701398753  0.7520788729451339  1.0000
  Br  Br2       1.0  0.7520788321612846  0.752078853960004  0.24792114889805347  1.0000
  Br  Br3       1.0  0.7520788610682418  0.24792111154026822  0.24792110261712602  1.0000
  Br  Br4       1.0  0.24792109899496667  0.7520788758585653  0.7520788943861835  1.0000
  Br  Br5       1.0  0.24792109603253365  0.7520789197421928  0.24792111761223892  1.0000
  Br  Br6       1.0  0.7520788886976103  0.24792103802553242  0.7520789743784723  1.0000
