data_image0
_chemical_formula_structural       Pd2SbBr6
_chemical_formula_sum              "Pd2 Sb1 Br6"
_cell_length_a       7.210103954225287
_cell_length_b       7.21010395932418
_cell_length_c       7.210103962201849
_cell_angle_alpha    59.9999999079695
_cell_angle_beta     59.99999991733631
_cell_angle_gamma    59.99999979852857

_space_group_name_H-M_alt    "P 1"
_space_group_IT_number       1

loop_
  _space_group_symop_operation_xyz
  'x, y, z'

loop_
  _atom_site_type_symbol
  _atom_site_label
  _atom_site_symmetry_multiplicity
  _atom_site_fract_x
  _atom_site_fract_y
  _atom_site_fract_z
  _atom_site_occupancy
  Pd  Pd1       1.0  0.25000002133119514  0.25000001693516705  0.2499999874128643  1.0000
  Pd  Pd2       1.0  0.7500000245388873  0.7500000202297872  0.7499999861582587  1.0000
  Sb  Sb1       1.0  1.5529295803857373e-08  2.5479761714450894e-08  0.9999999711738159  1.0000
  Br  Br1       1.0  0.2504648764887424  0.25046484896388227  0.7495351353449471  1.0000
  Br  Br2       1.0  0.7495351051602485  0.74953514063885  0.25046487608757934  1.0000
  Br  Br3       1.0  0.7495351504960512  0.2504648499743455  0.25046485927429113  1.0000
  Br  Br4       1.0  0.2504648529272894  0.7495351175459266  0.7495351412167501  1.0000
  Br  Br5       1.0  0.25046484522603535  0.749535107713122  0.25046488014246593  1.0000
  Br  Br6       1.0  0.7495351109931973  0.25046487169770576  0.7495351615833749  1.0000
