data_image0
_chemical_formula_structural       Pd2SbI6
_chemical_formula_sum              "Pd2 Sb1 I6"
_cell_length_a       7.823440126854769
_cell_length_b       7.823440102945698
_cell_length_c       7.823440181074362
_cell_angle_alpha    60.00000031006141
_cell_angle_beta     59.999999130528366
_cell_angle_gamma    60.00000114814057

_space_group_name_H-M_alt    "P 1"
_space_group_IT_number       1

loop_
  _space_group_symop_operation_xyz
  'x, y, z'

loop_
  _atom_site_type_symbol
  _atom_site_label
  _atom_site_symmetry_multiplicity
  _atom_site_fract_x
  _atom_site_fract_y
  _atom_site_fract_z
  _atom_site_occupancy
  Pd  Pd1       1.0  0.24999999306484005  0.25000004144138527  0.2499999737311244  1.0000
  Pd  Pd2       1.0  0.750000049193516  0.7499999364664094  0.7499999737316966  1.0000
  Sb  Sb1       1.0  0.9999999528591356  0.9999999953035555  1.4414764020003412e-08  1.0000
  I   I1        1.0  0.26578203384457805  0.26578205880378736  0.7342179497042548  1.0000
  I   I2        1.0  0.7342179827854421  0.7342179472826696  0.26578204249896575  1.0000
  I   I3        1.0  0.7342179599875212  0.265782047193621  0.2657820518233911  1.0000
  I   I4        1.0  0.26578203624779456  0.7342179448035049  0.734217987020679  1.0000
  I   I5        1.0  0.26578206614087163  0.7342179261801455  0.2657820663435538  1.0000
  I   I6        1.0  0.7342179259939983  0.26578210025756704  0.7342179407137152  1.0000
