data_image0
_chemical_formula_structural       Pd2SbF6
_chemical_formula_sum              "Pd2 Sb1 F6"
_cell_length_a       5.821395727400654
_cell_length_b       5.821395647938145
_cell_length_c       5.821395218143836
_cell_angle_alpha    60.00000253066848
_cell_angle_beta     60.00000427141621
_cell_angle_gamma    60.00000115429948

_space_group_name_H-M_alt    "P 1"
_space_group_IT_number       1

loop_
  _space_group_symop_operation_xyz
  'x, y, z'

loop_
  _atom_site_type_symbol
  _atom_site_label
  _atom_site_symmetry_multiplicity
  _atom_site_fract_x
  _atom_site_fract_y
  _atom_site_fract_z
  _atom_site_occupancy
  Pd  Pd1       1.0  0.2500000186407707  0.25000003330119364  0.24999991339958788  1.0000
  Pd  Pd2       1.0  0.7499999911872373  0.7500000620339554  0.7499999203362068  1.0000
  Sb  Sb1       1.0  1.3403529462871663e-08  2.524641729373956e-08  0.9999998758891503  1.0000
  F   F1        1.0  0.23727718331451056  0.23727709736272723  0.7627229622415378  1.0000
  F   F2        1.0  0.7627228993650178  0.7627229222331693  0.23727716324653542  1.0000
  F   F3        1.0  0.7627228666201671  0.23727712015645  0.2372771225464417  1.0000
  F   F4        1.0  0.23727708765146235  0.7627228026615164  0.7627229609324321  1.0000
  F   F5        1.0  0.2372770816837804  0.7627228700901891  0.23727713492825409  1.0000
  F   F6        1.0  0.7627228552962588  0.23727709270127106  0.762722906289245  1.0000
