data_image0
_chemical_formula_structural       Pd2TaBr6
_chemical_formula_sum              "Pd2 Ta1 Br6"
_cell_length_a       7.193205547499554
_cell_length_b       7.193205611729032
_cell_length_c       7.193205677155924
_cell_angle_alpha    60.00000013626559
_cell_angle_beta     59.99999988312847
_cell_angle_gamma    59.99999990150587

_space_group_name_H-M_alt    "P 1"
_space_group_IT_number       1

loop_
  _space_group_symop_operation_xyz
  'x, y, z'

loop_
  _atom_site_type_symbol
  _atom_site_label
  _atom_site_symmetry_multiplicity
  _atom_site_fract_x
  _atom_site_fract_y
  _atom_site_fract_z
  _atom_site_occupancy
  Pd  Pd1       1.0  0.2499999761366609  0.2500000587183955  0.25000001230585206  1.0000
  Pd  Pd2       1.0  0.7499999925093901  0.7500000416465263  0.7500000290259585  1.0000
  Ta  Ta1       1.0  0.9999999782079112  0.9999999642445334  0.9999999745559479  1.0000
  Br  Br1       1.0  0.24771082337725864  0.24771072971826288  0.7522892200026362  1.0000
  Br  Br2       1.0  0.7522892437269929  0.7522892582723348  0.24771074348498973  1.0000
  Br  Br3       1.0  0.752289234612765  0.2477107681019555  0.24771079642680627  1.0000
  Br  Br4       1.0  0.2477107479799572  0.7522892181860015  0.7522892796779423  1.0000
  Br  Br5       1.0  0.2477107552327784  0.752289213194259  0.2477107578015511  1.0000
  Br  Br6       1.0  0.7522892358731497  0.24771074755407857  0.7522891864061274  1.0000
