data_image0
_chemical_formula_structural       Pt2AsO6
_chemical_formula_sum              "Pt2 As1 O6"
_cell_length_a       5.214515305295243
_cell_length_b       5.214515556088246
_cell_length_c       5.214515257567022
_cell_angle_alpha    60.00000048472886
_cell_angle_beta     60.0000005621187
_cell_angle_gamma    60.00000045243928

_space_group_name_H-M_alt    "P 1"
_space_group_IT_number       1

loop_
  _space_group_symop_operation_xyz
  'x, y, z'

loop_
  _atom_site_type_symbol
  _atom_site_label
  _atom_site_symmetry_multiplicity
  _atom_site_fract_x
  _atom_site_fract_y
  _atom_site_fract_z
  _atom_site_occupancy
  Pt  Pt1       1.0  0.2500013601516898  0.24999792050421982  0.24999963283358256  1.0000
  Pt  Pt2       1.0  0.7500010402398657  0.749998012699914  0.7499987590215538  1.0000
  As  As1       1.0  2.395538724293533e-08  2.11384985336081e-08  5.7997456413576336e-08  1.0000
  O   O1        1.0  0.24414986081479723  0.244150829144196  0.7558500254041369  1.0000
  O   O2        1.0  0.7558487007696695  0.7558506681828737  0.2441510343225196  1.0000
  O   O3        1.0  0.7558496183587824  0.24415069331644904  0.2441501922770741  1.0000
  O   O4        1.0  0.24415034788274334  0.7558499913527346  0.7558495819045279  1.0000
  O   O5        1.0  0.24414971010599712  0.7558503993103604  0.24415091596806535  1.0000
  O   O6        1.0  0.7558493797289517  0.24415145971992744  0.7558497927502041  1.0000
