data_image0
_chemical_formula_structural       Pt2AsCl6
_chemical_formula_sum              "Pt2 As1 Cl6"
_cell_length_a       6.4029423738160745
_cell_length_b       6.402942399830482
_cell_length_c       6.402942128761385
_cell_angle_alpha    60.00000173671927
_cell_angle_beta     60.00000297645135
_cell_angle_gamma    60.00000150530803

_space_group_name_H-M_alt    "P 1"
_space_group_IT_number       1

loop_
  _space_group_symop_operation_xyz
  'x, y, z'

loop_
  _atom_site_type_symbol
  _atom_site_label
  _atom_site_symmetry_multiplicity
  _atom_site_fract_x
  _atom_site_fract_y
  _atom_site_fract_z
  _atom_site_occupancy
  Pt  Pt1       1.0  0.25000010813501666  0.24999980642001984  0.25000004902886686  1.0000
  Pt  Pt2       1.0  0.7500000818471506  0.7500000657811955  0.7500000653621974  1.0000
  As  As1       1.0  0.9999999570655799  0.999999950267605  2.6035098772109795e-09  1.0000
  Cl  Cl1       1.0  0.2541688603443973  0.2541689138605498  0.745831076416111  1.0000
  Cl  Cl2       1.0  0.7458311297113134  0.7458312605606052  0.2541688056614938  1.0000
  Cl  Cl3       1.0  0.7458311440062895  0.25416893978907806  0.2541688993107159  1.0000
  Cl  Cl4       1.0  0.2541687918039976  0.7458311160394423  0.7458311207247242  1.0000
  Cl  Cl5       1.0  0.2541688446484352  0.7458310943894345  0.25416889317980007  1.0000
  Cl  Cl6       1.0  0.7458310834763946  0.2541688600615116  0.7458310720624127  1.0000
