data_image0
_chemical_formula_structural       Pt2BI6
_chemical_formula_sum              "Pt2 B1 I6"
_cell_length_a       7.1827432654259145
_cell_length_b       7.182743204752646
_cell_length_c       7.182743538195671
_cell_angle_alpha    59.999997079400956
_cell_angle_beta     59.999997117047656
_cell_angle_gamma    59.99999702574329

_space_group_name_H-M_alt    "P 1"
_space_group_IT_number       1

loop_
  _space_group_symop_operation_xyz
  'x, y, z'

loop_
  _atom_site_type_symbol
  _atom_site_label
  _atom_site_symmetry_multiplicity
  _atom_site_fract_x
  _atom_site_fract_y
  _atom_site_fract_z
  _atom_site_occupancy
  Pt  Pt1       1.0  0.2500002253370072  0.24999984308792061  0.24999983074597418  1.0000
  Pt  Pt2       1.0  0.7500000735716168  0.7500001260562557  0.7499996301072699  1.0000
  B   B1        1.0  3.885831357314698e-08  1.3640970810736417e-08  0.9999999709659059  1.0000
  I   I1        1.0  0.23944711883371864  0.23944723426876052  0.7605528043277224  1.0000
  I   I2        1.0  0.7605527157030112  0.7605528354775786  0.23944730062931763  1.0000
  I   I3        1.0  0.760552705166595  0.2394472093115351  0.2394473217281593  1.0000
  I   I4        1.0  0.23944721967464264  0.7605527052687545  0.7605529646277998  1.0000
  I   I5        1.0  0.23944715944176997  0.7605528296054228  0.2394472464135014  1.0000
  I   I6        1.0  0.7605527437678  0.2394472077436082  0.7605529295082156  1.0000
