data_image0
_chemical_formula_structural       Pt2BF6
_chemical_formula_sum              "Pt2 B1 F6"
_cell_length_a       5.150923154622836
_cell_length_b       5.1509233346565315
_cell_length_c       5.150923222984019
_cell_angle_alpha    60.000000611842204
_cell_angle_beta     60.00000055542645
_cell_angle_gamma    59.999998600987475

_space_group_name_H-M_alt    "P 1"
_space_group_IT_number       1

loop_
  _space_group_symop_operation_xyz
  'x, y, z'

loop_
  _atom_site_type_symbol
  _atom_site_label
  _atom_site_symmetry_multiplicity
  _atom_site_fract_x
  _atom_site_fract_y
  _atom_site_fract_z
  _atom_site_occupancy
  Pt  Pt1       1.0  0.25000009911229293  0.2500000943282481  0.2499998852559552  1.0000
  Pt  Pt2       1.0  0.749999944005298  0.7500001593433605  0.7500001155738936  1.0000
  B   B1        1.0  0.9999999790551429  0.9999999619564951  7.220497087344543e-08  1.0000
  F   F1        1.0  0.22845701814322372  0.22845693039035275  0.7715430072750198  1.0000
  F   F2        1.0  0.7715430395166545  0.7715430308218097  0.22845689566266428  1.0000
  F   F3        1.0  0.7715430232928605  0.22845692662033384  0.2284569552861915  1.0000
  F   F4        1.0  0.2284569205824626  0.7715430060592027  0.7715430634622719  1.0000
  F   F5        1.0  0.2284569449716289  0.7715430039930259  0.22845693377396672  1.0000
  F   F6        1.0  0.7715430379650802  0.22845687875440904  0.7715430651716606  1.0000
