data_image0
_chemical_formula_structural       Pt2BiCl6
_chemical_formula_sum              "Pt2 Bi1 Cl6"
_cell_length_a       6.718370527288349
_cell_length_b       6.7183706785162345
_cell_length_c       6.718370614919762
_cell_angle_alpha    60.00000092508638
_cell_angle_beta     60.000000040483926
_cell_angle_gamma    59.99999976198675

_space_group_name_H-M_alt    "P 1"
_space_group_IT_number       1

loop_
  _space_group_symop_operation_xyz
  'x, y, z'

loop_
  _atom_site_type_symbol
  _atom_site_label
  _atom_site_symmetry_multiplicity
  _atom_site_fract_x
  _atom_site_fract_y
  _atom_site_fract_z
  _atom_site_occupancy
  Pt  Pt1       1.0  0.2499999127175874  0.25000007158338533  0.25000010702516573  1.0000
  Pt  Pt2       1.0  0.749999939976009  0.7499999959926736  0.7500001375317725  1.0000
  Bi  Bi1       1.0  1.953147974011394e-08  0.9999999671863774  0.9999999113798783  1.0000
  Cl  Cl1       1.0  0.26278596280083355  0.26278591269181706  0.7372140458125714  1.0000
  Cl  Cl2       1.0  0.7372140929640358  0.7372140509744357  0.2627859199413879  1.0000
  Cl  Cl3       1.0  0.737214074024016  0.26278598769691996  0.2627858884591154  1.0000
  Cl  Cl4       1.0  0.2627859233370412  0.7372140944629677  0.7372140234346347  1.0000
  Cl  Cl5       1.0  0.2627859651944872  0.7372140446203994  0.2627859178909868  1.0000
  Cl  Cl6       1.0  0.7372141086959147  0.26278586982542007  0.7372140440604928  1.0000
