data_image0
_chemical_formula_structural       Pt2BiF6
_chemical_formula_sum              "Pt2 Bi1 F6"
_cell_length_a       5.63759934734108
_cell_length_b       5.637599323804258
_cell_length_c       5.637599366058641
_cell_angle_alpha    59.99999934303371
_cell_angle_beta     60.00000121240673
_cell_angle_gamma    59.99999998187357

_space_group_name_H-M_alt    "P 1"
_space_group_IT_number       1

loop_
  _space_group_symop_operation_xyz
  'x, y, z'

loop_
  _atom_site_type_symbol
  _atom_site_label
  _atom_site_symmetry_multiplicity
  _atom_site_fract_x
  _atom_site_fract_y
  _atom_site_fract_z
  _atom_site_occupancy
  Pt  Pt1       1.0  0.2500001115758564  0.24999982776048812  0.24999992509159488  1.0000
  Pt  Pt2       1.0  0.7499997894588634  0.7500000437756749  0.7499999166616161  1.0000
  Bi  Bi1       1.0  4.923506293895826e-09  2.8241956751176583e-08  0.9999999550363939  1.0000
  F   F1        1.0  0.2628211124690488  0.2628211432987051  0.737178970414567  1.0000
  F   F2        1.0  0.7371788206305943  0.7371789085514836  0.2628211926360911  1.0000
  F   F3        1.0  0.7371789168411037  0.26282103356933406  0.26282117573363556  1.0000
  F   F4        1.0  0.26282130226657013  0.737178842311743  0.7371788187740687  1.0000
  F   F5        1.0  0.26282112578449757  0.7371789902635969  0.26282110976775175  1.0000
  F   F6        1.0  0.7371788279604975  0.26282119627899997  0.7371789259474959  1.0000
