data_image0
_chemical_formula_structural       Pt2GaBr6
_chemical_formula_sum              "Pt2 Ga1 Br6"
_cell_length_a       6.899494142042075
_cell_length_b       6.8994930012064
_cell_length_c       6.899493107524376
_cell_angle_alpha    59.999999325887394
_cell_angle_beta     60.000000102211786
_cell_angle_gamma    59.999997366947625

_space_group_name_H-M_alt    "P 1"
_space_group_IT_number       1

loop_
  _space_group_symop_operation_xyz
  'x, y, z'

loop_
  _atom_site_type_symbol
  _atom_site_label
  _atom_site_symmetry_multiplicity
  _atom_site_fract_x
  _atom_site_fract_y
  _atom_site_fract_z
  _atom_site_occupancy
  Pt  Pt1       1.0  0.2499998093308788  0.2500000940094498  0.24999993104154522  1.0000
  Pt  Pt2       1.0  0.7500000552220085  0.7500002429756553  0.7500001034285  1.0000
  Ga  Ga1       1.0  7.298008457126161e-08  0.9999999467463098  4.2314546369784204e-08  1.0000
  Br  Br1       1.0  0.2538206745254008  0.25382057535084196  0.7461793150585568  1.0000
  Br  Br2       1.0  0.7461792827081429  0.7461793480305889  0.2538206015916817  1.0000
  Br  Br3       1.0  0.7461795298071963  0.2538204884392191  0.2538205640353404  1.0000
  Br  Br4       1.0  0.25382062790472204  0.7461793657124164  0.746179442074458  1.0000
  Br  Br5       1.0  0.2538206236249416  0.7461793203143217  0.253820604159361  1.0000
  Br  Br6       1.0  0.7461793198136981  0.25382062436858727  0.7461793971498832  1.0000
