data_image0
_chemical_formula_structural       Pt2GaI6
_chemical_formula_sum              "Pt2 Ga1 I6"
_cell_length_a       7.486673095615569
_cell_length_b       7.486673220404498
_cell_length_c       7.486673154664067
_cell_angle_alpha    60.00000062781972
_cell_angle_beta     60.00000028068857
_cell_angle_gamma    59.999999779836266

_space_group_name_H-M_alt    "P 1"
_space_group_IT_number       1

loop_
  _space_group_symop_operation_xyz
  'x, y, z'

loop_
  _atom_site_type_symbol
  _atom_site_label
  _atom_site_symmetry_multiplicity
  _atom_site_fract_x
  _atom_site_fract_y
  _atom_site_fract_z
  _atom_site_occupancy
  Pt  Pt1       1.0  0.2499999385730925  0.24999996405514158  0.250000065395666  1.0000
  Pt  Pt2       1.0  0.749999982134374  0.7500000083143225  0.7499999934624905  1.0000
  Ga  Ga1       1.0  0.9999999621899361  0.9999999607384006  2.6514470473465344e-08  1.0000
  I   I1        1.0  0.2592661198392457  0.2592661113714734  0.7407338801510286  1.0000
  I   I2        1.0  0.7407339517984501  0.7407339264339887  0.25926607853825556  1.0000
  I   I3        1.0  0.7407339612404151  0.25926606537097224  0.2592660652603487  1.0000
  I   I4        1.0  0.25926608428708897  0.7407339397164903  0.7407339068145496  1.0000
  I   I5        1.0  0.2592660685154708  0.7407339421323853  0.2592660618132709  1.0000
  I   I6        1.0  0.740733934542841  0.25926607931407736  0.7407339326666708  1.0000
