data_image0
_chemical_formula_structural       Pt2IrBr6
_chemical_formula_sum              "Pt2 Ir1 Br6"
_cell_length_a       6.956559349018692
_cell_length_b       6.9565595435803464
_cell_length_c       6.956559258721877
_cell_angle_alpha    60.000000854420946
_cell_angle_beta     59.99999948614783
_cell_angle_gamma    59.999999461461606

_space_group_name_H-M_alt    "P 1"
_space_group_IT_number       1

loop_
  _space_group_symop_operation_xyz
  'x, y, z'

loop_
  _atom_site_type_symbol
  _atom_site_label
  _atom_site_symmetry_multiplicity
  _atom_site_fract_x
  _atom_site_fract_y
  _atom_site_fract_z
  _atom_site_occupancy
  Pt  Pt1       1.0  0.24999995195789804  0.24999998228619508  0.24999990949341389  1.0000
  Pt  Pt2       1.0  0.7499999648557354  0.749999918689604  0.7499999885095904  1.0000
  Ir  Ir1       1.0  4.09070058533557e-09  1.7605611558425698e-08  2.5089150006663673e-08  1.0000
  Br  Br1       1.0  0.24887553881793065  0.24887554076109927  0.7511244591169164  1.0000
  Br  Br2       1.0  0.7511244293826645  0.7511244799328585  0.2488755545824413  1.0000
  Br  Br3       1.0  0.7511244890756704  0.24887558118017694  0.24887556593541804  1.0000
  Br  Br4       1.0  0.24887554979464882  0.751124476485564  0.7511244600678287  1.0000
  Br  Br5       1.0  0.24887555911205772  0.7511244528951465  0.24887561542901804  1.0000
  Br  Br6       1.0  0.7511245106428587  0.24887555195375896  0.7511244215403479  1.0000
