data_image0
_chemical_formula_structural       Pt2IrI6
_chemical_formula_sum              "Pt2 Ir1 I6"
_cell_length_a       7.323299711489943
_cell_length_b       7.323299651217837
_cell_length_c       7.323299620399459
_cell_angle_alpha    60.0000013880564
_cell_angle_beta     60.000000235166965
_cell_angle_gamma    59.99999926517648

_space_group_name_H-M_alt    "P 1"
_space_group_IT_number       1

loop_
  _space_group_symop_operation_xyz
  'x, y, z'

loop_
  _atom_site_type_symbol
  _atom_site_label
  _atom_site_symmetry_multiplicity
  _atom_site_fract_x
  _atom_site_fract_y
  _atom_site_fract_z
  _atom_site_occupancy
  Pt  Pt1       1.0  0.2500000426920462  0.24999998932126152  0.24999997916500669  1.0000
  Pt  Pt2       1.0  0.7499999955171667  0.750000001411684  0.7500000143606504  1.0000
  Ir  Ir1       1.0  1.941562785196601e-08  0.9999999464833653  6.347766245852846e-08  1.0000
  I   I1        1.0  0.2545979747072897  0.2545980054702641  0.7454019887068251  1.0000
  I   I2        1.0  0.7454020011478996  0.7454020304173425  0.2545979806464014  1.0000
  I   I3        1.0  0.7454020908265458  0.254597915819372  0.2545979152069714  1.0000
  I   I4        1.0  0.2545979258656463  0.7454020732411789  0.7454020762583469  1.0000
  I   I5        1.0  0.2545979247029477  0.745402079344943  0.25459792725421315  1.0000
  I   I6        1.0  0.7454020238856895  0.25459795319787465  0.7454020574046839  1.0000
