data_image0
_chemical_formula_structural       Pt2MoBr6
_chemical_formula_sum              "Pt2 Mo1 Br6"
_cell_length_a       7.045915040938908
_cell_length_b       7.045914771324851
_cell_length_c       7.045914966346475
_cell_angle_alpha    59.99999933160404
_cell_angle_beta     60.00000091816577
_cell_angle_gamma    59.999999234561855

_space_group_name_H-M_alt    "P 1"
_space_group_IT_number       1

loop_
  _space_group_symop_operation_xyz
  'x, y, z'

loop_
  _atom_site_type_symbol
  _atom_site_label
  _atom_site_symmetry_multiplicity
  _atom_site_fract_x
  _atom_site_fract_y
  _atom_site_fract_z
  _atom_site_occupancy
  Pt  Pt1       1.0  0.24999990908546166  0.25000020715975546  0.24999996567538205  1.0000
  Pt  Pt2       1.0  0.7499999678426883  0.7500000078826514  0.7500000750157293  1.0000
  Mo  Mo1       1.0  2.5775276299238247e-08  0.9999999374235746  0.9999999985309053  1.0000
  Br  Br1       1.0  0.24960817185922685  0.24960815575353962  0.7503917999298201  1.0000
  Br  Br2       1.0  0.7503918753788142  0.7503917794331872  0.24960817063912197  1.0000
  Br  Br3       1.0  0.7503918912876766  0.24960815760356553  0.24960812881870006  1.0000
  Br  Br4       1.0  0.2496081537321306  0.7503917793213954  0.7503918675369594  1.0000
  Br  Br5       1.0  0.24960815855618726  0.7503918398309664  0.2496081542760517  1.0000
  Br  Br6       1.0  0.7503918462371736  0.2496081440263134  0.7503918415651957  1.0000
