data_image0
_chemical_formula_structural       Pt2MoI6
_chemical_formula_sum              "Pt2 Mo1 I6"
_cell_length_a       7.538476907962225
_cell_length_b       7.53847687514461
_cell_length_c       7.5384767317724295
_cell_angle_alpha    59.99999964245832
_cell_angle_beta     59.999999118535534
_cell_angle_gamma    59.99999763427023

_space_group_name_H-M_alt    "P 1"
_space_group_IT_number       1

loop_
  _space_group_symop_operation_xyz
  'x, y, z'

loop_
  _atom_site_type_symbol
  _atom_site_label
  _atom_site_symmetry_multiplicity
  _atom_site_fract_x
  _atom_site_fract_y
  _atom_site_fract_z
  _atom_site_occupancy
  Pt  Pt1       1.0  0.24999999858477262  0.24999991532410312  0.25000001339686617  1.0000
  Pt  Pt2       1.0  0.7500000043367114  0.7500000189148995  0.7499999193260235  1.0000
  Mo  Mo1       1.0  2.430610551535097e-08  3.7367139641455405e-08  4.979631184146607e-09  1.0000
  I   I1        1.0  0.2562599356363591  0.2562598916466387  0.7437400770284716  1.0000
  I   I2        1.0  0.7437400850925959  0.7437400994554026  0.25625992846098183  1.0000
  I   I3        1.0  0.743740121008258  0.2562598673512519  0.2562598827602469  1.0000
  I   I4        1.0  0.2562598851147135  0.7437401399973725  0.7437401510925212  1.0000
  I   I5        1.0  0.2562598358593134  0.7437401375280698  0.256259921890668  1.0000
  I   I6        1.0  0.7437401100611211  0.2562598941904302  0.7437401073274567  1.0000
