data_image0
_chemical_formula_structural       Pt2NF6
_chemical_formula_sum              "Pt2 N1 F6"
_cell_length_a       5.066308057690783
_cell_length_b       5.066308023430203
_cell_length_c       5.066307849216262
_cell_angle_alpha    59.99999996236615
_cell_angle_beta     60.00000063613668
_cell_angle_gamma    59.99999938946502

_space_group_name_H-M_alt    "P 1"
_space_group_IT_number       1

loop_
  _space_group_symop_operation_xyz
  'x, y, z'

loop_
  _atom_site_type_symbol
  _atom_site_label
  _atom_site_symmetry_multiplicity
  _atom_site_fract_x
  _atom_site_fract_y
  _atom_site_fract_z
  _atom_site_occupancy
  Pt  Pt1       1.0  0.24999998408450494  0.25000004615214805  0.2499999468268997  1.0000
  Pt  Pt2       1.0  0.7499999216801672  0.7500001481261669  0.7499998923828155  1.0000
  N   N1        1.0  4.079609138284773e-08  0.9999999323119384  6.871305737439127e-08  1.0000
  F   F1        1.0  0.24175551867983464  0.24175539820382697  0.7582445560054781  1.0000
  F   F2        1.0  0.75824455791254  0.7582445229048113  0.24175550215026537  1.0000
  F   F3        1.0  0.7582445578259658  0.24175542893270272  0.24175550192745615  1.0000
  F   F4        1.0  0.24175550589716602  0.7582444897585046  0.7582445776883922  1.0000
  F   F5        1.0  0.2417554047330548  0.758244524233067  0.24175547972133937  1.0000
  F   F6        1.0  0.7582445149398108  0.24175549840766455  0.758244487698672  1.0000
