data_image0
_chemical_formula_structural       Pt2NO6
_chemical_formula_sum              "Pt2 N1 O6"
_cell_length_a       4.7091008618244565
_cell_length_b       4.709100839057206
_cell_length_c       4.709100854050466
_cell_angle_alpha    60.000000224049856
_cell_angle_beta     60.00000118386151
_cell_angle_gamma    60.00000148517533

_space_group_name_H-M_alt    "P 1"
_space_group_IT_number       1

loop_
  _space_group_symop_operation_xyz
  'x, y, z'

loop_
  _atom_site_type_symbol
  _atom_site_label
  _atom_site_symmetry_multiplicity
  _atom_site_fract_x
  _atom_site_fract_y
  _atom_site_fract_z
  _atom_site_occupancy
  Pt  Pt1       1.0  0.25000024788110276  0.2500000322725847  0.2499999567468475  1.0000
  Pt  Pt2       1.0  0.7500001338280707  0.7499998003260808  0.7500004847836125  1.0000
  N   N1        1.0  8.17275840021004e-07  2.184675536405478e-07  0.9999999854091011  1.0000
  O   O1        1.0  0.2500608745705538  0.2500609454390233  0.7499390090732759  1.0000
  O   O2        1.0  0.7499385398663142  0.7499386478856541  0.25006125426479076  1.0000
  O   O3        1.0  0.7499387607844298  0.2500611815594024  0.25006099217152017  1.0000
  O   O4        1.0  0.25006109855906283  0.749938783680264  0.7499387778138389  1.0000
  O   O5        1.0  0.2500609667068499  0.7499390518296748  0.2500608682350095  1.0000
  O   O6        1.0  0.7499385584803634  0.2500613347402472  0.7499386691676198  1.0000
