data_image0
_chemical_formula_structural       Pt2PCl6
_chemical_formula_sum              "Pt2 P1 Cl6"
_cell_length_a       6.480579925381345
_cell_length_b       6.480579846602228
_cell_length_c       6.480579925892056
_cell_angle_alpha    59.999998132674094
_cell_angle_beta     59.99999907693266
_cell_angle_gamma    59.99999783791916

_space_group_name_H-M_alt    "P 1"
_space_group_IT_number       1

loop_
  _space_group_symop_operation_xyz
  'x, y, z'

loop_
  _atom_site_type_symbol
  _atom_site_label
  _atom_site_symmetry_multiplicity
  _atom_site_fract_x
  _atom_site_fract_y
  _atom_site_fract_z
  _atom_site_occupancy
  Pt  Pt1       1.0  0.24999988041971202  0.25000009511384136  0.2500000659128712  1.0000
  Pt  Pt2       1.0  0.7499999416307288  0.7499999508346542  0.7500000296376405  1.0000
  P   P1        1.0  2.987656990532228e-08  0.9999999905506533  0.9999999789848859  1.0000
  Cl  Cl1       1.0  0.2404735701332533  0.2404735730308808  0.7595263907733234  1.0000
  Cl  Cl2       1.0  0.7595264295029048  0.7595264105519264  0.24047359161658924  1.0000
  Cl  Cl3       1.0  0.7595264690421691  0.24047354105348615  0.24047355802963066  1.0000
  Cl  Cl4       1.0  0.2404736047804924  0.7595264765469674  0.7595264288949337  1.0000
  Cl  Cl5       1.0  0.24047358333709723  0.7595264644489849  0.2404735200839703  1.0000
  Cl  Cl6       1.0  0.7595264756198662  0.24047352291355983  0.7595264647032496  1.0000
