data_image0
_chemical_formula_structural       Pt2PI6
_chemical_formula_sum              "Pt2 P1 I6"
_cell_length_a       7.457623780774754
_cell_length_b       7.4576238800488035
_cell_length_c       7.457623775539804
_cell_angle_alpha    59.99999879067862
_cell_angle_beta     59.99999955548874
_cell_angle_gamma    59.99999968222162

_space_group_name_H-M_alt    "P 1"
_space_group_IT_number       1

loop_
  _space_group_symop_operation_xyz
  'x, y, z'

loop_
  _atom_site_type_symbol
  _atom_site_label
  _atom_site_symmetry_multiplicity
  _atom_site_fract_x
  _atom_site_fract_y
  _atom_site_fract_z
  _atom_site_occupancy
  Pt  Pt1       1.0  0.24999994641375609  0.2500001505586696  0.25000007247298595  1.0000
  Pt  Pt2       1.0  0.7499999790705993  0.7499999392870702  0.7499999732667565  1.0000
  P   P1        1.0  1.9315460103622698e-08  0.9999999885040938  2.0226597595014563e-08  1.0000
  I   I1        1.0  0.25898899964116767  0.2589890141021384  0.7410109452865404  1.0000
  I   I2        1.0  0.7410110020585234  0.7410109492886385  0.2589890545048033  1.0000
  I   I3        1.0  0.7410109812330801  0.25898901408929403  0.25898899486638666  1.0000
  I   I4        1.0  0.2589890443331954  0.7410109427323941  0.7410109868898413  1.0000
  I   I5        1.0  0.2589890507706279  0.741010939525759  0.2589889876254927  1.0000
  I   I6        1.0  0.7410109803315826  0.2589890517836465  0.7410109741189085  1.0000
