data_image0
_chemical_formula_structural       Pt2PF6
_chemical_formula_sum              "Pt2 P1 F6"
_cell_length_a       6.02233427091644
_cell_length_b       6.022333933077201
_cell_length_c       6.022334895321472
_cell_angle_alpha    60.00001039356982
_cell_angle_beta     60.000006223807894
_cell_angle_gamma    60.00002078387719

_space_group_name_H-M_alt    "P 1"
_space_group_IT_number       1

loop_
  _space_group_symop_operation_xyz
  'x, y, z'

loop_
  _atom_site_type_symbol
  _atom_site_label
  _atom_site_symmetry_multiplicity
  _atom_site_fract_x
  _atom_site_fract_y
  _atom_site_fract_z
  _atom_site_occupancy
  Pt  Pt1       1.0  0.249999076681448  0.2500001135053007  0.2500025868816818  1.0000
  Pt  Pt2       1.0  0.7500008442702436  0.7500028887060449  0.7500016058788588  1.0000
  P   P1        1.0  4.4567952520715824e-08  0.9999997742624434  0.9999996123649436  1.0000
  F   F1        1.0  0.1931666929986876  0.19316649266966937  0.8068325515834134  1.0000
  F   F2        1.0  0.806833461254089  0.8068328875723281  0.1931656723700879  1.0000
  F   F3        1.0  0.8068329420481632  0.1931663983719817  0.1931660512092711  1.0000
  F   F4        1.0  0.19316679464810038  0.8068328252773078  0.8068327670086162  1.0000
  F   F5        1.0  0.19316670346066492  0.8068328219695161  0.1931663237275916  1.0000
  F   F6        1.0  0.8068335036378249  0.19316586479069087  0.8068326472886533  1.0000
