data_image0
_chemical_formula_structural       Pt2RuBr6
_chemical_formula_sum              "Pt2 Ru1 Br6"
_cell_length_a       6.988229208387375
_cell_length_b       6.98822833992657
_cell_length_c       6.98822892057005
_cell_angle_alpha    59.99999544072359
_cell_angle_beta     60.00000117089032
_cell_angle_gamma    60.00000017392821

_space_group_name_H-M_alt    "P 1"
_space_group_IT_number       1

loop_
  _space_group_symop_operation_xyz
  'x, y, z'

loop_
  _atom_site_type_symbol
  _atom_site_label
  _atom_site_symmetry_multiplicity
  _atom_site_fract_x
  _atom_site_fract_y
  _atom_site_fract_z
  _atom_site_occupancy
  Pt  Pt1       1.0  0.24999989545113285  0.25000029818907593  0.24999989935609937  1.0000
  Pt  Pt2       1.0  0.7500001098455601  0.7499995398206821  0.7500001350759534  1.0000
  Ru  Ru1       1.0  1.58390802539353e-08  7.010332467767673e-09  0.9999999799894271  1.0000
  Br  Br1       1.0  0.24858699500608153  0.248587005383397  0.7514130088408633  1.0000
  Br  Br2       1.0  0.7514130085178775  0.751413041183723  0.24858697371407112  1.0000
  Br  Br3       1.0  0.7514129921143661  0.2485870384572619  0.24858697121488582  1.0000
  Br  Br4       1.0  0.24858700282994614  0.7514130536770124  0.7514129971392273  1.0000
  Br  Br5       1.0  0.24858696561581095  0.7514130145621701  0.2485869301575553  1.0000
  Br  Br6       1.0  0.7514130159608254  0.24858699870587328  0.7514131086401339  1.0000
