data_image0
_chemical_formula_structural       Pt2RuI6
_chemical_formula_sum              "Pt2 Ru1 I6"
_cell_length_a       7.3934491437260865
_cell_length_b       7.393449158922557
_cell_length_c       7.393449318877918
_cell_angle_alpha    59.999999800922616
_cell_angle_beta     59.99999948223222
_cell_angle_gamma    59.9999993695807

_space_group_name_H-M_alt    "P 1"
_space_group_IT_number       1

loop_
  _space_group_symop_operation_xyz
  'x, y, z'

loop_
  _atom_site_type_symbol
  _atom_site_label
  _atom_site_symmetry_multiplicity
  _atom_site_fract_x
  _atom_site_fract_y
  _atom_site_fract_z
  _atom_site_occupancy
  Pt  Pt1       1.0  0.2499999617889868  0.25000002341304145  0.25000002924151465  1.0000
  Pt  Pt2       1.0  0.7499999476977964  0.7499999956954053  0.750000050549428  1.0000
  Ru  Ru1       1.0  0.9999999926322392  3.147401493027748e-08  6.098450092638082e-08  1.0000
  I   I1        1.0  0.2535538112156237  0.2535537534877049  0.7464462287673743  1.0000
  I   I2        1.0  0.7464462385804383  0.7464462242075639  0.2535537704668988  1.0000
  I   I3        1.0  0.7464462564891469  0.25355375790060786  0.2535537291083427  1.0000
  I   I4        1.0  0.2535538296232637  0.7464461717553751  0.74644616372586  1.0000
  I   I5        1.0  0.2535537754142209  0.7464462273425625  0.25355374397398067  1.0000
  I   I6        1.0  0.7464461878040382  0.2535538133007356  0.746446223793622  1.0000
