data_image0
_chemical_formula_structural       Pt2RuF6
_chemical_formula_sum              "Pt2 Ru1 F6"
_cell_length_a       5.807529480449568
_cell_length_b       5.8075293605209986
_cell_length_c       5.807529451922998
_cell_angle_alpha    60.00000026316764
_cell_angle_beta     59.99999355760854
_cell_angle_gamma    59.99999182426237

_space_group_name_H-M_alt    "P 1"
_space_group_IT_number       1

loop_
  _space_group_symop_operation_xyz
  'x, y, z'

loop_
  _atom_site_type_symbol
  _atom_site_label
  _atom_site_symmetry_multiplicity
  _atom_site_fract_x
  _atom_site_fract_y
  _atom_site_fract_z
  _atom_site_occupancy
  Pt  Pt1       1.0  0.2499998321886078  0.2500006583477426  0.24999904189276614  1.0000
  Pt  Pt2       1.0  0.7500002620863326  0.7500000960209581  0.749999418106939  1.0000
  Ru  Ru1       1.0  7.344582474877209e-08  6.326668567550198e-09  0.9999999601137497  1.0000
  F   F1        1.0  0.23405769801060886  0.23405783475586725  0.7659424898836854  1.0000
  F   F2        1.0  0.7659426983560149  0.7659421266696868  0.23405788750914594  1.0000
  F   F3        1.0  0.7659425466755914  0.2340572042542583  0.23405764956417544  1.0000
  F   F4        1.0  0.23405741472972744  0.7659421413750204  0.7659429518745111  1.0000
  F   F5        1.0  0.23405711407954144  0.76594243970793  0.23405784154618198  1.0000
  F   F6        1.0  0.7659423317676874  0.23405752804436408  0.765942756545246  1.0000
