data_image0
_chemical_formula_structural       Pt2RhBr6
_chemical_formula_sum              "Pt2 Rh1 Br6"
_cell_length_a       6.913937145204389
_cell_length_b       6.913936709697333
_cell_length_c       6.91393710923069
_cell_angle_alpha    60.000000865968026
_cell_angle_beta     60.000002813518286
_cell_angle_gamma    60.00000342873084

_space_group_name_H-M_alt    "P 1"
_space_group_IT_number       1

loop_
  _space_group_symop_operation_xyz
  'x, y, z'

loop_
  _atom_site_type_symbol
  _atom_site_label
  _atom_site_symmetry_multiplicity
  _atom_site_fract_x
  _atom_site_fract_y
  _atom_site_fract_z
  _atom_site_occupancy
  Pt  Pt1       1.0  0.2499999342692783  0.24999995216639048  0.2500000012670961  1.0000
  Pt  Pt2       1.0  0.7500002388906284  0.7499998759847556  0.750000039253521  1.0000
  Rh  Rh1       1.0  0.9999999699380998  0.9999999999999988  1.503095009095181e-08  1.0000
  Br  Br1       1.0  0.2492761681877106  0.2492762390470811  0.7507237835609702  1.0000
  Br  Br2       1.0  0.7507237534055283  0.750723877844637  0.24927619787478597  1.0000
  Br  Br3       1.0  0.750723817746669  0.24927621851303466  0.24927618990442904  1.0000
  Br  Br4       1.0  0.24927620273886933  0.7507237920938097  0.7507237764250135  1.0000
  Br  Br5       1.0  0.24927616763121885  0.7507237972525919  0.2492762232155689  1.0000
  Br  Br6       1.0  0.7507237474176693  0.2492762540967843  0.7507237682291619  1.0000
