data_image0
_chemical_formula_structural       Pt2RhI6
_chemical_formula_sum              "Pt2 Rh1 I6"
_cell_length_a       7.315164047140214
_cell_length_b       7.315164064449277
_cell_length_c       7.31516409237176
_cell_angle_alpha    59.99999996992849
_cell_angle_beta     59.99999972971413
_cell_angle_gamma    60.00000171599408

_space_group_name_H-M_alt    "P 1"
_space_group_IT_number       1

loop_
  _space_group_symop_operation_xyz
  'x, y, z'

loop_
  _atom_site_type_symbol
  _atom_site_label
  _atom_site_symmetry_multiplicity
  _atom_site_fract_x
  _atom_site_fract_y
  _atom_site_fract_z
  _atom_site_occupancy
  Pt  Pt1       1.0  0.24999998789548064  0.24999998681887847  0.2500000323600795  1.0000
  Pt  Pt2       1.0  0.7500000346233059  0.7499999654794012  0.7500000645685169  1.0000
  Rh  Rh1       1.0  0.9999999779967159  0.9999999949772352  6.545991110620824e-08  1.0000
  I   I1        1.0  0.2534872524826185  0.2534872460242088  0.7465127491136736  1.0000
  I   I2        1.0  0.7465127675630406  0.7465128084036141  0.2534871858908015  1.0000
  I   I3        1.0  0.7465127483001235  0.2534872872128473  0.2534872067314144  1.0000
  I   I4        1.0  0.25348724810085266  0.7465127102903116  0.7465127193448944  1.0000
  I   I5        1.0  0.2534872625667892  0.7465127246984757  0.25348726700127455  1.0000
  I   I6        1.0  0.7465127205523293  0.2534872795017022  0.7465127088462469  1.0000
