data_image0
_chemical_formula_structural       Pt2RhCl6
_chemical_formula_sum              "Pt2 Rh1 Cl6"
_cell_length_a       6.47801512468825
_cell_length_b       6.478014928372941
_cell_length_c       6.478015078174381
_cell_angle_alpha    60.0000004152294
_cell_angle_beta     60.000000826249405
_cell_angle_gamma    59.99999930710917

_space_group_name_H-M_alt    "P 1"
_space_group_IT_number       1

loop_
  _space_group_symop_operation_xyz
  'x, y, z'

loop_
  _atom_site_type_symbol
  _atom_site_label
  _atom_site_symmetry_multiplicity
  _atom_site_fract_x
  _atom_site_fract_y
  _atom_site_fract_z
  _atom_site_occupancy
  Pt  Pt1       1.0  0.25000005109998413  0.25000006886379983  0.24999996202535002  1.0000
  Pt  Pt2       1.0  0.7499999729842471  0.7499999721548222  0.7499999406275981  1.0000
  Rh  Rh1       1.0  2.3172386383096278e-08  1.8609556270307505e-16  1.7743778685990542e-08  1.0000
  Cl  Cl1       1.0  0.25022348343115486  0.25022344523172335  0.7497765593633811  1.0000
  Cl  Cl2       1.0  0.7497764498912532  0.749776525834051  0.25022352707364454  1.0000
  Cl  Cl3       1.0  0.7497766048109011  0.2502234620921532  0.25022344355802023  1.0000
  Cl  Cl4       1.0  0.2502234530881941  0.749776488176827  0.7497765678338182  1.0000
  Cl  Cl5       1.0  0.25022342825044086  0.7497765431044718  0.25022347349718416  1.0000
  Cl  Cl6       1.0  0.7497765321861847  0.25022350169538604  0.7497764992246996  1.0000
