data_image0
_chemical_formula_structural       Pt2SbI6
_chemical_formula_sum              "Pt2 Sb1 I6"
_cell_length_a       7.752922103172277
_cell_length_b       7.7529219691309335
_cell_length_c       7.752922015198713
_cell_angle_alpha    60.00000011813092
_cell_angle_beta     60.000000940400746
_cell_angle_gamma    59.99999999307576

_space_group_name_H-M_alt    "P 1"
_space_group_IT_number       1

loop_
  _space_group_symop_operation_xyz
  'x, y, z'

loop_
  _atom_site_type_symbol
  _atom_site_label
  _atom_site_symmetry_multiplicity
  _atom_site_fract_x
  _atom_site_fract_y
  _atom_site_fract_z
  _atom_site_occupancy
  Pt  Pt1       1.0  0.2499999982106346  0.24999997290247  0.25000003963228473  1.0000
  Pt  Pt2       1.0  0.7499999687833006  0.7500000766794463  0.7499999135328209  1.0000
  Sb  Sb1       1.0  0.9999999590047761  0.9999999889419574  2.4736796771899543e-08  1.0000
  I   I1        1.0  0.2669242795395543  0.26692421299545077  0.7330757380687396  1.0000
  I   I2        1.0  0.7330757507463814  0.7330757718179309  0.26692427645693784  1.0000
  I   I3        1.0  0.7330757681964287  0.2669242351118788  0.26692422608031163  1.0000
  I   I4        1.0  0.26692423079713945  0.7330757765567489  0.7330757880842539  1.0000
  I   I5        1.0  0.2669242377380313  0.7330757790485374  0.26692419137265133  1.0000
  I   I6        1.0  0.7330758103455549  0.26692418364875914  0.7330758020951907  1.0000
