data_image0
_chemical_formula_structural       Pt2SbBr6
_chemical_formula_sum              "Pt2 Sb1 Br6"
_cell_length_a       7.094811989497441
_cell_length_b       7.09481190649478
_cell_length_c       7.094811909011808
_cell_angle_alpha    59.999998723921664
_cell_angle_beta     60.00000106032048
_cell_angle_gamma    60.00000005580502

_space_group_name_H-M_alt    "P 1"
_space_group_IT_number       1

loop_
  _space_group_symop_operation_xyz
  'x, y, z'

loop_
  _atom_site_type_symbol
  _atom_site_label
  _atom_site_symmetry_multiplicity
  _atom_site_fract_x
  _atom_site_fract_y
  _atom_site_fract_z
  _atom_site_occupancy
  Pt  Pt1       1.0  0.25000004628810435  0.2500000341406095  0.249999948189688  1.0000
  Pt  Pt2       1.0  0.7500000099455134  0.7500000350979117  0.7500000328971829  1.0000
  Sb  Sb1       1.0  0.9999999575855458  5.178761989306605e-09  3.553161344995609e-08  1.0000
  Br  Br1       1.0  0.2549010103877961  0.2549009908784548  0.7450990012091712  1.0000
  Br  Br2       1.0  0.7450989676596282  0.7450990248461864  0.2549009935769529  1.0000
  Br  Br3       1.0  0.745099026211725  0.2549009696285368  0.25490099576025943  1.0000
  Br  Br4       1.0  0.2549010146041765  0.7450989407945988  0.7450989850553642  1.0000
  Br  Br5       1.0  0.25490097088959196  0.7450990129609139  0.254901000171188  1.0000
  Br  Br6       1.0  0.7450989954858968  0.25490098895369345  0.7450990073559212  1.0000
