data_image0
_chemical_formula_structural       Pt2SbCl6
_chemical_formula_sum              "Pt2 Sb1 Cl6"
_cell_length_a       6.649872223238755
_cell_length_b       6.649872292060283
_cell_length_c       6.649872311582069
_cell_angle_alpha    60.00000142632436
_cell_angle_beta     60.00000016200745
_cell_angle_gamma    60.000000790616056

_space_group_name_H-M_alt    "P 1"
_space_group_IT_number       1

loop_
  _space_group_symop_operation_xyz
  'x, y, z'

loop_
  _atom_site_type_symbol
  _atom_site_label
  _atom_site_symmetry_multiplicity
  _atom_site_fract_x
  _atom_site_fract_y
  _atom_site_fract_z
  _atom_site_occupancy
  Pt  Pt1       1.0  0.2500000808688251  0.2500000144634437  0.25000003668232706  1.0000
  Pt  Pt2       1.0  0.7499999769153552  0.7500000747001958  0.749999956555719  1.0000
  Sb  Sb1       1.0  0.9999999958078989  7.367027330695254e-09  0.9999999668329832  1.0000
  Cl  Cl1       1.0  0.2544650810170735  0.2544651646123575  0.7455348464466933  1.0000
  Cl  Cl2       1.0  0.7455348742669068  0.7455348361469463  0.25446510840646264  1.0000
  Cl  Cl3       1.0  0.7455348707224537  0.2544650847459288  0.25446516038282513  1.0000
  Cl  Cl4       1.0  0.25446514539062226  0.7455348220837722  0.7455349117743978  1.0000
  Cl  Cl5       1.0  0.2544651405718021  0.745534827611384  0.2544651258675191  1.0000
  Cl  Cl6       1.0  0.7455348350406928  0.2544651694644067  0.745534880814667  1.0000
