data_image0
_chemical_formula_structural       Pt2SbF6
_chemical_formula_sum              "Pt2 Sb1 F6"
_cell_length_a       5.997981563490575
_cell_length_b       5.997982333918968
_cell_length_c       5.997981553407168
_cell_angle_alpha    59.99999994361334
_cell_angle_beta     60.00000018698455
_cell_angle_gamma    59.999997489913135

_space_group_name_H-M_alt    "P 1"
_space_group_IT_number       1

loop_
  _space_group_symop_operation_xyz
  'x, y, z'

loop_
  _atom_site_type_symbol
  _atom_site_label
  _atom_site_symmetry_multiplicity
  _atom_site_fract_x
  _atom_site_fract_y
  _atom_site_fract_z
  _atom_site_occupancy
  Pt  Pt1       1.0  0.2499998101256088  0.2500001101013891  0.24999973067651482  1.0000
  Pt  Pt2       1.0  0.7500002317561503  0.7499996299227413  0.7499999734771592  1.0000
  Sb  Sb1       1.0  1.0850212105057489e-08  3.675470544468327e-08  0.99999997619754  1.0000
  F   F1        1.0  0.22813628794467777  0.22813638401450878  0.7718637678640956  1.0000
  F   F2        1.0  0.7718637299943755  0.7718636357537433  0.22813642526304914  1.0000
  F   F3        1.0  0.7718637145890682  0.22813645476556707  0.22813628096668429  1.0000
  F   F4        1.0  0.2281363394440873  0.7718634220677241  0.7718637905220035  1.0000
  F   F5        1.0  0.22813625328528914  0.7718637534655126  0.22813644884370696  1.0000
  F   F6        1.0  0.7718635618857534  0.22813656850811317  0.7718636462151475  1.0000
