data_image0
_chemical_formula_structural       Pt2TaCl6
_chemical_formula_sum              "Pt2 Ta1 Cl6"
_cell_length_a       6.583839844653763
_cell_length_b       6.583840245565755
_cell_length_c       6.583840030893679
_cell_angle_alpha    59.99999923693394
_cell_angle_beta     59.999998738240215
_cell_angle_gamma    59.99999819601467

_space_group_name_H-M_alt    "P 1"
_space_group_IT_number       1

loop_
  _space_group_symop_operation_xyz
  'x, y, z'

loop_
  _atom_site_type_symbol
  _atom_site_label
  _atom_site_symmetry_multiplicity
  _atom_site_fract_x
  _atom_site_fract_y
  _atom_site_fract_z
  _atom_site_occupancy
  Pt  Pt1       1.0  0.24999977286786554  0.2500001918723849  0.2500000916882722  1.0000
  Pt  Pt2       1.0  0.7499999933461879  0.7499999877848622  0.7500000052979783  1.0000
  Ta  Ta1       1.0  2.6857803663171964e-08  0.9999999404726803  0.9999999935517022  1.0000
  Cl  Cl1       1.0  0.25267994372328295  0.2526798879803107  0.7473201542976549  1.0000
  Cl  Cl2       1.0  0.7473201604380758  0.747319982878956  0.25268002380277427  1.0000
  Cl  Cl3       1.0  0.7473200943065428  0.25267994736272625  0.2526798030173142  1.0000
  Cl  Cl4       1.0  0.2526798453098315  0.747320090917136  0.7473201048052398  1.0000
  Cl  Cl5       1.0  0.25267993066121675  0.7473201080755411  0.25267977299693717  1.0000
  Cl  Cl6       1.0  0.747320226981587  0.2526798706769963  0.7473200495005827  1.0000
