data_image0
_chemical_formula_structural       Rb2AsCl6
_chemical_formula_sum              "Rb2 As1 Cl6"
_cell_length_a       7.316693727652352
_cell_length_b       7.316693407742396
_cell_length_c       7.316693841961355
_cell_angle_alpha    59.99999719509977
_cell_angle_beta     59.99999884813679
_cell_angle_gamma    59.999996903384755

_space_group_name_H-M_alt    "P 1"
_space_group_IT_number       1

loop_
  _space_group_symop_operation_xyz
  'x, y, z'

loop_
  _atom_site_type_symbol
  _atom_site_label
  _atom_site_symmetry_multiplicity
  _atom_site_fract_x
  _atom_site_fract_y
  _atom_site_fract_z
  _atom_site_occupancy
  Rb  Rb1       1.0  0.2500000236055872  0.25000003106399793  0.24999995470684475  1.0000
  Rb  Rb2       1.0  0.7500000244617596  0.7499999860620786  0.7499999271956187  1.0000
  As  As1       1.0  0.9999997373639999  3.381287962207621e-07  3.2170556894744e-07  1.0000
  Cl  Cl1       1.0  0.23670559402190722  0.23670556663367728  0.763294344325214  1.0000
  Cl  Cl2       1.0  0.7632944832184054  0.7632944103186805  0.23670554991131376  1.0000
  Cl  Cl3       1.0  0.763294430490923  0.23670554879876413  0.23670557281365756  1.0000
  Cl  Cl4       1.0  0.23670576004698846  0.7632941971547125  0.7632943105698987  1.0000
  Cl  Cl5       1.0  0.23670565283694645  0.7632943063718546  0.23670558613177972  1.0000
  Cl  Cl6       1.0  0.7632943057860757  0.23670562873288042  0.7632944539406064  1.0000
