data_image0
_chemical_formula_structural       Rb2AsF6
_chemical_formula_sum              "Rb2 As1 F6"
_cell_length_a       6.155626480439503
_cell_length_b       6.1556262146031635
_cell_length_c       6.155626261486117
_cell_angle_alpha    59.99999887696667
_cell_angle_beta     59.99999948936777
_cell_angle_gamma    59.9999997678224

_space_group_name_H-M_alt    "P 1"
_space_group_IT_number       1

loop_
  _space_group_symop_operation_xyz
  'x, y, z'

loop_
  _atom_site_type_symbol
  _atom_site_label
  _atom_site_symmetry_multiplicity
  _atom_site_fract_x
  _atom_site_fract_y
  _atom_site_fract_z
  _atom_site_occupancy
  Rb  Rb1       1.0  0.2500000669811956  0.24999997701442575  0.24999996167607808  1.0000
  Rb  Rb2       1.0  0.7499999619698823  0.7500000683280845  0.749999747427196  1.0000
  As  As1       1.0  1.534813287330203e-08  0.9999999820932859  7.777410847241586e-09  1.0000
  F   F1        1.0  0.22163207832455936  0.2216321382320374  0.7783679375555083  1.0000
  F   F2        1.0  0.7783679434644969  0.7783678892037571  0.2216321869655937  1.0000
  F   F3        1.0  0.778367798737664  0.22163211250606094  0.22163219864237585  1.0000
  F   F4        1.0  0.22163215811857606  0.7783678114687174  0.7783679061057189  1.0000
  F   F5        1.0  0.22163210467104083  0.7783678651473207  0.22163215329479233  1.0000
  F   F6        1.0  0.7783678777447806  0.22163212846467992  0.7783679298473811  1.0000
