data_image0
_chemical_formula_structural       Rb2AsI6
_chemical_formula_sum              "Rb2 As1 I6"
_cell_length_a       8.28164286194242
_cell_length_b       8.281642942405979
_cell_length_c       8.281642679609309
_cell_angle_alpha    59.99999793607522
_cell_angle_beta     60.00000170232528
_cell_angle_gamma    60.00000074566258

_space_group_name_H-M_alt    "P 1"
_space_group_IT_number       1

loop_
  _space_group_symop_operation_xyz
  'x, y, z'

loop_
  _atom_site_type_symbol
  _atom_site_label
  _atom_site_symmetry_multiplicity
  _atom_site_fract_x
  _atom_site_fract_y
  _atom_site_fract_z
  _atom_site_occupancy
  Rb  Rb1       1.0  0.2499998263821634  0.250000115298528  0.24999996355874451  1.0000
  Rb  Rb2       1.0  0.7500001663838896  0.7499998904045306  0.7500000078486296  1.0000
  As  As1       1.0  2.895772446226928e-07  0.9999999009159046  7.742448742000057e-08  1.0000
  I   I1        1.0  0.24285609837075905  0.24285609562345825  0.7571439039530361  1.0000
  I   I2        1.0  0.7571438535670417  0.7571438819811239  0.24285615142478917  1.0000
  I   I3        1.0  0.757143923801734  0.242856023208076  0.24285602461461994  1.0000
  I   I4        1.0  0.24285605931789492  0.757143927776901  0.7571439910499074  1.0000
  I   I5        1.0  0.24285588290507  0.7571440779628174  0.24285604164516097  1.0000
  I   I6        1.0  0.7571439004613789  0.24285608745788548  0.7571438326467065  1.0000
