data_image0
_chemical_formula_structural       Rb2AsBr6
_chemical_formula_sum              "Rb2 As1 Br6"
_cell_length_a       7.734666591395098
_cell_length_b       7.734666315912188
_cell_length_c       7.734666846178917
_cell_angle_alpha    59.99999792875452
_cell_angle_beta     59.999998491052914
_cell_angle_gamma    60.00000194404733

_space_group_name_H-M_alt    "P 1"
_space_group_IT_number       1

loop_
  _space_group_symop_operation_xyz
  'x, y, z'

loop_
  _atom_site_type_symbol
  _atom_site_label
  _atom_site_symmetry_multiplicity
  _atom_site_fract_x
  _atom_site_fract_y
  _atom_site_fract_z
  _atom_site_occupancy
  Rb  Rb1       1.0  0.2499999833491244  0.2500000029030579  0.2500000241540846  1.0000
  Rb  Rb2       1.0  0.7500000208315726  0.7500000023753808  0.7499999704215029  1.0000
  As  As1       1.0  0.9999999799585217  3.325242477671453e-08  0.9999996740530415  1.0000
  Br  Br1       1.0  0.24038152183864447  0.24038142640027166  0.7596185712208455  1.0000
  Br  Br2       1.0  0.7596185226216663  0.7596184759539911  0.24038154776441947  1.0000
  Br  Br3       1.0  0.7596185033856587  0.24038153498677195  0.2403815470830653  1.0000
  Br  Br4       1.0  0.2403814669397766  0.759618549464111  0.7596185618792652  1.0000
  Br  Br5       1.0  0.2403815064534476  0.759618477812424  0.24038160241078763  1.0000
  Br  Br6       1.0  0.7596184978333445  0.24038149579703724  0.7596184868119522  1.0000
