data_image0
_chemical_formula_structural       Rb2BiF6
_chemical_formula_sum              "Rb2 Bi1 F6"
_cell_length_a       6.619066033551529
_cell_length_b       6.619066390070902
_cell_length_c       6.6190664605635146
_cell_angle_alpha    59.999997913946
_cell_angle_beta     59.99999728508889
_cell_angle_gamma    59.99999774432021

_space_group_name_H-M_alt    "P 1"
_space_group_IT_number       1

loop_
  _space_group_symop_operation_xyz
  'x, y, z'

loop_
  _atom_site_type_symbol
  _atom_site_label
  _atom_site_symmetry_multiplicity
  _atom_site_fract_x
  _atom_site_fract_y
  _atom_site_fract_z
  _atom_site_occupancy
  Rb  Rb1       1.0  0.2500000005131784  0.24999998983972596  0.2500000079617436  1.0000
  Rb  Rb2       1.0  0.7499999685692377  0.7500000213283865  0.7499998769841515  1.0000
  Bi  Bi1       1.0  0.9999999953832559  0.9999999981496714  0.999999994168814  1.0000
  F   F1        1.0  0.23184066129674996  0.23184052556704096  0.7681593918519454  1.0000
  F   F2        1.0  0.7681593882809357  0.7681594115879161  0.23184065906104467  1.0000
  F   F3        1.0  0.7681594140638591  0.23184058312202477  0.2318405708338664  1.0000
  F   F4        1.0  0.23184059378468289  0.7681594687533171  0.7681594345187795  1.0000
  F   F5        1.0  0.2318406013278385  0.7681594189065959  0.2318406347083426  1.0000
  F   F6        1.0  0.7681593965827729  0.23184060521381333  0.768159455965366  1.0000
