data_image0
_chemical_formula_structural       Rb2BiCl6
_chemical_formula_sum              "Rb2 Bi1 Cl6"
_cell_length_a       7.603560809214756
_cell_length_b       7.603560276704671
_cell_length_c       7.603560595406753
_cell_angle_alpha    59.99999912880846
_cell_angle_beta     60.00000037277548
_cell_angle_gamma    59.99999961501076

_space_group_name_H-M_alt    "P 1"
_space_group_IT_number       1

loop_
  _space_group_symop_operation_xyz
  'x, y, z'

loop_
  _atom_site_type_symbol
  _atom_site_label
  _atom_site_symmetry_multiplicity
  _atom_site_fract_x
  _atom_site_fract_y
  _atom_site_fract_z
  _atom_site_occupancy
  Rb  Rb1       1.0  0.2499999720680593  0.2500000347225595  0.25000000340312145  1.0000
  Rb  Rb2       1.0  0.750000019273773  0.749999981750538  0.7500000041010563  1.0000
  Bi  Bi1       1.0  0.9999999465557365  4.1879548939666995e-08  1.5045142237788768e-07  1.0000
  Cl  Cl1       1.0  0.24743159027190645  0.2474316400493607  0.7525684011468728  1.0000
  Cl  Cl2       1.0  0.7525684152903305  0.7525683474302034  0.24743160059213584  1.0000
  Cl  Cl3       1.0  0.7525684495873263  0.24743159950800062  0.24743157304557947  1.0000
  Cl  Cl4       1.0  0.24743166386095544  0.7525682784404375  0.75256836244213  1.0000
  Cl  Cl5       1.0  0.24743160945205986  0.7525684000640861  0.24743157851803813  1.0000
  Cl  Cl6       1.0  0.7525683328013578  0.2474316953358514  0.752568333841355  1.0000
