data_image0
_chemical_formula_structural       Rb2BiI6
_chemical_formula_sum              "Rb2 Bi1 I6"
_cell_length_a       8.512323274122812
_cell_length_b       8.512323332316175
_cell_length_c       8.512322944070617
_cell_angle_alpha    60.00000180623583
_cell_angle_beta     60.00000165840664
_cell_angle_gamma    59.99999784134794

_space_group_name_H-M_alt    "P 1"
_space_group_IT_number       1

loop_
  _space_group_symop_operation_xyz
  'x, y, z'

loop_
  _atom_site_type_symbol
  _atom_site_label
  _atom_site_symmetry_multiplicity
  _atom_site_fract_x
  _atom_site_fract_y
  _atom_site_fract_z
  _atom_site_occupancy
  Rb  Rb1       1.0  0.2500000193132522  0.24999998760959394  0.24999999874629295  1.0000
  Rb  Rb2       1.0  0.7499999822622884  0.7500000189416085  0.7500000353903858  1.0000
  Bi  Bi1       1.0  0.9999999675261764  0.9999999956836302  0.9999999831520728  1.0000
  I   I1        1.0  0.2551306277669326  0.25513060253543524  0.7448693950669084  1.0000
  I   I2        1.0  0.7448693828386619  0.7448693809951211  0.2551306025986704  1.0000
  I   I3        1.0  0.7448693668046339  0.25513057858041543  0.2551306896570936  1.0000
  I   I4        1.0  0.2551306113811853  0.7448694452362719  0.7448692782304235  1.0000
  I   I5        1.0  0.2551307055977419  0.7448693075951022  0.25513060847263624  1.0000
  I   I6        1.0  0.7448693396328024  0.25513068600698546  0.7448694079615633  1.0000
