data_image0
_chemical_formula_structural       Rb2BiBr6
_chemical_formula_sum              "Rb2 Bi1 Br6"
_cell_length_a       7.96944956637757
_cell_length_b       7.969449503681572
_cell_length_c       7.969449241721281
_cell_angle_alpha    60.000002813107066
_cell_angle_beta     59.99999979498031
_cell_angle_gamma    59.99999963075336

_space_group_name_H-M_alt    "P 1"
_space_group_IT_number       1

loop_
  _space_group_symop_operation_xyz
  'x, y, z'

loop_
  _atom_site_type_symbol
  _atom_site_label
  _atom_site_symmetry_multiplicity
  _atom_site_fract_x
  _atom_site_fract_y
  _atom_site_fract_z
  _atom_site_occupancy
  Rb  Rb1       1.0  0.24999998982074662  0.2499999899063775  0.2500000216487126  1.0000
  Rb  Rb2       1.0  0.7499999946938468  0.7499999635719329  0.7500000604231011  1.0000
  Bi  Bi1       1.0  0.9999999611254666  1.644375801221759e-07  0.9999999673334837  1.0000
  Br  Br1       1.0  0.25210790491136104  0.25210793558779804  0.7478920798643349  1.0000
  Br  Br2       1.0  0.747892079763936  0.7478920347953086  0.25210792968034457  1.0000
  Br  Br3       1.0  0.7478922221289397  0.2521077988193527  0.2521077129665504  1.0000
  Br  Br4       1.0  0.2521078177078639  0.7478921408277552  0.7478922178614057  1.0000
  Br  Br5       1.0  0.25210790009368206  0.7478920821157004  0.25210783872907105  1.0000
  Br  Br6       1.0  0.7478921381912396  0.2521078882674059  0.7478921640874654  1.0000
