data_image0
_chemical_formula_structural       Rb2GaBr6
_chemical_formula_sum              "Rb2 Ga1 Br6"
_cell_length_a       7.688806862317609
_cell_length_b       7.688807239253279
_cell_length_c       7.688807132351628
_cell_angle_alpha    59.999997685238974
_cell_angle_beta     60.00000146141512
_cell_angle_gamma    60.000003243632875

_space_group_name_H-M_alt    "P 1"
_space_group_IT_number       1

loop_
  _space_group_symop_operation_xyz
  'x, y, z'

loop_
  _atom_site_type_symbol
  _atom_site_label
  _atom_site_symmetry_multiplicity
  _atom_site_fract_x
  _atom_site_fract_y
  _atom_site_fract_z
  _atom_site_occupancy
  Rb  Rb1       1.0  0.2499999669737033  0.25000002050631037  0.2499999635515996  1.0000
  Rb  Rb2       1.0  0.7500000273920077  0.7499999659453367  0.7500000403813183  1.0000
  Ga  Ga1       1.0  0.9999999372135795  0.9999999585847663  2.419872388153318e-07  1.0000
  Br  Br1       1.0  0.23489655575079865  0.2348967672590042  0.765103456274164  1.0000
  Br  Br2       1.0  0.7651034435574924  0.7651033800748493  0.23489665073099367  1.0000
  Br  Br3       1.0  0.7651034142922518  0.23489667090896094  0.2348964233252711  1.0000
  Br  Br4       1.0  0.23489683536817468  0.7651030272290342  0.765103377317101  1.0000
  Br  Br5       1.0  0.23489658219835566  0.7651034203061576  0.23489648596366994  1.0000
  Br  Br6       1.0  0.7651032151250877  0.23489679233632324  0.7651033616304429  1.0000
