data_image0
_chemical_formula_structural       Rb2GaCl6
_chemical_formula_sum              "Rb2 Ga1 Cl6"
_cell_length_a       7.357958212350097
_cell_length_b       7.357958785532076
_cell_length_c       7.357958317608582
_cell_angle_alpha    59.99999882888198
_cell_angle_beta     59.999998145021834
_cell_angle_gamma    59.99999975476303

_space_group_name_H-M_alt    "P 1"
_space_group_IT_number       1

loop_
  _space_group_symop_operation_xyz
  'x, y, z'

loop_
  _atom_site_type_symbol
  _atom_site_label
  _atom_site_symmetry_multiplicity
  _atom_site_fract_x
  _atom_site_fract_y
  _atom_site_fract_z
  _atom_site_occupancy
  Rb  Rb1       1.0  0.25000001786005266  0.2500000301232635  0.24999994834584952  1.0000
  Rb  Rb2       1.0  0.7500000147768857  0.7499999855052084  0.749999931821278  1.0000
  Ga  Ga1       1.0  0.999999895978638  1.3316136767214316e-07  2.0288162089471386e-07  1.0000
  Cl  Cl1       1.0  0.2278267072618211  0.22782655661652051  0.7721733916268564  1.0000
  Cl  Cl2       1.0  0.7721734613512908  0.7721734606764626  0.22782657193606545  1.0000
  Cl  Cl3       1.0  0.7721733775190076  0.22782651142111018  0.2278266302422144  1.0000
  Cl  Cl4       1.0  0.22782672954522923  0.7721733044653021  0.7721732622966094  1.0000
  Cl  Cl5       1.0  0.22782654025647042  0.7721734666443563  0.22782659065553676  1.0000
  Cl  Cl6       1.0  0.7721732574091488  0.22782660890673564  0.7721733743177962  1.0000
