data_image0
_chemical_formula_structural       Rb2NCl6
_chemical_formula_sum              "Rb2 N1 Cl6"
_cell_length_a       7.314820714034848
_cell_length_b       7.314823999466883
_cell_length_c       7.314818395220812
_cell_angle_alpha    59.99999980720808
_cell_angle_beta     59.99999539353585
_cell_angle_gamma    59.99997435238824

_space_group_name_H-M_alt    "P 1"
_space_group_IT_number       1

loop_
  _space_group_symop_operation_xyz
  'x, y, z'

loop_
  _atom_site_type_symbol
  _atom_site_label
  _atom_site_symmetry_multiplicity
  _atom_site_fract_x
  _atom_site_fract_y
  _atom_site_fract_z
  _atom_site_occupancy
  Rb  Rb1       1.0  0.2500000811502007  0.2500002907774437  0.24999992762346898  1.0000
  Rb  Rb2       1.0  0.7500002622741588  0.749999470915977  0.7499997222687079  1.0000
  N   N1        1.0  0.9999987908342808  4.403496364267154e-07  1.7679010880132795e-06  1.0000
  Cl  Cl1       1.0  0.20942403860069536  0.20942441590038086  0.7905758567428944  1.0000
  Cl  Cl2       1.0  0.7905763321760915  0.7905758983225996  0.2094245421950122  1.0000
  Cl  Cl3       1.0  0.7905773073808794  0.20942343741241667  0.20942214424713793  1.0000
  Cl  Cl4       1.0  0.2094232664693521  0.790576243913236  0.7905761879330402  1.0000
  Cl  Cl5       1.0  0.2094221825814482  0.7905769382354045  0.20942296641542515  1.0000
  Cl  Cl6       1.0  0.790577903947919  0.20942291219774162  0.7905767866936285  1.0000
