data_image0
_chemical_formula_structural       Rb2NF6
_chemical_formula_sum              "Rb2 N1 F6"
_cell_length_a       5.81104557106288
_cell_length_b       5.811045828946841
_cell_length_c       5.811046132867509
_cell_angle_alpha    59.99999748610544
_cell_angle_beta     59.99999732065081
_cell_angle_gamma    59.99999946936568

_space_group_name_H-M_alt    "P 1"
_space_group_IT_number       1

loop_
  _space_group_symop_operation_xyz
  'x, y, z'

loop_
  _atom_site_type_symbol
  _atom_site_label
  _atom_site_symmetry_multiplicity
  _atom_site_fract_x
  _atom_site_fract_y
  _atom_site_fract_z
  _atom_site_occupancy
  Rb  Rb1       1.0  0.24999999425452982  0.2500001493640809  0.24999995583738477  1.0000
  Rb  Rb2       1.0  0.7500000375273127  0.7499999380493477  0.7500000607345326  1.0000
  N   N1        1.0  4.656016311660667e-09  3.37218440896461e-08  6.623977753540914e-09  1.0000
  F   F1        1.0  0.20278273072084868  0.20278289523420642  0.7972171689142105  1.0000
  F   F2        1.0  0.7972172187883663  0.7972171647802236  0.20278286979716936  1.0000
  F   F3        1.0  0.7972171185605919  0.2027828634779942  0.20278277439077821  1.0000
  F   F4        1.0  0.20278277089547206  0.7972171501689  0.797217265905129  1.0000
  F   F5        1.0  0.20278284877619482  0.7972171039255723  0.2027826747932819  1.0000
  F   F6        1.0  0.7972172071950648  0.20278279169486868  0.797217248331786  1.0000
