data_image0
_chemical_formula_structural       Rb2SbF6
_chemical_formula_sum              "Rb2 Sb1 F6"
_cell_length_a       6.363109258705811
_cell_length_b       6.363108416602738
_cell_length_c       6.36310874506046
_cell_angle_alpha    59.999997053020145
_cell_angle_beta     60.000000278318986
_cell_angle_gamma    60.00000100919334

_space_group_name_H-M_alt    "P 1"
_space_group_IT_number       1

loop_
  _space_group_symop_operation_xyz
  'x, y, z'

loop_
  _atom_site_type_symbol
  _atom_site_label
  _atom_site_symmetry_multiplicity
  _atom_site_fract_x
  _atom_site_fract_y
  _atom_site_fract_z
  _atom_site_occupancy
  Rb  Rb1       1.0  0.25000001663084925  0.25000002139544186  0.2500000303042763  1.0000
  Rb  Rb2       1.0  0.7499999403356553  0.7499999410017563  0.7499999134020541  1.0000
  Sb  Sb1       1.0  1.8237988281082352e-08  2.694662444508108e-08  5.695752745723392e-09  1.0000
  F   F1        1.0  0.22841724451315995  0.22841733513389761  0.7715827298289558  1.0000
  F   F2        1.0  0.7715827075030361  0.7715826965546175  0.22841730271690272  1.0000
  F   F3        1.0  0.7715827129585153  0.22841737267360807  0.22841733041060155  1.0000
  F   F4        1.0  0.22841735499591045  0.771582637842566  0.7715826563238696  1.0000
  F   F5        1.0  0.22841734221514878  0.77158261746777  0.22841743740524373  1.0000
  F   F6        1.0  0.7715826352065625  0.22841741422074632  0.7715826185837104  1.0000
