data_image0
_chemical_formula_structural       Rb2SbCl6
_chemical_formula_sum              "Rb2 Sb1 Cl6"
_cell_length_a       7.368417135882415
_cell_length_b       7.368417332260409
_cell_length_c       7.368418517020433
_cell_angle_alpha    59.99999353869759
_cell_angle_beta     59.99999580779956
_cell_angle_gamma    60.00001098717113

_space_group_name_H-M_alt    "P 1"
_space_group_IT_number       1

loop_
  _space_group_symop_operation_xyz
  'x, y, z'

loop_
  _atom_site_type_symbol
  _atom_site_label
  _atom_site_symmetry_multiplicity
  _atom_site_fract_x
  _atom_site_fract_y
  _atom_site_fract_z
  _atom_site_occupancy
  Rb  Rb1       1.0  0.24999994611326898  0.25000001999822125  0.24999999163943978  1.0000
  Rb  Rb2       1.0  0.7500000625782824  0.7499999702383504  0.7499999714629786  1.0000
  Sb  Sb1       1.0  6.838776303243635e-07  5.15268057172961e-07  0.9999986254983241  1.0000
  Cl  Cl1       1.0  0.24332357839693547  0.24332357569836985  0.7566765878060968  1.0000
  Cl  Cl2       1.0  0.7566758632836325  0.7566759341754238  0.24332403334038696  1.0000
  Cl  Cl3       1.0  0.7566754406946774  0.2433245594507849  0.24332466945987558  1.0000
  Cl  Cl4       1.0  0.2433241971766306  0.7566757017169192  0.756675735801511  1.0000
  Cl  Cl5       1.0  0.24332454665194977  0.7566755576807225  0.24332457528542303  1.0000
  Cl  Cl6       1.0  0.7566756909033868  0.24332415497605833  0.7566758342465776  1.0000
