data_image0
_chemical_formula_structural       Rb2SbBr6
_chemical_formula_sum              "Rb2 Sb1 Br6"
_cell_length_a       7.783549934361397
_cell_length_b       7.78355037360334
_cell_length_c       7.7835506887893695
_cell_angle_alpha    59.999998772881796
_cell_angle_beta     59.999999559171755
_cell_angle_gamma    60.00000550214189

_space_group_name_H-M_alt    "P 1"
_space_group_IT_number       1

loop_
  _space_group_symop_operation_xyz
  'x, y, z'

loop_
  _atom_site_type_symbol
  _atom_site_label
  _atom_site_symmetry_multiplicity
  _atom_site_fract_x
  _atom_site_fract_y
  _atom_site_fract_z
  _atom_site_occupancy
  Rb  Rb1       1.0  0.24999997030920265  0.24999999482039723  0.25000000175178355  1.0000
  Rb  Rb2       1.0  0.7500000303440842  0.7499999199475299  0.7499999983601171  1.0000
  Sb  Sb1       1.0  0.9999996447793587  8.654270332638182e-08  3.386159123411986e-07  1.0000
  Br  Br1       1.0  0.24808633034456948  0.2480863888232329  0.7519137179139809  1.0000
  Br  Br2       1.0  0.751913803776031  0.751913761970318  0.2480862580465412  1.0000
  Br  Br3       1.0  0.7519136915627106  0.24808635663956474  0.2480862859610623  1.0000
  Br  Br4       1.0  0.24808659391245566  0.7519134291010434  0.7519134589565878  1.0000
  Br  Br5       1.0  0.2480862746276072  0.75191361939747  0.24808636708008602  1.0000
  Br  Br6       1.0  0.7519136568378236  0.24808642282428667  0.7519135769188522  1.0000
