data_image0
_chemical_formula_structural       Rb2SbI6
_chemical_formula_sum              "Rb2 Sb1 I6"
_cell_length_a       8.418931902447385
_cell_length_b       8.418931749353002
_cell_length_c       8.418931285167405
_cell_angle_alpha    60.00000279292067
_cell_angle_beta     60.00000182364093
_cell_angle_gamma    59.99999513239501

_space_group_name_H-M_alt    "P 1"
_space_group_IT_number       1

loop_
  _space_group_symop_operation_xyz
  'x, y, z'

loop_
  _atom_site_type_symbol
  _atom_site_label
  _atom_site_symmetry_multiplicity
  _atom_site_fract_x
  _atom_site_fract_y
  _atom_site_fract_z
  _atom_site_occupancy
  Rb  Rb1       1.0  0.24999984776778228  0.250000032079708  0.25000008184363887  1.0000
  Rb  Rb2       1.0  0.7500001488806104  0.749999962401996  0.7499999526464824  1.0000
  Sb  Sb1       1.0  1.0278076146136579e-07  1.4838458935051892e-07  1.1910396419673447e-07  1.0000
  I   I1        1.0  0.2517223320979233  0.2517223691124085  0.7482776696723069  1.0000
  I   I2        1.0  0.7482775269388754  0.7482775773625243  0.2517224160540248  1.0000
  I   I3        1.0  0.7482778136931673  0.251722203978364  0.2517222006113468  1.0000
  I   I4        1.0  0.25172232511420967  0.7482776479377377  0.748277649973203  1.0000
  I   I5        1.0  0.2517221202607498  0.748277868294949  0.2517221141621796  1.0000
  I   I6        1.0  0.7482777796159165  0.25172219019580017  0.7482777977367747  1.0000
