data_image0
_chemical_formula_structural       Rb2YI6
_chemical_formula_sum              "Rb2 Y1 I6"
_cell_length_a       8.51276223475876
_cell_length_b       8.512762211304779
_cell_length_c       8.512763021539065
_cell_angle_alpha    59.999995374249345
_cell_angle_beta     59.999996998587065
_cell_angle_gamma    60.00000542451128

_space_group_name_H-M_alt    "P 1"
_space_group_IT_number       1

loop_
  _space_group_symop_operation_xyz
  'x, y, z'

loop_
  _atom_site_type_symbol
  _atom_site_label
  _atom_site_symmetry_multiplicity
  _atom_site_fract_x
  _atom_site_fract_y
  _atom_site_fract_z
  _atom_site_occupancy
  Rb  Rb1       1.0  0.2500000401335938  0.2499999676357885  0.25000018716610367  1.0000
  Rb  Rb2       1.0  0.7499999158235837  0.7500000323918168  0.7499998754253376  1.0000
  Y   Y1        1.0  8.164429616744798e-09  9.351655021516642e-08  1.7235378746897536e-07  1.0000
  I   I1        1.0  0.2509240541054016  0.25092403083525927  0.7490760298347612  1.0000
  I   I2        1.0  0.7490759092780833  0.749075959121333  0.25092405874787427  1.0000
  I   I3        1.0  0.7490761339568246  0.2509238832928854  0.2509238773888462  1.0000
  I   I4        1.0  0.25092406561325403  0.749075955598532  0.7490759125470149  1.0000
  I   I5        1.0  0.25092384953983016  0.7490761309372382  0.2509239064489019  1.0000
  I   I6        1.0  0.7490760221937733  0.250923946781037  0.7490759820282745  1.0000
