data_image0
_chemical_formula_structural       Rb2YF6
_chemical_formula_sum              "Rb2 Y1 F6"
_cell_length_a       6.728483179726289
_cell_length_b       6.7284830924464885
_cell_length_c       6.728483423291706
_cell_angle_alpha    60.00000200893468
_cell_angle_beta     59.999997246837346
_cell_angle_gamma    59.99999829176391

_space_group_name_H-M_alt    "P 1"
_space_group_IT_number       1

loop_
  _space_group_symop_operation_xyz
  'x, y, z'

loop_
  _atom_site_type_symbol
  _atom_site_label
  _atom_site_symmetry_multiplicity
  _atom_site_fract_x
  _atom_site_fract_y
  _atom_site_fract_z
  _atom_site_occupancy
  Rb  Rb1       1.0  0.24999997942165092  0.2500000827153189  0.24999986858107556  1.0000
  Rb  Rb2       1.0  0.7499999837561393  0.7499999623684069  0.7499997585832183  1.0000
  Y   Y1        1.0  0.9999999830825479  0.999999927190429  0.9999999497454929  1.0000
  F   F1        1.0  0.22905045067271915  0.22905033154687313  0.7709497071192122  1.0000
  F   F2        1.0  0.7709495124188159  0.7709496880535268  0.2290504113923939  1.0000
  F   F3        1.0  0.7709496309191826  0.22905037906943518  0.22905030140525592  1.0000
  F   F4        1.0  0.22905032031400566  0.7709497224417275  0.7709497716766116  1.0000
  F   F5        1.0  0.2290504619360759  0.7709496113716464  0.2290503043817159  1.0000
  F   F6        1.0  0.7709496586089575  0.2290502808120071  0.7709497842493187  1.0000
