data_image0
_chemical_formula_structural       Rb2YCl6
_chemical_formula_sum              "Rb2 Y1 Cl6"
_cell_length_a       7.671065429535031
_cell_length_b       7.671066074216279
_cell_length_c       7.671065963486573
_cell_angle_alpha    60.00000732372079
_cell_angle_beta     60.00000704847314
_cell_angle_gamma    60.00000872513053

_space_group_name_H-M_alt    "P 1"
_space_group_IT_number       1

loop_
  _space_group_symop_operation_xyz
  'x, y, z'

loop_
  _atom_site_type_symbol
  _atom_site_label
  _atom_site_symmetry_multiplicity
  _atom_site_fract_x
  _atom_site_fract_y
  _atom_site_fract_z
  _atom_site_occupancy
  Rb  Rb1       1.0  0.24999998177655974  0.2500000150068302  0.24999998896491327  1.0000
  Rb  Rb2       1.0  0.7500000010559016  0.7499999907368748  0.7499999726914366  1.0000
  Y   Y1        1.0  0.9999999330664174  1.4209535338355154e-07  4.3242304352150416e-08  1.0000
  Cl  Cl1       1.0  0.2414441734845665  0.24144413150247446  0.7585559404836922  1.0000
  Cl  Cl2       1.0  0.7585558737118382  0.758555735339038  0.24144413665776707  1.0000
  Cl  Cl3       1.0  0.7585557448943744  0.2414442134506977  0.2414441778883362  1.0000
  Cl  Cl4       1.0  0.2414443578142967  0.7585556629702744  0.7585557767588789  1.0000
  Cl  Cl5       1.0  0.2414441790281757  0.7585558183292533  0.2414442711316314  1.0000
  Cl  Cl6       1.0  0.7585557461918944  0.24144428799880088  0.7585556781639391  1.0000
