data_image0
_chemical_formula_structural       Rb2YBr6
_chemical_formula_sum              "Rb2 Y1 Br6"
_cell_length_a       7.952842036421619
_cell_length_b       7.952841638205189
_cell_length_c       7.95284168738923
_cell_angle_alpha    60.000002280340226
_cell_angle_beta     59.99999830330524
_cell_angle_gamma    59.99999758365518

_space_group_name_H-M_alt    "P 1"
_space_group_IT_number       1

loop_
  _space_group_symop_operation_xyz
  'x, y, z'

loop_
  _atom_site_type_symbol
  _atom_site_label
  _atom_site_symmetry_multiplicity
  _atom_site_fract_x
  _atom_site_fract_y
  _atom_site_fract_z
  _atom_site_occupancy
  Rb  Rb1       1.0  0.2499999853972994  0.24999998817989952  0.25000000269121847  1.0000
  Rb  Rb2       1.0  0.7500000227896227  0.7499999999599068  0.7499999708962223  1.0000
  Y   Y1        1.0  0.9999999154203856  4.4660268908442456e-08  8.031546023989896e-08  1.0000
  Br  Br1       1.0  0.24753865385842994  0.24753863482373356  0.7524613258253315  1.0000
  Br  Br2       1.0  0.7524613596807445  0.7524614025963642  0.24753862421807465  1.0000
  Br  Br3       1.0  0.7524614491858775  0.24753850290959226  0.24753854769845235  1.0000
  Br  Br4       1.0  0.24753856073231595  0.7524614451899767  0.7524614374989974  1.0000
  Br  Br5       1.0  0.247538642966683  0.7524613772189377  0.24753865837660033  1.0000
  Br  Br6       1.0  0.7524614146740843  0.24753860630084212  0.75246135063489  1.0000
