data_image0
_chemical_formula_structural       Re2AsS6
_chemical_formula_sum              "Re2 As1 S6"
_cell_length_a       6.786829569824638
_cell_length_b       7.217286432597681
_cell_length_c       3.1731188582023693
_cell_angle_alpha    46.68960587363594
_cell_angle_beta     44.1556521383687
_cell_angle_gamma    22.337048543716364

_space_group_name_H-M_alt    "P 1"
_space_group_IT_number       1

loop_
  _space_group_symop_operation_xyz
  'x, y, z'

loop_
  _atom_site_type_symbol
  _atom_site_label
  _atom_site_symmetry_multiplicity
  _atom_site_fract_x
  _atom_site_fract_y
  _atom_site_fract_z
  _atom_site_occupancy
  Re  Re1       1.0  0.9678022062980869  0.16653604351292092  0.4166375312107919  1.0000
  Re  Re2       1.0  0.6366639207332768  0.3293507056108807  0.4060636225579286  1.0000
  As  As1       1.0  0.15223434060617996  0.3697070260435935  0.1298728811230991  1.0000
  S   S1        1.0  0.02158138667678447  0.45774636169861915  0.37526515524916304  1.0000
  S   S2        1.0  0.5703625220823755  0.44289186408453224  0.8685755098977099  1.0000
  S   S3        1.0  0.6027780651561291  0.4146228453681903  0.9350611405532795  1.0000
  S   S4        1.0  0.40447499883784127  0.9428436963667125  0.9986024567964494  1.0000
  S   S5        1.0  0.2912896505981887  0.4909457584444126  0.13051470852191388  1.0000
  S   S6        1.0  0.5352875201895966  0.8616629525003852  0.9191279407497004  1.0000
