data_image0
_chemical_formula_structural       Re2AsO6
_chemical_formula_sum              "Re2 As1 O6"
_cell_length_a       4.962456256048558
_cell_length_b       4.962456611703218
_cell_length_c       4.962456410928522
_cell_angle_alpha    59.99999992617917
_cell_angle_beta     59.999997587381436
_cell_angle_gamma    59.99999887341607

_space_group_name_H-M_alt    "P 1"
_space_group_IT_number       1

loop_
  _space_group_symop_operation_xyz
  'x, y, z'

loop_
  _atom_site_type_symbol
  _atom_site_label
  _atom_site_symmetry_multiplicity
  _atom_site_fract_x
  _atom_site_fract_y
  _atom_site_fract_z
  _atom_site_occupancy
  Re  Re1       1.0  0.25000112684232606  0.2500003031655891  0.24999968366040998  1.0000
  Re  Re2       1.0  0.7500030358038163  0.7499991374574765  0.7499999199401599  1.0000
  As  As1       1.0  0.9999999500549128  0.9999999753197889  0.9999999466317526  1.0000
  O   O1        1.0  0.25259496114196484  0.2525967400438295  0.7474040854505732  1.0000
  O   O2        1.0  0.7474039236876915  0.7474039864184722  0.2525954969924813  1.0000
  O   O3        1.0  0.7474032902683412  0.2525960337581782  0.25259592949862114  1.0000
  O   O4        1.0  0.2525949949421143  0.7474041670155993  0.7474040241608582  1.0000
  O   O5        1.0  0.25259521372075816  0.7474039082780158  0.2525964878275949  1.0000
  O   O6        1.0  0.7474035267666526  0.25259576433918246  0.7474043848990974  1.0000
