data_image0
_chemical_formula_structural       Re2AsSe6
_chemical_formula_sum              "Re2 As1 Se6"
_cell_length_a       3.027472758394597
_cell_length_b       3.943029516540653
_cell_length_c       4.5364194790585435
_cell_angle_alpha    49.03198091289262
_cell_angle_beta     61.861928024700646
_cell_angle_gamma    60.440893106382696

_space_group_name_H-M_alt    "P 1"
_space_group_IT_number       1

loop_
  _space_group_symop_operation_xyz
  'x, y, z'

loop_
  _atom_site_type_symbol
  _atom_site_label
  _atom_site_symmetry_multiplicity
  _atom_site_fract_x
  _atom_site_fract_y
  _atom_site_fract_z
  _atom_site_occupancy
  Re  Re1       1.0  0.6084650005963999  0.5066840063103417  0.6541966665790712  1.0000
  Re  Re2       1.0  0.5542547086760672  0.4700152789491113  0.5144166037115989  1.0000
  As  As1       1.0  0.07098257928164566  0.9282408277099292  0.2275347875340064  1.0000
  Se  Se1       1.0  0.13202760849082407  0.5642611839632354  0.8713118184186267  1.0000
  Se  Se2       1.0  0.5482910152841025  0.256535773395972  0.7698157228556152  1.0000
  Se  Se3       1.0  0.5663095497738474  0.20769701590046707  0.09488088407715334  1.0000
  Se  Se4       1.0  0.047409087471642915  0.716189251611521  0.9014839047817137  1.0000
  Se  Se5       1.0  0.21998761955221235  0.7337326824060638  0.7081182486680498  1.0000
  Se  Se6       1.0  0.3422905176188909  0.588379863384163  0.9109433231201391  1.0000
