data_image0
_chemical_formula_structural       Re2GaO6
_chemical_formula_sum              "Re2 Ga1 O6"
_cell_length_a       4.952992151815944
_cell_length_b       4.952991817259401
_cell_length_c       4.952992337303258
_cell_angle_alpha    59.99999341430813
_cell_angle_beta     59.99999272616379
_cell_angle_gamma    59.9999932094108

_space_group_name_H-M_alt    "P 1"
_space_group_IT_number       1

loop_
  _space_group_symop_operation_xyz
  'x, y, z'

loop_
  _atom_site_type_symbol
  _atom_site_label
  _atom_site_symmetry_multiplicity
  _atom_site_fract_x
  _atom_site_fract_y
  _atom_site_fract_z
  _atom_site_occupancy
  Re  Re1       1.0  0.25000157906652837  0.24999770766226911  0.2500009957938168  1.0000
  Re  Re2       1.0  0.7500024646438647  0.7500008428739664  0.7500019172615185  1.0000
  Ga  Ga1       1.0  1.308609753337168e-07  0.9999999431270289  1.1241062574914021e-07  1.0000
  O   O1        1.0  0.2613048891407498  0.2613058968136274  0.7386942644467074  1.0000
  O   O2        1.0  0.7386938122029564  0.7386951684970134  0.261303835865944  1.0000
  O   O3        1.0  0.7386940959119525  0.26130558190505954  0.26130527442332074  1.0000
  O   O4        1.0  0.2613036846292309  0.7386956020970005  0.7386935096023348  1.0000
  O   O5        1.0  0.2613052744469671  0.738694955251424  0.2613052916842305  1.0000
  O   O6        1.0  0.7386940542407072  0.26130430496065854  0.7386947966599235  1.0000
