data_image0
_chemical_formula_structural       Re2GaSe6
_chemical_formula_sum              "Re2 Ga1 Se6"
_cell_length_a       5.8429391526800325
_cell_length_b       5.842939249954087
_cell_length_c       5.842938982316381
_cell_angle_alpha    59.99999247967845
_cell_angle_beta     59.9999897768564
_cell_angle_gamma    59.999993784770325

_space_group_name_H-M_alt    "P 1"
_space_group_IT_number       1

loop_
  _space_group_symop_operation_xyz
  'x, y, z'

loop_
  _atom_site_type_symbol
  _atom_site_label
  _atom_site_symmetry_multiplicity
  _atom_site_fract_x
  _atom_site_fract_y
  _atom_site_fract_z
  _atom_site_occupancy
  Re  Re1       1.0  0.24999884246320708  0.25000085753115786  0.24999929180251776  1.0000
  Re  Re2       1.0  0.7499993194027231  0.7500004513287759  0.7500019641766712  1.0000
  Ga  Ga1       1.0  0.9999997594784135  4.1921996058809294e-09  5.391857112705418e-07  1.0000
  Se  Se1       1.0  0.276573968477097  0.27657307621410676  0.7234268525854028  1.0000
  Se  Se2       1.0  0.7234269709283209  0.7234262140909233  0.27657259996046163  1.0000
  Se  Se3       1.0  0.7234271067209708  0.27657348481109845  0.27657302221511243  1.0000
  Se  Se4       1.0  0.2765733672420013  0.7234263777322546  0.7234264368341752  1.0000
  Se  Se5       1.0  0.27657385696452486  0.723426316575535  0.2765731203877536  1.0000
  Se  Se6       1.0  0.7234267578145901  0.2765732776656134  0.7234261782023327  1.0000
