data_image0
_chemical_formula_structural       Re2GaTe6
_chemical_formula_sum              "Re2 Ga1 Te6"
_cell_length_a       6.984981276820264
_cell_length_b       6.984981337259433
_cell_length_c       6.984981155522312
_cell_angle_alpha    60.0000010617827
_cell_angle_beta     60.00000094999141
_cell_angle_gamma    60.00000244876557

_space_group_name_H-M_alt    "P 1"
_space_group_IT_number       1

loop_
  _space_group_symop_operation_xyz
  'x, y, z'

loop_
  _atom_site_type_symbol
  _atom_site_label
  _atom_site_symmetry_multiplicity
  _atom_site_fract_x
  _atom_site_fract_y
  _atom_site_fract_z
  _atom_site_occupancy
  Re  Re1       1.0  0.25000014514967395  0.2500004555230532  0.24999964523958626  1.0000
  Re  Re2       1.0  0.7499998533943181  0.7499997850046455  0.7500001206066663  1.0000
  Ga  Ga1       1.0  5.242987660915013e-09  1.4027179728199472e-08  0.9999999903649164  1.0000
  Te  Te1       1.0  0.26541288882102765  0.26541287070514996  0.7345870976967003  1.0000
  Te  Te2       1.0  0.7345871017641011  0.7345870068692755  0.26541296670542397  1.0000
  Te  Te3       1.0  0.7345870378122742  0.2654129913179293  0.2654128589046713  1.0000
  Te  Te4       1.0  0.2654130062399238  0.7345869143108568  0.7345872463403942  1.0000
  Te  Te5       1.0  0.2654129644228169  0.7345869402080033  0.26541287615490544  1.0000
  Te  Te6       1.0  0.7345870014141922  0.26541302152949975  0.7345871886042448  1.0000
