data_image0
_chemical_formula_structural       Re2GaS6
_chemical_formula_sum              "Re2 Ga1 S6"
_cell_length_a       5.65401873095144
_cell_length_b       5.654018880618022
_cell_length_c       5.654018901970633
_cell_angle_alpha    59.99999963795265
_cell_angle_beta     59.99999962440444
_cell_angle_gamma    59.99999933326303

_space_group_name_H-M_alt    "P 1"
_space_group_IT_number       1

loop_
  _space_group_symop_operation_xyz
  'x, y, z'

loop_
  _atom_site_type_symbol
  _atom_site_label
  _atom_site_symmetry_multiplicity
  _atom_site_fract_x
  _atom_site_fract_y
  _atom_site_fract_z
  _atom_site_occupancy
  Re  Re1       1.0  0.24999994192108815  0.25000004117316293  0.24999995772046443  1.0000
  Re  Re2       1.0  0.7499999923442104  0.7499999913843827  0.7499999036921178  1.0000
  Ga  Ga1       1.0  0.999999998577155  0.9999999675077617  0.9999999479800574  1.0000
  S   S1        1.0  0.2707522145656909  0.27075229196419  0.7292477931651504  1.0000
  S   S2        1.0  0.729247727270505  0.7292477362610555  0.2707523549186443  1.0000
  S   S3        1.0  0.7292478134590553  0.2707521781733816  0.2707522800937054  1.0000
  S   S4        1.0  0.2707523361537854  0.7292477352459525  0.7292476711691811  1.0000
  S   S5        1.0  0.2707522266471678  0.7292477548904093  0.2707522644673572  1.0000
  S   S6        1.0  0.7292477622637557  0.2707523036609255  0.7292478183862278  1.0000
