data_image0
_chemical_formula_structural       Re2NO6
_chemical_formula_sum              "Re2 N1 O6"
_cell_length_a       1.8677350508612087
_cell_length_b       4.7930601781235245
_cell_length_c       1.9151155434892115
_cell_angle_alpha    96.02718232116621
_cell_angle_beta     95.61134860227534
_cell_angle_gamma    70.77320986881773

_space_group_name_H-M_alt    "P 1"
_space_group_IT_number       1

loop_
  _space_group_symop_operation_xyz
  'x, y, z'

loop_
  _atom_site_type_symbol
  _atom_site_label
  _atom_site_symmetry_multiplicity
  _atom_site_fract_x
  _atom_site_fract_y
  _atom_site_fract_z
  _atom_site_occupancy
  Re  Re1       1.0  0.7047139686695967  0.597267701440493  0.23289064187023692  1.0000
  Re  Re2       1.0  0.09581313839011751  0.449429221779999  0.7594415234401952  1.0000
  N   N1        1.0  0.2762630684904566  0.17396782673074207  0.8982723632259909  1.0000
  O   O1        1.0  0.6271813384705911  0.05137052567510092  0.9728601019010197  1.0000
  O   O2        1.0  0.2984595236100292  0.27236085926382425  0.8689642881017661  1.0000
  O   O3        1.0  0.18908927170453985  0.1349891546153261  0.691007344573011  1.0000
  O   O4        1.0  0.9931062412895428  0.5307701744425036  0.2463883457947007  1.0000
  O   O5        1.0  0.07792885325058263  0.7420656716561208  0.8407797841098182  1.0000
  O   O6        1.0  0.6012993078884007  0.06472576724170287  0.5015432716780862  1.0000
