data_image0
_chemical_formula_structural       Rh2AsO6
_chemical_formula_sum              "Rh2 As1 O6"
_cell_length_a       4.6994687277946365
_cell_length_b       4.6994688667508315
_cell_length_c       4.699468854655489
_cell_angle_alpha    60.00000046019837
_cell_angle_beta     60.00000050132121
_cell_angle_gamma    60.00000092431981

_space_group_name_H-M_alt    "P 1"
_space_group_IT_number       1

loop_
  _space_group_symop_operation_xyz
  'x, y, z'

loop_
  _atom_site_type_symbol
  _atom_site_label
  _atom_site_symmetry_multiplicity
  _atom_site_fract_x
  _atom_site_fract_y
  _atom_site_fract_z
  _atom_site_occupancy
  Rh  Rh1       1.0  0.2500000007142486  0.2500000092561328  0.2500000074380189  1.0000
  Rh  Rh2       1.0  0.7500000118476196  0.7499999912825134  0.7500000016581616  1.0000
  As  As1       1.0  0.9999999917600264  2.6061346185908832e-09  1.3456419620128795e-08  1.0000
  O   O1        1.0  0.262209906814063  0.2622099215613857  0.7377900947115845  1.0000
  O   O2        1.0  0.7377900673031186  0.7377900763711259  0.2622099498053066  1.0000
  O   O3        1.0  0.7377900794092321  0.26220991203429295  0.2622099158259865  1.0000
  O   O4        1.0  0.2622099628123025  0.7377900363816605  0.7377900321531057  1.0000
  O   O5        1.0  0.26220992226411194  0.7377900863818591  0.26220992271251375  1.0000
  O   O6        1.0  0.7377900597693762  0.2622099688856147  0.737790038109142  1.0000
