data_image0
_chemical_formula_structural       Rh2AuF6
_chemical_formula_sum              "Rh2 Au1 F6"
_cell_length_a       5.433053658787189
_cell_length_b       5.43305376362027
_cell_length_c       5.4330535243399884
_cell_angle_alpha    60.00000225509686
_cell_angle_beta     60.00000023793319
_cell_angle_gamma    60.000003085601165

_space_group_name_H-M_alt    "P 1"
_space_group_IT_number       1

loop_
  _space_group_symop_operation_xyz
  'x, y, z'

loop_
  _atom_site_type_symbol
  _atom_site_label
  _atom_site_symmetry_multiplicity
  _atom_site_fract_x
  _atom_site_fract_y
  _atom_site_fract_z
  _atom_site_occupancy
  Rh  Rh1       1.0  0.24999999553680696  0.2500000613491809  0.24999997893097595  1.0000
  Rh  Rh2       1.0  0.7500000445357946  0.7499998955038526  0.7499999784786605  1.0000
  Au  Au1       1.0  0.9999999837709331  0.9999999594235436  5.601154524640054e-08  1.0000
  F   F1        1.0  0.2619192535715847  0.2619193358950251  0.7380807453913966  1.0000
  F   F2        1.0  0.7380807607171518  0.7380806728057034  0.2619192965373615  1.0000
  F   F3        1.0  0.7380806707853452  0.2619193756645977  0.2619192184025592  1.0000
  F   F4        1.0  0.261919307199706  0.73808071644329  0.7380807484380661  1.0000
  F   F5        1.0  0.2619192842699743  0.7380807043271012  0.26191927069685583  1.0000
  F   F6        1.0  0.7380807144121895  0.2619192683056652  0.7380807510545296  1.0000
