data_image0
_chemical_formula_structural       Rh2AuBr6
_chemical_formula_sum              "Rh2 Au1 Br6"
_cell_length_a       6.889923258915573
_cell_length_b       6.889923350191866
_cell_length_c       6.889923294122118
_cell_angle_alpha    59.99999957316189
_cell_angle_beta     59.99999992733468
_cell_angle_gamma    59.99999951850219

_space_group_name_H-M_alt    "P 1"
_space_group_IT_number       1

loop_
  _space_group_symop_operation_xyz
  'x, y, z'

loop_
  _atom_site_type_symbol
  _atom_site_label
  _atom_site_symmetry_multiplicity
  _atom_site_fract_x
  _atom_site_fract_y
  _atom_site_fract_z
  _atom_site_occupancy
  Rh  Rh1       1.0  0.24999999828030878  0.24999996649385842  0.2500000314204191  1.0000
  Rh  Rh2       1.0  0.7500000255129212  0.7500000487990127  0.7499999549191114  1.0000
  Au  Au1       1.0  0.9999999830548528  0.9999999804465263  3.7353608639887525e-09  1.0000
  Br  Br1       1.0  0.2594623023715769  0.25946231674239184  0.7405376814118717  1.0000
  Br  Br2       1.0  0.7405376868197249  0.7405376967728908  0.25946232892299703  1.0000
  Br  Br3       1.0  0.7405377190551926  0.2594622752524853  0.25946232643636047  1.0000
  Br  Br4       1.0  0.2594622977467877  0.7405377258196776  0.740537673411939  1.0000
  Br  Br5       1.0  0.259462312732644  0.7405376995717649  0.2594623000430728  1.0000
  Br  Br6       1.0  0.7405376808096885  0.25946229083486694  0.7405377066080514  1.0000
