data_image0
_chemical_formula_structural       Rh2AsBr6
_chemical_formula_sum              "Rh2 As1 Br6"
_cell_length_a       6.801487147822329
_cell_length_b       6.801487179224883
_cell_length_c       6.801487134145965
_cell_angle_alpha    60.00000061209538
_cell_angle_beta     59.99999965688341
_cell_angle_gamma    59.999999859737976

_space_group_name_H-M_alt    "P 1"
_space_group_IT_number       1

loop_
  _space_group_symop_operation_xyz
  'x, y, z'

loop_
  _atom_site_type_symbol
  _atom_site_label
  _atom_site_symmetry_multiplicity
  _atom_site_fract_x
  _atom_site_fract_y
  _atom_site_fract_z
  _atom_site_occupancy
  Rh  Rh1       1.0  0.2500000167712891  0.2499999088808519  0.2500000522752348  1.0000
  Rh  Rh2       1.0  0.7499999678581916  0.7500000147548065  0.7499999187328821  1.0000
  As  As1       1.0  7.331081452681341e-08  0.9999999837936857  2.323350189476892e-09  1.0000
  Br  Br1       1.0  0.2567043171900956  0.2567043019364762  0.7432957118485856  1.0000
  Br  Br2       1.0  0.7432956742979007  0.7432956775209312  0.25670433661913433  1.0000
  Br  Br3       1.0  0.7432956886212668  0.2567043357234181  0.2567043302786555  1.0000
  Br  Br4       1.0  0.2567042661494794  0.7432957589788903  0.7432957259737737  1.0000
  Br  Br5       1.0  0.25670430272682726  0.7432956858313277  0.25670429084204405  1.0000
  Br  Br6       1.0  0.7432956953284038  0.2567043350422154  0.7432956248342555  1.0000
