data_image0
_chemical_formula_structural       Rh2AuCl6
_chemical_formula_sum              "Rh2 Au1 Cl6"
_cell_length_a       6.48570092898151
_cell_length_b       6.485701046711137
_cell_length_c       6.485701046658588
_cell_angle_alpha    60.00000019808679
_cell_angle_beta     59.99999916495438
_cell_angle_gamma    60.000000405148896

_space_group_name_H-M_alt    "P 1"
_space_group_IT_number       1

loop_
  _space_group_symop_operation_xyz
  'x, y, z'

loop_
  _atom_site_type_symbol
  _atom_site_label
  _atom_site_symmetry_multiplicity
  _atom_site_fract_x
  _atom_site_fract_y
  _atom_site_fract_z
  _atom_site_occupancy
  Rh  Rh1       1.0  0.2500000171072749  0.24999999810776327  0.25000000414402473  1.0000
  Rh  Rh2       1.0  0.7499999901780102  0.7499999641092577  0.750000039608757  1.0000
  Au  Au1       1.0  5.665130861191498e-09  0.9999999830046071  3.1876638205132644e-08  1.0000
  Cl  Cl1       1.0  0.26142289433532145  0.26142290353542946  0.7385770783788697  1.0000
  Cl  Cl2       1.0  0.7385771082012278  0.738577120998032  0.2614228872507522  1.0000
  Cl  Cl3       1.0  0.7385770925975547  0.26142292245703613  0.26142286233767426  1.0000
  Cl  Cl4       1.0  0.2614228656269874  0.7385771228485722  0.7385771058107573  1.0000
  Cl  Cl5       1.0  0.261422912195435  0.7385770986945847  0.2614228891079828  1.0000
  Cl  Cl6       1.0  0.7385771095303488  0.2614228842945831  0.7385771031177021  1.0000
