data_image0
_chemical_formula_structural       Rh2AsI6
_chemical_formula_sum              "Rh2 As1 I6"
_cell_length_a       7.499793868162163
_cell_length_b       7.499793838077503
_cell_length_c       7.499793941456495
_cell_angle_alpha    59.99999910482203
_cell_angle_beta     59.99999994469333
_cell_angle_gamma    59.99999963410639

_space_group_name_H-M_alt    "P 1"
_space_group_IT_number       1

loop_
  _space_group_symop_operation_xyz
  'x, y, z'

loop_
  _atom_site_type_symbol
  _atom_site_label
  _atom_site_symmetry_multiplicity
  _atom_site_fract_x
  _atom_site_fract_y
  _atom_site_fract_z
  _atom_site_occupancy
  Rh  Rh1       1.0  0.2499999887665569  0.25000002826102713  0.24999999239897164  1.0000
  Rh  Rh2       1.0  0.7500000544036048  0.749999959039151  0.7499999106812355  1.0000
  As  As1       1.0  0.9999999970141087  0.9999999951008861  0.9999999439408541  1.0000
  I   I1        1.0  0.2624928774417892  0.2624930245241841  0.7375069978150794  1.0000
  I   I2        1.0  0.7375071345459079  0.7375070101340975  0.2624929705126563  1.0000
  I   I3        1.0  0.7375070079618888  0.26249296147251056  0.26249299033070916  1.0000
  I   I4        1.0  0.2624929115378076  0.7375071058465316  0.7375071065800239  1.0000
  I   I5        1.0  0.26249293560581827  0.7375070482701601  0.26249299390491737  1.0000
  I   I6        1.0  0.7375070899452069  0.2624928671763422  0.7375070939155427  1.0000
