data_image0
_chemical_formula_structural       Rh2AuI6
_chemical_formula_sum              "Rh2 Au1 I6"
_cell_length_a       7.387129907635571
_cell_length_b       7.387129855033979
_cell_length_c       7.387129803910191
_cell_angle_alpha    60.00000054106121
_cell_angle_beta     60.00000067887228
_cell_angle_gamma    60.000000061093225

_space_group_name_H-M_alt    "P 1"
_space_group_IT_number       1

loop_
  _space_group_symop_operation_xyz
  'x, y, z'

loop_
  _atom_site_type_symbol
  _atom_site_label
  _atom_site_symmetry_multiplicity
  _atom_site_fract_x
  _atom_site_fract_y
  _atom_site_fract_z
  _atom_site_occupancy
  Rh  Rh1       1.0  0.2500000334439407  0.2499999787618125  0.25000000816430323  1.0000
  Rh  Rh2       1.0  0.7500000080749265  0.7499999926555384  0.7499999612139627  1.0000
  Au  Au1       1.0  0.999999994489788  0.999999988394391  0.9999999814837958  1.0000
  I   I1        1.0  0.2653992042751779  0.2653992322104592  0.7346007741616827  1.0000
  I   I2        1.0  0.7346008116485087  0.7346007972349368  0.2653992196113231  1.0000
  I   I3        1.0  0.7346007613940925  0.2653992006380523  0.2653992150863453  1.0000
  I   I4        1.0  0.26539919044148086  0.7346008288073438  0.7346008080233056  1.0000
  I   I5        1.0  0.2653991930918936  0.7346007943683674  0.26539921354851914  1.0000
  I   I6        1.0  0.7346008051173105  0.265399180364872  0.7346008137303949  1.0000
