data_image0
_chemical_formula_structural       Rh2AsCl6
_chemical_formula_sum              "Rh2 As1 Cl6"
_cell_length_a       6.335303680169279
_cell_length_b       6.3353037182200955
_cell_length_c       6.3353035769549715
_cell_angle_alpha    60.00000074293569
_cell_angle_beta     60.000000809463366
_cell_angle_gamma    59.99999980317563

_space_group_name_H-M_alt    "P 1"
_space_group_IT_number       1

loop_
  _space_group_symop_operation_xyz
  'x, y, z'

loop_
  _atom_site_type_symbol
  _atom_site_label
  _atom_site_symmetry_multiplicity
  _atom_site_fract_x
  _atom_site_fract_y
  _atom_site_fract_z
  _atom_site_occupancy
  Rh  Rh1       1.0  0.25000001301762337  0.2499999986193978  0.2500000107275621  1.0000
  Rh  Rh2       1.0  0.7500000098905607  0.7499999958581937  0.7499999773117624  1.0000
  As  As1       1.0  9.334345293764569e-09  0.9999999884007625  0.9999999127388919  1.0000
  Cl  Cl1       1.0  0.25776462447353055  0.25776470544660834  0.7422353549994253  1.0000
  Cl  Cl2       1.0  0.7422353501803751  0.7422353025634271  0.25776468196994284  1.0000
  Cl  Cl3       1.0  0.7422353651064058  0.25776463940939287  0.25776462912336034  1.0000
  Cl  Cl4       1.0  0.25776460534940143  0.7422353975987361  0.7422353986029228  1.0000
  Cl  Cl5       1.0  0.25776462029613506  0.7422353652002646  0.257764631348199  1.0000
  Cl  Cl6       1.0  0.7422354074545497  0.25776459834602694  0.7422354060400205  1.0000
