data_image0
_chemical_formula_structural       Rh2AsSe6
_chemical_formula_sum              "Rh2 As1 Se6"
_cell_length_a       6.272661604825954
_cell_length_b       6.2726613935960716
_cell_length_c       6.2726617053387
_cell_angle_alpha    59.99999952044077
_cell_angle_beta     59.999999114082925
_cell_angle_gamma    59.99999883550419

_space_group_name_H-M_alt    "P 1"
_space_group_IT_number       1

loop_
  _space_group_symop_operation_xyz
  'x, y, z'

loop_
  _atom_site_type_symbol
  _atom_site_label
  _atom_site_symmetry_multiplicity
  _atom_site_fract_x
  _atom_site_fract_y
  _atom_site_fract_z
  _atom_site_occupancy
  Rh  Rh1       1.0  0.2499997023073357  0.24999987713666041  0.2500004265998537  1.0000
  Rh  Rh2       1.0  0.7500000168802508  0.7500005022304806  0.7500000020148412  1.0000
  As  As1       1.0  1.5154275437784568e-08  9.76256107829889e-09  0.9999999444976536  1.0000
  Se  Se1       1.0  0.28792747876107516  0.28792736248760054  0.7120724399927748  1.0000
  Se  Se2       1.0  0.7120725837238259  0.7120725834217871  0.2879272620998666  1.0000
  Se  Se3       1.0  0.7120727238688898  0.2879272294789063  0.2879274959132916  1.0000
  Se  Se4       1.0  0.28792735977780604  0.7120726363774788  0.7120724954827418  1.0000
  Se  Se5       1.0  0.2879274026828937  0.7120725950629618  0.28792744670318193  1.0000
  Se  Se6       1.0  0.7120727434983866  0.2879271770728291  0.7120724773864379  1.0000
