data_image0
_chemical_formula_structural       Rh2BF6
_chemical_formula_sum              "Rh2 B1 F6"
_cell_length_a       5.067152462203381
_cell_length_b       5.067152559560861
_cell_length_c       5.067153406712246
_cell_angle_alpha    59.99999395457339
_cell_angle_beta     59.99999756537452
_cell_angle_gamma    59.99999821125079

_space_group_name_H-M_alt    "P 1"
_space_group_IT_number       1

loop_
  _space_group_symop_operation_xyz
  'x, y, z'

loop_
  _atom_site_type_symbol
  _atom_site_label
  _atom_site_symmetry_multiplicity
  _atom_site_fract_x
  _atom_site_fract_y
  _atom_site_fract_z
  _atom_site_occupancy
  Rh  Rh1       1.0  0.24999984344243628  0.25000001434202646  0.25000006073443864  1.0000
  Rh  Rh2       1.0  0.7500001915019817  0.7499999463449699  0.7499999413999403  1.0000
  B   B1        1.0  0.9999996540614537  0.9999999371572685  1.6689423153569847e-07  1.0000
  F   F1        1.0  0.22230751363092235  0.22230750550421038  0.7776924649091724  1.0000
  F   F2        1.0  0.7776926136816315  0.7776926702982759  0.22230737953640622  1.0000
  F   F3        1.0  0.7776926245557675  0.22230737434214415  0.22230734808357755  1.0000
  F   F4        1.0  0.22230747916721852  0.7776925645916023  0.7776925950152414  1.0000
  F   F5        1.0  0.22230740563312676  0.7776926336735782  0.2223073751810925  1.0000
  F   F6        1.0  0.7776926870631471  0.22230736568586557  0.7776926221580182  1.0000
