data_image0
_chemical_formula_structural       Rh2BeF6
_chemical_formula_sum              "Rh2 Be1 F6"
_cell_length_a       4.933800477291708
_cell_length_b       4.933800488583166
_cell_length_c       4.933800511317281
_cell_angle_alpha    59.99999924230178
_cell_angle_beta     59.99999917752269
_cell_angle_gamma    59.99999988400191

_space_group_name_H-M_alt    "P 1"
_space_group_IT_number       1

loop_
  _space_group_symop_operation_xyz
  'x, y, z'

loop_
  _atom_site_type_symbol
  _atom_site_label
  _atom_site_symmetry_multiplicity
  _atom_site_fract_x
  _atom_site_fract_y
  _atom_site_fract_z
  _atom_site_occupancy
  Rh  Rh1       1.0  0.24999993256412653  0.2500000380547888  0.2500000193844426  1.0000
  Rh  Rh2       1.0  0.7500000067210753  0.7500000347289784  0.7499999710614876  1.0000
  Be  Be1       1.0  4.4232143409382496e-08  0.9999999304940349  0.9999999781807144  1.0000
  F   F1        1.0  0.2434601778412228  0.24346017475394724  0.7565397969061665  1.0000
  F   F2        1.0  0.756539793998542  0.7565397863238043  0.24346023514232554  1.0000
  F   F3        1.0  0.75653982319871  0.24346019293816512  0.24346021074774465  1.0000
  F   F4        1.0  0.2434601939115133  0.7565398078572809  0.7565398071823616  1.0000
  F   F5        1.0  0.2434601989368955  0.7565398300843169  0.24346019007536032  1.0000
  F   F6        1.0  0.7565397958321249  0.2434602377347387  0.7565397933525319  1.0000
