data_image0
_chemical_formula_structural       Rh2BeI6
_chemical_formula_sum              "Rh2 Be1 I6"
_cell_length_a       7.165308407666699
_cell_length_b       7.165308474544751
_cell_length_c       7.165308451872736
_cell_angle_alpha    59.99999995081957
_cell_angle_beta     60.00000039956225
_cell_angle_gamma    60.00000013403177

_space_group_name_H-M_alt    "P 1"
_space_group_IT_number       1

loop_
  _space_group_symop_operation_xyz
  'x, y, z'

loop_
  _atom_site_type_symbol
  _atom_site_label
  _atom_site_symmetry_multiplicity
  _atom_site_fract_x
  _atom_site_fract_y
  _atom_site_fract_z
  _atom_site_occupancy
  Rh  Rh1       1.0  0.2500000712624675  0.2499999025189595  0.25000001731747357  1.0000
  Rh  Rh2       1.0  0.7499999429492943  0.7500000511202017  0.7500000853704781  1.0000
  Be  Be1       1.0  0.9999999737437505  0.9999999965814595  6.463714896342115e-09  1.0000
  I   I1        1.0  0.24854084430150006  0.24854086399064912  0.7514591185251711  1.0000
  I   I2        1.0  0.7514591601740797  0.7514592058788906  0.24854080112364235  1.0000
  I   I3        1.0  0.7514591344953658  0.24854083217120096  0.24854083783563888  1.0000
  I   I4        1.0  0.2485408321026533  0.7514591676182578  0.7514591650998751  1.0000
  I   I5        1.0  0.2485408910223608  0.7514591798981741  0.2485407716646563  1.0000
  I   I6        1.0  0.7514591495266323  0.2485408010893116  0.7514591939270642  1.0000
