data_image0
_chemical_formula_structural       Rh2BeCl6
_chemical_formula_sum              "Rh2 Be1 Cl6"
_cell_length_a       6.065291186340846
_cell_length_b       6.06529114162897
_cell_length_c       6.065291096846648
_cell_angle_alpha    59.999999430389074
_cell_angle_beta     59.99999992961958
_cell_angle_gamma    60.00000063104553

_space_group_name_H-M_alt    "P 1"
_space_group_IT_number       1

loop_
  _space_group_symop_operation_xyz
  'x, y, z'

loop_
  _atom_site_type_symbol
  _atom_site_label
  _atom_site_symmetry_multiplicity
  _atom_site_fract_x
  _atom_site_fract_y
  _atom_site_fract_z
  _atom_site_occupancy
  Rh  Rh1       1.0  0.2500000112875988  0.2499999437347795  0.250000054779156  1.0000
  Rh  Rh2       1.0  0.7500000191867312  0.7500000351504155  0.7499998339347169  1.0000
  Be  Be1       1.0  4.838317748090847e-08  0.9999999919229284  0.9999999584135156  1.0000
  Cl  Cl1       1.0  0.2469347940052062  0.24693472957203147  0.7530652724421929  1.0000
  Cl  Cl2       1.0  0.7530652468162446  0.7530651725809758  0.24693479784950745  1.0000
  Cl  Cl3       1.0  0.7530650758333878  0.2469349332634439  0.24693487774685394  1.0000
  Cl  Cl4       1.0  0.24693473302982025  0.7530652192788009  0.7530652789554266  1.0000
  Cl  Cl5       1.0  0.24693484511691666  0.7530651885527048  0.24693474412667207  1.0000
  Cl  Cl6       1.0  0.7530652311637172  0.24693478427468601  0.7530651840670681  1.0000
