data_image0
_chemical_formula_structural       Rh2BI6
_chemical_formula_sum              "Rh2 B1 I6"
_cell_length_a       7.134124080788896
_cell_length_b       7.1341240145477824
_cell_length_c       7.134124090538665
_cell_angle_alpha    60.00000108885503
_cell_angle_beta     59.999999880722605
_cell_angle_gamma    60.000000678046774

_space_group_name_H-M_alt    "P 1"
_space_group_IT_number       1

loop_
  _space_group_symop_operation_xyz
  'x, y, z'

loop_
  _atom_site_type_symbol
  _atom_site_label
  _atom_site_symmetry_multiplicity
  _atom_site_fract_x
  _atom_site_fract_y
  _atom_site_fract_z
  _atom_site_occupancy
  Rh  Rh1       1.0  0.2499999216007586  0.24999997576421032  0.2500000559653783  1.0000
  Rh  Rh2       1.0  0.7500000200100998  0.7500000114129776  0.7499999982320505  1.0000
  B   B1        1.0  0.9999999615304511  8.583709558651135e-09  7.101147073011152e-08  1.0000
  I   I1        1.0  0.24151597054663992  0.24151596819304771  0.7584840260414684  1.0000
  I   I2        1.0  0.7584840586459587  0.7584840378682993  0.2415159440853078  1.0000
  I   I3        1.0  0.7584840915947789  0.2415159605469772  0.24151593000193547  1.0000
  I   I4        1.0  0.24151593939589844  0.7584840643985286  0.7584839933391642  1.0000
  I   I5        1.0  0.2415160083695834  0.7584840043053946  0.24151593603151356  1.0000
  I   I6        1.0  0.7584840280827104  0.24151596055415026  0.7584840496646016  1.0000
