data_image0
_chemical_formula_structural       Rh2BBr6
_chemical_formula_sum              "Rh2 B1 Br6"
_cell_length_a       6.6439800063758065
_cell_length_b       6.643980126654952
_cell_length_c       6.643980232008438
_cell_angle_alpha    59.99999910037144
_cell_angle_beta     60.00000025572219
_cell_angle_gamma    59.99999834647221

_space_group_name_H-M_alt    "P 1"
_space_group_IT_number       1

loop_
  _space_group_symop_operation_xyz
  'x, y, z'

loop_
  _atom_site_type_symbol
  _atom_site_label
  _atom_site_symmetry_multiplicity
  _atom_site_fract_x
  _atom_site_fract_y
  _atom_site_fract_z
  _atom_site_occupancy
  Rh  Rh1       1.0  0.2500000053814419  0.250000036019076  0.24999996825206716  1.0000
  Rh  Rh2       1.0  0.7499999977135291  0.7499999808632929  0.7500000708861242  1.0000
  B   B1        1.0  0.9999999685781321  0.9999998857097983  9.543286294155103e-08  1.0000
  Br  Br1       1.0  0.24115457125889633  0.24115463158227401  0.7588454497760322  1.0000
  Br  Br2       1.0  0.7588454727400117  0.7588453668661905  0.24115458414763075  1.0000
  Br  Br3       1.0  0.758845397626153  0.24115464708094417  0.24115459220773997  1.0000
  Br  Br4       1.0  0.2411545508539204  0.7588454085126243  0.7588453465135243  1.0000
  Br  Br5       1.0  0.2411545763460546  0.7588454668700617  0.2411545620080295  1.0000
  Br  Br6       1.0  0.7588454522912643  0.24115457766316312  0.7588453376494191  1.0000
