data_image0
_chemical_formula_structural       Rh2BCl6
_chemical_formula_sum              "Rh2 B1 Cl6"
_cell_length_a       6.181995867381997
_cell_length_b       6.1819957861546015
_cell_length_c       6.181995796346974
_cell_angle_alpha    59.99999995908767
_cell_angle_beta     60.000000780088456
_cell_angle_gamma    60.000000556836945

_space_group_name_H-M_alt    "P 1"
_space_group_IT_number       1

loop_
  _space_group_symop_operation_xyz
  'x, y, z'

loop_
  _atom_site_type_symbol
  _atom_site_label
  _atom_site_symmetry_multiplicity
  _atom_site_fract_x
  _atom_site_fract_y
  _atom_site_fract_z
  _atom_site_occupancy
  Rh  Rh1       1.0  0.24999996622397574  0.2500000041871592  0.25000001748895084  1.0000
  Rh  Rh2       1.0  0.7500000323086008  0.749999959070482  0.7499999703363988  1.0000
  B   B1        1.0  4.5964634286588884e-08  0.9999997444319055  9.509612668589963e-08  1.0000
  Cl  Cl1       1.0  0.2359582631842631  0.235958266136936  0.7640417544614894  1.0000
  Cl  Cl2       1.0  0.7640418249076367  0.7640418655182877  0.23595815291342526  1.0000
  Cl  Cl3       1.0  0.7640417736441197  0.2359582268885995  0.2359582346319199  1.0000
  Cl  Cl4       1.0  0.23595815505951886  0.7640418393887382  0.7640418514476918  1.0000
  Cl  Cl5       1.0  0.23595814214554436  0.7640418381241746  0.23595815910625198  1.0000
  Cl  Cl6       1.0  0.7640417979723265  0.23595824994579156  0.7640417631682762  1.0000
