data_image0
_chemical_formula_structural       Rh2BeBr6
_chemical_formula_sum              "Rh2 Be1 Br6"
_cell_length_a       6.619879881332077
_cell_length_b       6.619879767815556
_cell_length_c       6.619879916655964
_cell_angle_alpha    59.999999938363864
_cell_angle_beta     59.999999501078214
_cell_angle_gamma    60.0000003488298

_space_group_name_H-M_alt    "P 1"
_space_group_IT_number       1

loop_
  _space_group_symop_operation_xyz
  'x, y, z'

loop_
  _atom_site_type_symbol
  _atom_site_label
  _atom_site_symmetry_multiplicity
  _atom_site_fract_x
  _atom_site_fract_y
  _atom_site_fract_z
  _atom_site_occupancy
  Rh  Rh1       1.0  0.2499999980261092  0.24999998254636727  0.2500000015823672  1.0000
  Rh  Rh2       1.0  0.7499999663963088  0.7500000882468068  0.7499999709432805  1.0000
  Be  Be1       1.0  0.9999999835788598  7.400405591493666e-09  2.71693886805114e-08  1.0000
  Br  Br1       1.0  0.24606951686025003  0.24606944660275915  0.7539305269956063  1.0000
  Br  Br2       1.0  0.7539305137062717  0.7539305094841302  0.2460695090867682  1.0000
  Br  Br3       1.0  0.7539305415915177  0.24606943382635407  0.24606950273757572  1.0000
  Br  Br4       1.0  0.24606947512647517  0.7539305167102306  0.7539304947049699  1.0000
  Br  Br5       1.0  0.24606947725176154  0.7539305362156763  0.24606948303653936  1.0000
  Br  Br6       1.0  0.7539305284532785  0.2460694735241527  0.7539304933320639  1.0000
