data_image0
_chemical_formula_structural       Rh2CrCl6
_chemical_formula_sum              "Rh2 Cr1 Cl6"
_cell_length_a       6.3378826133564585
_cell_length_b       6.33788251695904
_cell_length_c       6.337882758789035
_cell_angle_alpha    59.99999964900661
_cell_angle_beta     59.999999923632345
_cell_angle_gamma    59.99999955166424

_space_group_name_H-M_alt    "P 1"
_space_group_IT_number       1

loop_
  _space_group_symop_operation_xyz
  'x, y, z'

loop_
  _atom_site_type_symbol
  _atom_site_label
  _atom_site_symmetry_multiplicity
  _atom_site_fract_x
  _atom_site_fract_y
  _atom_site_fract_z
  _atom_site_occupancy
  Rh  Rh1       1.0  0.24999994198276165  0.25000000117818744  0.24999999681463336  1.0000
  Rh  Rh2       1.0  0.7500000397740025  0.7499999687510096  0.7500000571264022  1.0000
  Cr  Cr1       1.0  0.9999999890685838  0.9999999999999999  0.9999999944210103  1.0000
  Cl  Cl1       1.0  0.25115665796197295  0.251156683827444  0.7488433291661463  1.0000
  Cl  Cl2       1.0  0.748843295452636  0.748843371128218  0.2511566838102229  1.0000
  Cl  Cl3       1.0  0.748843373801335  0.2511567475529915  0.25115658368443594  1.0000
  Cl  Cl4       1.0  0.2511566500423008  0.7488432764839557  0.7488433764026838  1.0000
  Cl  Cl5       1.0  0.25115665826410005  0.7488433344643568  0.25115669461345314  1.0000
  Cl  Cl6       1.0  0.7488433973444623  0.25115661614064333  0.7488432878849905  1.0000
