data_image0
_chemical_formula_structural       Rh2CI6
_chemical_formula_sum              "Rh2 C1 I6"
_cell_length_a       7.097966306979379
_cell_length_b       7.09796627482638
_cell_length_c       7.097966480247215
_cell_angle_alpha    59.999998518016454
_cell_angle_beta     59.99999934331785
_cell_angle_gamma    59.999999136867565

_space_group_name_H-M_alt    "P 1"
_space_group_IT_number       1

loop_
  _space_group_symop_operation_xyz
  'x, y, z'

loop_
  _atom_site_type_symbol
  _atom_site_label
  _atom_site_symmetry_multiplicity
  _atom_site_fract_x
  _atom_site_fract_y
  _atom_site_fract_z
  _atom_site_occupancy
  Rh  Rh1       1.0  0.24999998416011662  0.2500001012904446  0.2500000312203197  1.0000
  Rh  Rh2       1.0  0.7499999524184352  0.7500000795580177  0.7500000635542996  1.0000
  C   C1        1.0  0.9999999636520643  0.9999999723922064  1.39050785072566e-07  1.0000
  I   I1        1.0  0.246704995691766  0.24670491469752204  0.7532949891282632  1.0000
  I   I2        1.0  0.7532950636895069  0.7532950539160341  0.24670494466973414  1.0000
  I   I3        1.0  0.7532950172980126  0.24670497364676117  0.2467048986548551  1.0000
  I   I4        1.0  0.24670495080175966  0.7532949759864375  0.7532950705501122  1.0000
  I   I5        1.0  0.2467050076597865  0.7532950276016545  0.24670489222561728  1.0000
  I   I6        1.0  0.753295067628667  0.24670490305118706  0.75329499342727  1.0000
