data_image0
_chemical_formula_structural       Rh2CuBr6
_chemical_formula_sum              "Rh2 Cu1 Br6"
_cell_length_a       6.7323973787124345
_cell_length_b       6.732397276454337
_cell_length_c       6.732397333774722
_cell_angle_alpha    60.00000054465876
_cell_angle_beta     60.000000047738986
_cell_angle_gamma    60.00000007144283

_space_group_name_H-M_alt    "P 1"
_space_group_IT_number       1

loop_
  _space_group_symop_operation_xyz
  'x, y, z'

loop_
  _atom_site_type_symbol
  _atom_site_label
  _atom_site_symmetry_multiplicity
  _atom_site_fract_x
  _atom_site_fract_y
  _atom_site_fract_z
  _atom_site_occupancy
  Rh  Rh1       1.0  0.24999998285477917  0.2500000077809651  0.25000001677616573  1.0000
  Rh  Rh2       1.0  0.7499999832833046  0.7500000015127237  0.7499999829845445  1.0000
  Cu  Cu1       1.0  2.886311192522198e-08  0.9999999854465526  0.9999999854183926  1.0000
  Br  Br1       1.0  0.25256971720033927  0.252569736821015  0.7474302662487695  1.0000
  Br  Br2       1.0  0.7474302726375852  0.747430288845302  0.2525697194171261  1.0000
  Br  Br3       1.0  0.7474302872666306  0.25256971820660107  0.252569715425936  1.0000
  Br  Br4       1.0  0.25256969915886435  0.7474302765336404  0.7474302829531471  1.0000
  Br  Br5       1.0  0.25256973386422354  0.7474302624786708  0.2525697519503887  1.0000
  Br  Br6       1.0  0.7474302905024369  0.25256972134648553  0.7474302819323689  1.0000
