data_image0
_chemical_formula_structural       Rh2CoCl6
_chemical_formula_sum              "Rh2 Co1 Cl6"
_cell_length_a       6.242877656466377
_cell_length_b       6.242877696146716
_cell_length_c       6.242877649026071
_cell_angle_alpha    59.99999990402047
_cell_angle_beta     60.000000027042645
_cell_angle_gamma    60.000000308971735

_space_group_name_H-M_alt    "P 1"
_space_group_IT_number       1

loop_
  _space_group_symop_operation_xyz
  'x, y, z'

loop_
  _atom_site_type_symbol
  _atom_site_label
  _atom_site_symmetry_multiplicity
  _atom_site_fract_x
  _atom_site_fract_y
  _atom_site_fract_z
  _atom_site_occupancy
  Rh  Rh1       1.0  0.24999998003834853  0.24999999596222344  0.25000001060032506  1.0000
  Rh  Rh2       1.0  0.7500000620783378  0.7499999937721528  0.7500000159313499  1.0000
  Co  Co1       1.0  2.305463365520005e-08  1.9618274457740375e-08  0.9999999546361649  1.0000
  Cl  Cl1       1.0  0.25260187522194855  0.25260186177722116  0.7473981421856795  1.0000
  Cl  Cl2       1.0  0.7473981016159913  0.7473981240335001  0.2526018756979104  1.0000
  Cl  Cl3       1.0  0.7473981481639856  0.2526018503895666  0.25260186152964115  1.0000
  Cl  Cl4       1.0  0.25260180972887264  0.7473981589630839  0.7473981412409216  1.0000
  Cl  Cl5       1.0  0.25260183723306234  0.7473981432223519  0.2526018789433881  1.0000
  Cl  Cl6       1.0  0.7473981541775092  0.25260185435933413  0.7473981241665782  1.0000
