data_image0
_chemical_formula_structural       Rh2CrF6
_chemical_formula_sum              "Rh2 Cr1 F6"
_cell_length_a       5.3249455110993456
_cell_length_b       5.324945245589513
_cell_length_c       5.324945217530937
_cell_angle_alpha    60.00000111938822
_cell_angle_beta     60.00000050215939
_cell_angle_gamma    60.00000217170233

_space_group_name_H-M_alt    "P 1"
_space_group_IT_number       1

loop_
  _space_group_symop_operation_xyz
  'x, y, z'

loop_
  _atom_site_type_symbol
  _atom_site_label
  _atom_site_symmetry_multiplicity
  _atom_site_fract_x
  _atom_site_fract_y
  _atom_site_fract_z
  _atom_site_occupancy
  Rh  Rh1       1.0  0.24999995463571978  0.24999995181056195  0.24999991108474676  1.0000
  Rh  Rh2       1.0  0.7500000333750322  0.7499999520322813  0.7499998349642041  1.0000
  Cr  Cr1       1.0  0.9999999988387093  2.300013958204101e-08  0.9999999740569471  1.0000
  F   F1        1.0  0.25204737974190494  0.2520472734673235  0.7479527933309752  1.0000
  F   F2        1.0  0.7479526963418911  0.7479527499762566  0.2520473146135758  1.0000
  F   F3        1.0  0.7479526574657969  0.25204740240130485  0.2520474421462142  1.0000
  F   F4        1.0  0.25204731477176656  0.7479526463424249  0.7479526074177931  1.0000
  F   F5        1.0  0.2520473448901998  0.7479526408530078  0.2520473806597036  1.0000
  F   F6        1.0  0.7479526366338219  0.25204745159098785  0.747952649922756  1.0000
