data_image0
_chemical_formula_structural       Rh2CCl6
_chemical_formula_sum              "Rh2 C1 Cl6"
_cell_length_a       6.22090273166803
_cell_length_b       6.220902761719175
_cell_length_c       6.220902798158365
_cell_angle_alpha    59.999999988871515
_cell_angle_beta     60.00000062091699
_cell_angle_gamma    60.00000173379731

_space_group_name_H-M_alt    "P 1"
_space_group_IT_number       1

loop_
  _space_group_symop_operation_xyz
  'x, y, z'

loop_
  _atom_site_type_symbol
  _atom_site_label
  _atom_site_symmetry_multiplicity
  _atom_site_fract_x
  _atom_site_fract_y
  _atom_site_fract_z
  _atom_site_occupancy
  Rh  Rh1       1.0  0.24999998479321334  0.24999997488227035  0.24999998713186428  1.0000
  Rh  Rh2       1.0  0.7500000059757649  0.7500000093033822  0.7499999527461431  1.0000
  C   C1        1.0  3.573479857617709e-07  5.98502265199194e-07  2.8142015458402415e-06  1.0000
  Cl  Cl1       1.0  0.24228601149675072  0.2422859983511552  0.7577138624622242  1.0000
  Cl  Cl2       1.0  0.7577136363198811  0.757713605864304  0.2422862218667472  1.0000
  Cl  Cl3       1.0  0.7577144154832716  0.24228554323141432  0.2422854825151447  1.0000
  Cl  Cl4       1.0  0.24228684349879692  0.7577130864491385  0.7577130875306808  1.0000
  Cl  Cl5       1.0  0.24228557227336764  0.7577143846910892  0.24228549798807417  1.0000
  Cl  Cl6       1.0  0.7577131740781281  0.24228677681149755  0.7577131139014852  1.0000
