data_image0
_chemical_formula_structural       Rh2CoBr6
_chemical_formula_sum              "Rh2 Co1 Br6"
_cell_length_a       6.734666651516941
_cell_length_b       6.734666533562447
_cell_length_c       6.734666539520444
_cell_angle_alpha    60.000000213158415
_cell_angle_beta     60.00000093344655
_cell_angle_gamma    59.99999956818755

_space_group_name_H-M_alt    "P 1"
_space_group_IT_number       1

loop_
  _space_group_symop_operation_xyz
  'x, y, z'

loop_
  _atom_site_type_symbol
  _atom_site_label
  _atom_site_symmetry_multiplicity
  _atom_site_fract_x
  _atom_site_fract_y
  _atom_site_fract_z
  _atom_site_occupancy
  Rh  Rh1       1.0  0.24999998717178273  0.2499999947428206  0.24999999986661312  1.0000
  Rh  Rh2       1.0  0.749999977534753  0.750000013325549  0.7499999740718842  1.0000
  Co  Co1       1.0  4.745508926310221e-09  0.9999999909071602  1.1082792499796951e-08  1.0000
  Br  Br1       1.0  0.25049184883909437  0.25049177799242905  0.7495081833855006  1.0000
  Br  Br2       1.0  0.7495081963657071  0.7495082046159888  0.2504917838218033  1.0000
  Br  Br3       1.0  0.7495082044735474  0.250491795385415  0.25049180512937513  1.0000
  Br  Br4       1.0  0.25049185444775224  0.7495081872230029  0.7495082042198786  1.0000
  Br  Br5       1.0  0.2504917626609166  0.749508204760141  0.250491832695739  1.0000
  Br  Br6       1.0  0.7495081633030372  0.2504918269496122  0.7495082096723926  1.0000
