data_image0
_chemical_formula_structural       Rh2CuF6
_chemical_formula_sum              "Rh2 Cu1 F6"
_cell_length_a       5.173134120313352
_cell_length_b       5.173134192998028
_cell_length_c       5.1731342240414095
_cell_angle_alpha    59.9999985352622
_cell_angle_beta     59.999998341177886
_cell_angle_gamma    59.999999761798954

_space_group_name_H-M_alt    "P 1"
_space_group_IT_number       1

loop_
  _space_group_symop_operation_xyz
  'x, y, z'

loop_
  _atom_site_type_symbol
  _atom_site_label
  _atom_site_symmetry_multiplicity
  _atom_site_fract_x
  _atom_site_fract_y
  _atom_site_fract_z
  _atom_site_occupancy
  Rh  Rh1       1.0  0.2500000220677125  0.25000001422450774  0.2499999868552817  1.0000
  Rh  Rh2       1.0  0.7499999462340164  0.7499999740157222  0.750000022017218  1.0000
  Cu  Cu1       1.0  1.5783402929091653e-09  0.9999999952649794  0.9999999899799557  1.0000
  F   F1        1.0  0.25447993973367483  0.2544799351875269  0.745520036144574  1.0000
  F   F2        1.0  0.745520036324355  0.7455200364801303  0.2544799887344463  1.0000
  F   F3        1.0  0.7455200763173816  0.25447992894680543  0.2544799797829758  1.0000
  F   F4        1.0  0.25447993779869144  0.7455200758659968  0.7455200481557316  1.0000
  F   F5        1.0  0.2544799989135467  0.7455200479221628  0.2544799347958699  1.0000
  F   F6        1.0  0.7455200196435166  0.25447999713831615  0.7455200340702861  1.0000
