data_image0
_chemical_formula_structural       Rh2CF6
_chemical_formula_sum              "Rh2 C1 F6"
_cell_length_a       4.896015465319459
_cell_length_b       4.896014418283906
_cell_length_c       4.896014893726486
_cell_angle_alpha    59.99999970476564
_cell_angle_beta     60.00000431147196
_cell_angle_gamma    59.99999843614579

_space_group_name_H-M_alt    "P 1"
_space_group_IT_number       1

loop_
  _space_group_symop_operation_xyz
  'x, y, z'

loop_
  _atom_site_type_symbol
  _atom_site_label
  _atom_site_symmetry_multiplicity
  _atom_site_fract_x
  _atom_site_fract_y
  _atom_site_fract_z
  _atom_site_occupancy
  Rh  Rh1       1.0  0.2500001879736131  0.24999982504562418  0.24999987998565515  1.0000
  Rh  Rh2       1.0  0.7499996639370496  0.7500000029563457  0.7500002427045314  1.0000
  C   C1        1.0  0.9999995697607559  5.2531779767955694e-08  0.9999998886095471  1.0000
  F   F1        1.0  0.22624622108283618  0.22624648311058979  0.7737536998755495  1.0000
  F   F2        1.0  0.7737541662364779  0.7737537551397107  0.22624627065511643  1.0000
  F   F3        1.0  0.7737536434464627  0.22624631562518005  0.2262462767503592  1.0000
  F   F4        1.0  0.226246066257999  0.773754002673547  0.7737535595583004  1.0000
  F   F5        1.0  0.22624635483055508  0.7737538228998152  0.22624626954267102  1.0000
  F   F6        1.0  0.7737540671137738  0.22624579497498915  0.7737539734384475  1.0000
