data_image0
_chemical_formula_structural       Rh2CuI6
_chemical_formula_sum              "Rh2 Cu1 I6"
_cell_length_a       7.176718079696126
_cell_length_b       7.176718108480227
_cell_length_c       7.176718030861624
_cell_angle_alpha    59.99999997737932
_cell_angle_beta     59.99999977383373
_cell_angle_gamma    60.00000024076732

_space_group_name_H-M_alt    "P 1"
_space_group_IT_number       1

loop_
  _space_group_symop_operation_xyz
  'x, y, z'

loop_
  _atom_site_type_symbol
  _atom_site_label
  _atom_site_symmetry_multiplicity
  _atom_site_fract_x
  _atom_site_fract_y
  _atom_site_fract_z
  _atom_site_occupancy
  Rh  Rh1       1.0  0.2499999691883073  0.24999997006627353  0.25000002665129356  1.0000
  Rh  Rh2       1.0  0.7500001081626172  0.7499999938199102  0.7499999907934811  1.0000
  Cu  Cu1       1.0  3.2569466567170034e-08  0.9999999795213659  3.436302653253581e-08  1.0000
  I   I1        1.0  0.2569754875726659  0.25697557179154096  0.7430245117779326  1.0000
  I   I2        1.0  0.7430244390887388  0.7430244193994883  0.2569755450648665  1.0000
  I   I3        1.0  0.7430244992773789  0.25697549515479035  0.2569755580657107  1.0000
  I   I4        1.0  0.2569755441070695  0.7430244499593125  0.7430244077182463  1.0000
  I   I5        1.0  0.25697550250047224  0.7430245331409735  0.2569755405081931  1.0000
  I   I6        1.0  0.7430244179341906  0.2569755877480719  0.7430243877160287  1.0000
