data_image0
_chemical_formula_structural       Rh2CuCl6
_chemical_formula_sum              "Rh2 Cu1 Cl6"
_cell_length_a       6.293574533664798
_cell_length_b       6.293574521438552
_cell_length_c       6.2935745023574
_cell_angle_alpha    59.99999883730019
_cell_angle_beta     59.99999953789495
_cell_angle_gamma    59.999999405958015

_space_group_name_H-M_alt    "P 1"
_space_group_IT_number       1

loop_
  _space_group_symop_operation_xyz
  'x, y, z'

loop_
  _atom_site_type_symbol
  _atom_site_label
  _atom_site_symmetry_multiplicity
  _atom_site_fract_x
  _atom_site_fract_y
  _atom_site_fract_z
  _atom_site_occupancy
  Rh  Rh1       1.0  0.24999997969578464  0.24999995467491004  0.25000002587926173  1.0000
  Rh  Rh2       1.0  0.7499999985744791  0.7500000158146246  0.7499999640546627  1.0000
  Cu  Cu1       1.0  0.9999999657888184  0.9999999980539753  4.826812434146806e-08  1.0000
  Cl  Cl1       1.0  0.25561500558998196  0.2556149371252328  0.7443850309730604  1.0000
  Cl  Cl2       1.0  0.74438501311743  0.7443850936910542  0.2556149530687332  1.0000
  Cl  Cl3       1.0  0.7443851012147872  0.2556149464180594  0.2556149086318914  1.0000
  Cl  Cl4       1.0  0.2556149481838335  0.7443850143413537  0.7443850680810586  1.0000
  Cl  Cl5       1.0  0.255614912609693  0.7443850532643749  0.2556149884727231  1.0000
  Cl  Cl6       1.0  0.7443850649737053  0.25561498533600907  0.7443850249504064  1.0000
