data_image0
_chemical_formula_structural       Rh2CoF6
_chemical_formula_sum              "Rh2 Co1 F6"
_cell_length_a       5.155061930050532
_cell_length_b       5.155061838806734
_cell_length_c       5.155061861717876
_cell_angle_alpha    59.99999900966458
_cell_angle_beta     59.99999955757788
_cell_angle_gamma    60.00000015814299

_space_group_name_H-M_alt    "P 1"
_space_group_IT_number       1

loop_
  _space_group_symop_operation_xyz
  'x, y, z'

loop_
  _atom_site_type_symbol
  _atom_site_label
  _atom_site_symmetry_multiplicity
  _atom_site_fract_x
  _atom_site_fract_y
  _atom_site_fract_z
  _atom_site_occupancy
  Rh  Rh1       1.0  0.2500000391408515  0.24999993753687144  0.25000004509379026  1.0000
  Rh  Rh2       1.0  0.7499999030641378  0.7500000121786747  0.7500000437446614  1.0000
  Co  Co1       1.0  1.540779806985635e-08  1.4254862108360834e-08  0.9999999289132827  1.0000
  F   F1        1.0  0.24890159944753995  0.24890158544475502  0.7510983865186509  1.0000
  F   F2        1.0  0.7510984042527656  0.7510984284176694  0.2489015832433158  1.0000
  F   F3        1.0  0.7510984483584804  0.24890155242640372  0.24890155299422753  1.0000
  F   F4        1.0  0.2489015863166074  0.7510984424295387  0.7510984418210439  1.0000
  F   F5        1.0  0.2489016048906666  0.7510984336798285  0.24890154394330394  1.0000
  F   F6        1.0  0.7510984333364802  0.24890157067935476  0.7510984579232041  1.0000
