data_image0
_chemical_formula_structural       Rh2CoI6
_chemical_formula_sum              "Rh2 Co1 I6"
_cell_length_a       7.192853173469428
_cell_length_b       7.192853181801235
_cell_length_c       7.19285317299124
_cell_angle_alpha    59.99999997553037
_cell_angle_beta     59.99999991379825
_cell_angle_gamma    59.99999987811319

_space_group_name_H-M_alt    "P 1"
_space_group_IT_number       1

loop_
  _space_group_symop_operation_xyz
  'x, y, z'

loop_
  _atom_site_type_symbol
  _atom_site_label
  _atom_site_symmetry_multiplicity
  _atom_site_fract_x
  _atom_site_fract_y
  _atom_site_fract_z
  _atom_site_occupancy
  Rh  Rh1       1.0  0.24999999979681697  0.24999997617360772  0.2500000080413776  1.0000
  Rh  Rh2       1.0  0.7499999798814355  0.7500000255761307  0.7499999950828692  1.0000
  Co  Co1       1.0  3.2106884765580387e-09  0.0  0.9999999983946558  1.0000
  I   I1        1.0  0.2502098391839108  0.2502098333848615  0.7497901630097014  1.0000
  I   I2        1.0  0.7497901653368411  0.7497901564458039  0.2502098433847143  1.0000
  I   I3        1.0  0.7497901778423826  0.2502098328373035  0.25020983847779993  1.0000
  I   I4        1.0  0.2502098344129492  0.7497901723178841  0.7497901591676026  1.0000
  I   I5        1.0  0.2502098353584899  0.7497901708163197  0.2502098338672965  1.0000
  I   I6        1.0  0.7497901640540879  0.25020983433886784  0.7497901590773317  1.0000
