data_image0
_chemical_formula_structural       Rh2FeBr6
_chemical_formula_sum              "Rh2 Fe1 Br6"
_cell_length_a       6.845793943272343
_cell_length_b       6.845793902423255
_cell_length_c       6.845794031729663
_cell_angle_alpha    59.99999930403117
_cell_angle_beta     60.00000009544543
_cell_angle_gamma    60.00000185569895

_space_group_name_H-M_alt    "P 1"
_space_group_IT_number       1

loop_
  _space_group_symop_operation_xyz
  'x, y, z'

loop_
  _atom_site_type_symbol
  _atom_site_label
  _atom_site_symmetry_multiplicity
  _atom_site_fract_x
  _atom_site_fract_y
  _atom_site_fract_z
  _atom_site_occupancy
  Rh  Rh1       1.0  0.2499999979291604  0.24999996061233418  0.2499999827465253  1.0000
  Rh  Rh2       1.0  0.7499999844826317  0.7500000160155456  0.7499999646832792  1.0000
  Fe  Fe1       1.0  3.155383659990655e-08  0.9999999964219061  6.489267900396198e-08  1.0000
  Br  Br1       1.0  0.23341469632716338  0.23341476090647315  0.7665851200093045  1.0000
  Br  Br2       1.0  0.7665853063078318  0.7665852461352106  0.23341457422485132  1.0000
  Br  Br3       1.0  0.7665853422958546  0.23341465023467434  0.23341479486163996  1.0000
  Br  Br4       1.0  0.23341476341975514  0.7665851993708537  0.7665853691578189  1.0000
  Br  Br5       1.0  0.23341466616774284  0.7665853511342859  0.2334147581710356  1.0000
  Br  Br6       1.0  0.7665852148326143  0.23341481334355108  0.7665853447016338  1.0000
