data_image0
_chemical_formula_structural       Rh2FeCl6
_chemical_formula_sum              "Rh2 Fe1 Cl6"
_cell_length_a       6.320294861668136
_cell_length_b       6.320294903139013
_cell_length_c       6.320294963420385
_cell_angle_alpha    59.99999839449187
_cell_angle_beta     59.99999881787984
_cell_angle_gamma    60.00000049445596

_space_group_name_H-M_alt    "P 1"
_space_group_IT_number       1

loop_
  _space_group_symop_operation_xyz
  'x, y, z'

loop_
  _atom_site_type_symbol
  _atom_site_label
  _atom_site_symmetry_multiplicity
  _atom_site_fract_x
  _atom_site_fract_y
  _atom_site_fract_z
  _atom_site_occupancy
  Rh  Rh1       1.0  0.24999999091347985  0.2500000015300423  0.24999999826088803  1.0000
  Rh  Rh2       1.0  0.7500000059584192  0.7499999871499538  0.7499999900581701  1.0000
  Fe  Fe1       1.0  0.9999999651766964  5.813390442015644e-09  2.8744798420513724e-08  1.0000
  Cl  Cl1       1.0  0.2468794783891139  0.2468795007284525  0.7531205347609078  1.0000
  Cl  Cl2       1.0  0.7531205656515991  0.7531205053917169  0.24687949719947905  1.0000
  Cl  Cl3       1.0  0.7531204940078339  0.2468794865697532  0.24687951276313955  1.0000
  Cl  Cl4       1.0  0.2468795029748893  0.7531204962968518  0.753120478407202  1.0000
  Cl  Cl5       1.0  0.24687951702372107  0.7531205024574276  0.24687947820344414  1.0000
  Cl  Cl6       1.0  0.7531204843506902  0.24687950560053926  0.7531204934287586  1.0000
