data_image0
_chemical_formula_structural       Rh2FeF6
_chemical_formula_sum              "Rh2 Fe1 F6"
_cell_length_a       5.297545811796097
_cell_length_b       5.297545807155483
_cell_length_c       5.297545881139859
_cell_angle_alpha    59.99999910405974
_cell_angle_beta     59.999999714188725
_cell_angle_gamma    60.000001444098054

_space_group_name_H-M_alt    "P 1"
_space_group_IT_number       1

loop_
  _space_group_symop_operation_xyz
  'x, y, z'

loop_
  _atom_site_type_symbol
  _atom_site_label
  _atom_site_symmetry_multiplicity
  _atom_site_fract_x
  _atom_site_fract_y
  _atom_site_fract_z
  _atom_site_occupancy
  Rh  Rh1       1.0  0.25000014552180416  0.2500000474236357  0.24999987267523352  1.0000
  Rh  Rh2       1.0  0.750000216598244  0.7499998278511513  0.7500000305694857  1.0000
  Fe  Fe1       1.0  0.9999999646414554  0.9999999491379808  3.367194940085472e-08  1.0000
  F   F1        1.0  0.2554348168386943  0.2554351439104194  0.7445650509470287  1.0000
  F   F2        1.0  0.7445650694440397  0.7445649949220888  0.2554349244594882  1.0000
  F   F3        1.0  0.7445649260662779  0.2554350751685222  0.25543498187090996  1.0000
  F   F4        1.0  0.25543497177600505  0.7445650289853374  0.7445650145334896  1.0000
  F   F5        1.0  0.25543494596208377  0.7445649669301604  0.2554350371075706  1.0000
  F   F6        1.0  0.7445649358102541  0.25543498926146346  0.7445650167732552  1.0000
