data_image0
_chemical_formula_structural       Rh2FeI6
_chemical_formula_sum              "Rh2 Fe1 I6"
_cell_length_a       7.244148442457243
_cell_length_b       7.244148509323557
_cell_length_c       7.244148606187089
_cell_angle_alpha    59.999999591937645
_cell_angle_beta     60.00000022260427
_cell_angle_gamma    60.000001449190016

_space_group_name_H-M_alt    "P 1"
_space_group_IT_number       1

loop_
  _space_group_symop_operation_xyz
  'x, y, z'

loop_
  _atom_site_type_symbol
  _atom_site_label
  _atom_site_symmetry_multiplicity
  _atom_site_fract_x
  _atom_site_fract_y
  _atom_site_fract_z
  _atom_site_occupancy
  Rh  Rh1       1.0  0.2500000384807475  0.24999998137052998  0.2499999943060801  1.0000
  Rh  Rh2       1.0  0.7499999727080806  0.7499999897596183  0.7500000245591836  1.0000
  Fe  Fe1       1.0  0.9999999963451809  0.9999999966186643  0.9999999828117103  1.0000
  I   I1        1.0  0.2319061310472823  0.2319060721335164  0.7680938924139454  1.0000
  I   I2        1.0  0.7680939162062806  0.7680939581700058  0.23190607193014193  1.0000
  I   I3        1.0  0.7680938683799536  0.2319061376997537  0.23190611035866776  1.0000
  I   I4        1.0  0.23190610041515575  0.7680938554090756  0.7680939035294454  1.0000
  I   I5        1.0  0.23190609213936247  0.7680938740733991  0.23190613064049773  1.0000
  I   I6        1.0  0.7680938824680987  0.23190612072609793  0.7680938877786524  1.0000
