data_image0
_chemical_formula_structural       Rh2GeCl6
_chemical_formula_sum              "Rh2 Ge1 Cl6"
_cell_length_a       6.374318046763473
_cell_length_b       6.374317944374381
_cell_length_c       6.374318021936983
_cell_angle_alpha    59.99999874621
_cell_angle_beta     59.9999996765283
_cell_angle_gamma    59.999999689576995

_space_group_name_H-M_alt    "P 1"
_space_group_IT_number       1

loop_
  _space_group_symop_operation_xyz
  'x, y, z'

loop_
  _atom_site_type_symbol
  _atom_site_label
  _atom_site_symmetry_multiplicity
  _atom_site_fract_x
  _atom_site_fract_y
  _atom_site_fract_z
  _atom_site_occupancy
  Rh  Rh1       1.0  0.24999999894334562  0.24999999891125127  0.24999999532021294  1.0000
  Rh  Rh2       1.0  0.7500000182382461  0.75000001402612  0.7499999760231227  1.0000
  Ge  Ge1       1.0  0.9999999797628215  0.9999999846290077  8.391313850894581e-09  1.0000
  Cl  Cl1       1.0  0.25076618067183415  0.25076615436397565  0.7492338108821692  1.0000
  Cl  Cl2       1.0  0.7492338612489956  0.7492338278314119  0.25076611953627165  1.0000
  Cl  Cl3       1.0  0.7492337989942015  0.250766167622882  0.25076621425506807  1.0000
  Cl  Cl4       1.0  0.250766163751696  0.7492338184152522  0.7492338589387495  1.0000
  Cl  Cl5       1.0  0.25076615498738003  0.7492338569583729  0.2507661900877585  1.0000
  Cl  Cl6       1.0  0.749233842248982  0.2507661886423563  0.7492338188227806  1.0000
