data_image0
_chemical_formula_structural       Rh2GaF6
_chemical_formula_sum              "Rh2 Ga1 F6"
_cell_length_a       5.22142659589306
_cell_length_b       5.221426866416088
_cell_length_c       5.221426516047343
_cell_angle_alpha    59.99999890994853
_cell_angle_beta     59.99999770685175
_cell_angle_gamma    59.999998532438134

_space_group_name_H-M_alt    "P 1"
_space_group_IT_number       1

loop_
  _space_group_symop_operation_xyz
  'x, y, z'

loop_
  _atom_site_type_symbol
  _atom_site_label
  _atom_site_symmetry_multiplicity
  _atom_site_fract_x
  _atom_site_fract_y
  _atom_site_fract_z
  _atom_site_occupancy
  Rh  Rh1       1.0  0.25000003389198444  0.25000000433986114  0.24999996206007902  1.0000
  Rh  Rh2       1.0  0.7499999549603609  0.749999975489768  0.7500000989596272  1.0000
  Ga  Ga1       1.0  0.9999999990839805  9.382452987811983e-09  1.874900820104619e-08  1.0000
  F   F1        1.0  0.2526456593737174  0.25264563867085316  0.7473543381556358  1.0000
  F   F2        1.0  0.7473543591437033  0.7473543317763252  0.2526455901508901  1.0000
  F   F3        1.0  0.7473543715538506  0.25264565626426083  0.25264562275339236  1.0000
  F   F4        1.0  0.25264563315818367  0.7473543423302773  0.7473543462617823  1.0000
  F   F5        1.0  0.25264564450019134  0.7473543368946313  0.2526456574616894  1.0000
  F   F6        1.0  0.7473543183051259  0.25264569453849356  0.7473543773734844  1.0000
