data_image0
_chemical_formula_structural       Rh2GaI6
_chemical_formula_sum              "Rh2 Ga1 I6"
_cell_length_a       7.369323331672262
_cell_length_b       7.369323361829788
_cell_length_c       7.369323432463189
_cell_angle_alpha    60.00000038666262
_cell_angle_beta     59.99999994930966
_cell_angle_gamma    60.00000027063086

_space_group_name_H-M_alt    "P 1"
_space_group_IT_number       1

loop_
  _space_group_symop_operation_xyz
  'x, y, z'

loop_
  _atom_site_type_symbol
  _atom_site_label
  _atom_site_symmetry_multiplicity
  _atom_site_fract_x
  _atom_site_fract_y
  _atom_site_fract_z
  _atom_site_occupancy
  Rh  Rh1       1.0  0.24999997594989454  0.2500000531838196  0.24999997174943192  1.0000
  Rh  Rh2       1.0  0.7500000316644962  0.7499999468218296  0.7500000036301199  1.0000
  Ga  Ga1       1.0  4.431867242476316e-09  0.999999986704398  0.9999999867911705  1.0000
  I   I1        1.0  0.2611992947656213  0.2611993340624884  0.7388006765780935  1.0000
  I   I2        1.0  0.7388006817795731  0.7388006792387627  0.26119931854406914  1.0000
  I   I3        1.0  0.7388006888842374  0.2611993276318929  0.2611993431039065  1.0000
  I   I4        1.0  0.2611993176221867  0.7388006756976571  0.738800678661862  1.0000
  I   I5        1.0  0.26119932546947594  0.7388006792603886  0.2611993541579592  1.0000
  I   I6        1.0  0.7388006758773081  0.261199320745261  0.7388006677786496  1.0000
