data_image0
_chemical_formula_structural       Rh2GeF6
_chemical_formula_sum              "Rh2 Ge1 F6"
_cell_length_a       5.404960649244047
_cell_length_b       5.4049602826264715
_cell_length_c       5.40496021894604
_cell_angle_alpha    59.99999894877506
_cell_angle_beta     59.99999693973851
_cell_angle_gamma    59.999997128112305

_space_group_name_H-M_alt    "P 1"
_space_group_IT_number       1

loop_
  _space_group_symop_operation_xyz
  'x, y, z'

loop_
  _atom_site_type_symbol
  _atom_site_label
  _atom_site_symmetry_multiplicity
  _atom_site_fract_x
  _atom_site_fract_y
  _atom_site_fract_z
  _atom_site_occupancy
  Rh  Rh1       1.0  0.24999974326544427  0.2499999129915401  0.2500001122349789  1.0000
  Rh  Rh2       1.0  0.7500001466403375  0.7500000199542303  0.7499998210499438  1.0000
  Ge  Ge1       1.0  0.9999999650404916  4.078736417506849e-08  2.4838358820546074e-08  1.0000
  F   F1        1.0  0.2406615202686405  0.24066140173700126  0.7593385447170121  1.0000
  F   F2        1.0  0.75933855599762  0.7593385425385916  0.24066142663402815  1.0000
  F   F3        1.0  0.7593385344529867  0.2406614732361691  0.24066159717794594  1.0000
  F   F4        1.0  0.24066153158306772  0.7593385594120462  0.7593385275177329  1.0000
  F   F5        1.0  0.24066148232908077  0.7593385272676134  0.24066142232915028  1.0000
  F   F6        1.0  0.7593385472813092  0.24066147365709584  0.7593384922210018  1.0000
