data_image0
_chemical_formula_structural       Rh2GaBr6
_chemical_formula_sum              "Rh2 Ga1 Br6"
_cell_length_a       6.783689058271839
_cell_length_b       6.783688893726774
_cell_length_c       6.783688902645353
_cell_angle_alpha    59.99999965055328
_cell_angle_beta     59.999999394709675
_cell_angle_gamma    60.000000672148445

_space_group_name_H-M_alt    "P 1"
_space_group_IT_number       1

loop_
  _space_group_symop_operation_xyz
  'x, y, z'

loop_
  _atom_site_type_symbol
  _atom_site_label
  _atom_site_symmetry_multiplicity
  _atom_site_fract_x
  _atom_site_fract_y
  _atom_site_fract_z
  _atom_site_occupancy
  Rh  Rh1       1.0  0.24999991800806956  0.24999998022411088  0.25000004458516695  1.0000
  Rh  Rh2       1.0  0.7500000330771583  0.7499999460886152  0.7500000077362483  1.0000
  Ga  Ga1       1.0  0.9999999998967456  5.416278227819868e-09  2.2403599515179055e-08  1.0000
  Br  Br1       1.0  0.25616882851060757  0.25616885300835995  0.7438311423500608  1.0000
  Br  Br2       1.0  0.7438311898000367  0.7438311780190786  0.25616880336355013  1.0000
  Br  Br3       1.0  0.7438311752964964  0.2561688401947667  0.2561688153793593  1.0000
  Br  Br4       1.0  0.256168841536199  0.7438311493078724  0.7438311665768678  1.0000
  Br  Br5       1.0  0.2561688381622305  0.7438312152861934  0.2561688209386138  1.0000
  Br  Br6       1.0  0.7438311906534917  0.25616883018465414  0.7438311565244795  1.0000
