data_image0
_chemical_formula_structural       Rh2GeBr6
_chemical_formula_sum              "Rh2 Ge1 Br6"
_cell_length_a       6.807328816607537
_cell_length_b       6.807328755571724
_cell_length_c       6.807328753924284
_cell_angle_alpha    60.000000203782584
_cell_angle_beta     60.00000061748266
_cell_angle_gamma    59.999999348361314

_space_group_name_H-M_alt    "P 1"
_space_group_IT_number       1

loop_
  _space_group_symop_operation_xyz
  'x, y, z'

loop_
  _atom_site_type_symbol
  _atom_site_label
  _atom_site_symmetry_multiplicity
  _atom_site_fract_x
  _atom_site_fract_y
  _atom_site_fract_z
  _atom_site_occupancy
  Rh  Rh1       1.0  0.24999998159479683  0.24999996065782695  0.250000043502035  1.0000
  Rh  Rh2       1.0  0.7499999775747249  0.7500001194621184  0.7499999395444291  1.0000
  Ge  Ge1       1.0  0.9999999844426202  0.9999999856067493  0.9999999855952152  1.0000
  Br  Br1       1.0  0.24988013391143188  0.24988012477048177  0.7501198725121472  1.0000
  Br  Br2       1.0  0.7501198933496238  0.7501198833832091  0.24988013156874248  1.0000
  Br  Br3       1.0  0.7501198516089101  0.2498801150978426  0.24988013689912406  1.0000
  Br  Br4       1.0  0.24988014023645866  0.7501198822609105  0.7501198844110577  1.0000
  Br  Br5       1.0  0.24988015182027473  0.7501198529556146  0.24988010713881317  1.0000
  Br  Br6       1.0  0.7501198853626226  0.24988007963350978  0.750119904790354  1.0000
