data_image0
_chemical_formula_structural       Rh2IrBr6
_chemical_formula_sum              "Rh2 Ir1 Br6"
_cell_length_a       6.8813587045693465
_cell_length_b       6.881358642104864
_cell_length_c       6.8813586565114635
_cell_angle_alpha    59.999999965326
_cell_angle_beta     59.999999679691626
_cell_angle_gamma    60.00000006629974

_space_group_name_H-M_alt    "P 1"
_space_group_IT_number       1

loop_
  _space_group_symop_operation_xyz
  'x, y, z'

loop_
  _atom_site_type_symbol
  _atom_site_label
  _atom_site_symmetry_multiplicity
  _atom_site_fract_x
  _atom_site_fract_y
  _atom_site_fract_z
  _atom_site_occupancy
  Rh  Rh1       1.0  0.25000002332941323  0.24999998233149087  0.24999996883586606  1.0000
  Rh  Rh2       1.0  0.750000004493362  0.7500000377643214  0.7500000086730233  1.0000
  Ir  Ir1       1.0  6.406684038558159e-09  1.6018208700194143e-08  6.225970349619102e-09  1.0000
  Br  Br1       1.0  0.25043951467966746  0.2504394965185608  0.7495604924765901  1.0000
  Br  Br2       1.0  0.749560482261293  0.749560500439839  0.25043948733748933  1.0000
  Br  Br3       1.0  0.7495604922967352  0.2504395046448076  0.25043950726146536  1.0000
  Br  Br4       1.0  0.25043949893259626  0.7495604691761798  0.7495605247603708  1.0000
  Br  Br5       1.0  0.25043950704957907  0.7495604732800816  0.2504395119647166  1.0000
  Br  Br6       1.0  0.7495604721283003  0.25043951655911434  0.7495604875565123  1.0000
