data_image0
_chemical_formula_structural       Rh2MnBr6
_chemical_formula_sum              "Rh2 Mn1 Br6"
_cell_length_a       6.808495988431951
_cell_length_b       6.808496057141025
_cell_length_c       6.808496049329422
_cell_angle_alpha    60.000000349912526
_cell_angle_beta     59.99999993864624
_cell_angle_gamma    60.00000031479271

_space_group_name_H-M_alt    "P 1"
_space_group_IT_number       1

loop_
  _space_group_symop_operation_xyz
  'x, y, z'

loop_
  _atom_site_type_symbol
  _atom_site_label
  _atom_site_symmetry_multiplicity
  _atom_site_fract_x
  _atom_site_fract_y
  _atom_site_fract_z
  _atom_site_occupancy
  Rh  Rh1       1.0  0.2500000492381464  0.24999998054316247  0.2500000207067988  1.0000
  Rh  Rh2       1.0  0.750000024763921  0.7500000153822499  0.7499999824378006  1.0000
  Mn  Mn1       1.0  9.69673321991302e-09  0.9999999658218905  6.952206078371096e-08  1.0000
  Br  Br1       1.0  0.2425389047475401  0.24253891673710604  0.7574610639203055  1.0000
  Br  Br2       1.0  0.7574611013980734  0.7574611097687202  0.24253887267463115  1.0000
  Br  Br3       1.0  0.7574610831658023  0.24253889077252788  0.24253894474274076  1.0000
  Br  Br4       1.0  0.2425389124454325  0.7574610655782313  0.7574610689157477  1.0000
  Br  Br5       1.0  0.24253884171952098  0.7574611163801515  0.24253893386962577  1.0000
  Br  Br6       1.0  0.757461073528552  0.242538933510697  0.7574610452940891  1.0000
