data_image0
_chemical_formula_structural       Rh2MnI6
_chemical_formula_sum              "Rh2 Mn1 I6"
_cell_length_a       7.275103346042407
_cell_length_b       7.2751034075824705
_cell_length_c       7.275103409041465
_cell_angle_alpha    60.0000005170895
_cell_angle_beta     60.00000084766218
_cell_angle_gamma    60.000000743127934

_space_group_name_H-M_alt    "P 1"
_space_group_IT_number       1

loop_
  _space_group_symop_operation_xyz
  'x, y, z'

loop_
  _atom_site_type_symbol
  _atom_site_label
  _atom_site_symmetry_multiplicity
  _atom_site_fract_x
  _atom_site_fract_y
  _atom_site_fract_z
  _atom_site_occupancy
  Rh  Rh1       1.0  0.25000003938489157  0.2500000073991129  0.2499999942389429  1.0000
  Rh  Rh2       1.0  0.7499999855042772  0.7499999868443806  0.7499999485071273  1.0000
  Mn  Mn1       1.0  0.9999999638796405  0.99999997979831  3.915743161865019e-08  1.0000
  I   I1        1.0  0.24957965744112848  0.24957963125715826  0.7504203561605263  1.0000
  I   I2        1.0  0.7504203388620182  0.750420391605396  0.24957965942022237  1.0000
  I   I3        1.0  0.7504203565629026  0.2495796252644987  0.24957963941873818  1.0000
  I   I4        1.0  0.2495796769196773  0.7504203622450981  0.7504203216412872  1.0000
  I   I5        1.0  0.24957963796459623  0.750420342899738  0.24957967882639598  1.0000
  I   I6        1.0  0.7504203431240413  0.2495796732289197  0.7504203587249625  1.0000
