data_image0
_chemical_formula_structural       Rh2MnF6
_chemical_formula_sum              "Rh2 Mn1 F6"
_cell_length_a       5.271660722384403
_cell_length_b       5.271660402660608
_cell_length_c       5.271659941371458
_cell_angle_alpha    59.99999673411359
_cell_angle_beta     59.99999811709076
_cell_angle_gamma    59.999999642409726

_space_group_name_H-M_alt    "P 1"
_space_group_IT_number       1

loop_
  _space_group_symop_operation_xyz
  'x, y, z'

loop_
  _atom_site_type_symbol
  _atom_site_label
  _atom_site_symmetry_multiplicity
  _atom_site_fract_x
  _atom_site_fract_y
  _atom_site_fract_z
  _atom_site_occupancy
  Rh  Rh1       1.0  0.2500001587523013  0.2500000389728216  0.2499998367151529  1.0000
  Rh  Rh2       1.0  0.7500001945429831  0.7499997661058497  0.7500002987457495  1.0000
  Mn  Mn1       1.0  0.9999999588684285  5.1111765378085705e-08  1.397925991779038e-08  1.0000
  F   F1        1.0  0.24970730919999462  0.2497073764385423  0.7502926192141083  1.0000
  F   F2        1.0  0.7502925696607384  0.7502926888454874  0.24970737865669596  1.0000
  F   F3        1.0  0.7502926016421003  0.2497073627173693  0.24970739460209257  1.0000
  F   F4        1.0  0.24970724531562752  0.7502926142826951  0.750292720270274  1.0000
  F   F5        1.0  0.24970729499283542  0.7502925876213435  0.24970736195534332  1.0000
  F   F6        1.0  0.7502926667497959  0.24970741958113704  0.7502925704010849  1.0000
