data_image0
_chemical_formula_structural       Rh2MoF6
_chemical_formula_sum              "Rh2 Mo1 F6"
_cell_length_a       5.526498899799812
_cell_length_b       5.5264978944617456
_cell_length_c       5.526498597839588
_cell_angle_alpha    60.00000423089336
_cell_angle_beta     60.00000335841151
_cell_angle_gamma    60.00000279720737

_space_group_name_H-M_alt    "P 1"
_space_group_IT_number       1

loop_
  _space_group_symop_operation_xyz
  'x, y, z'

loop_
  _atom_site_type_symbol
  _atom_site_label
  _atom_site_symmetry_multiplicity
  _atom_site_fract_x
  _atom_site_fract_y
  _atom_site_fract_z
  _atom_site_occupancy
  Rh  Rh1       1.0  0.2500001639989976  0.24999981979480346  0.2499998046132143  1.0000
  Rh  Rh2       1.0  0.7499998390210263  0.7500000643884334  0.7499998359077154  1.0000
  Mo  Mo1       1.0  6.989853043240119e-08  5.98355800323746e-08  1.1426988076724275e-07  1.0000
  F   F1        1.0  0.2560608351901169  0.2560609856872619  0.743938995292426  1.0000
  F   F2        1.0  0.7439392727590823  0.7439391666479688  0.25606078801037685  1.0000
  F   F3        1.0  0.7439389599035103  0.25606083482538916  0.25606101073029663  1.0000
  F   F4        1.0  0.25606072290756493  0.7439393330227695  0.7439391963302385  1.0000
  F   F5        1.0  0.2560608709594746  0.7439391229871098  0.25606094195457724  1.0000
  F   F6        1.0  0.7439393017899945  0.25606055287979146  0.7439393602194899  1.0000
