data_image0
_chemical_formula_structural       Rh2MgI6
_chemical_formula_sum              "Rh2 Mg1 I6"
_cell_length_a       7.402396697951771
_cell_length_b       7.402396878636199
_cell_length_c       7.402396743089784
_cell_angle_alpha    60.00000007458028
_cell_angle_beta     59.99999966562197
_cell_angle_gamma    60.00000161033323

_space_group_name_H-M_alt    "P 1"
_space_group_IT_number       1

loop_
  _space_group_symop_operation_xyz
  'x, y, z'

loop_
  _atom_site_type_symbol
  _atom_site_label
  _atom_site_symmetry_multiplicity
  _atom_site_fract_x
  _atom_site_fract_y
  _atom_site_fract_z
  _atom_site_occupancy
  Rh  Rh1       1.0  0.24999995059449223  0.25000009186994404  0.2499999719012324  1.0000
  Rh  Rh2       1.0  0.750000007684507  0.7499999529775143  0.7500000490531531  1.0000
  Mg  Mg1       1.0  0.9999999943281388  0.999999970218555  8.270256536794803e-09  1.0000
  I   I1        1.0  0.26411022361161063  0.2641102070016026  0.7358897559327339  1.0000
  I   I2        1.0  0.7358898591134352  0.7358898014463139  0.2641101642600192  1.0000
  I   I3        1.0  0.7358898018219368  0.2641102247826791  0.2641101922160175  1.0000
  I   I4        1.0  0.2641101918157439  0.7358897654654639  0.735889811340409  1.0000
  I   I5        1.0  0.26411020084315423  0.7358897730332196  0.26411022931758643  1.0000
  I   I6        1.0  0.7358897726104382  0.2641102122513491  0.7358898138309476  1.0000
