data_image0
_chemical_formula_structural       Rh2MgCl6
_chemical_formula_sum              "Rh2 Mg1 Cl6"
_cell_length_a       6.339422947611611
_cell_length_b       6.339422935084968
_cell_length_c       6.339422940551526
_cell_angle_alpha    60.00000066979344
_cell_angle_beta     60.00000078823643
_cell_angle_gamma    59.99999986569051

_space_group_name_H-M_alt    "P 1"
_space_group_IT_number       1

loop_
  _space_group_symop_operation_xyz
  'x, y, z'

loop_
  _atom_site_type_symbol
  _atom_site_label
  _atom_site_symmetry_multiplicity
  _atom_site_fract_x
  _atom_site_fract_y
  _atom_site_fract_z
  _atom_site_occupancy
  Rh  Rh1       1.0  0.2499999282370371  0.25000012006619177  0.24999997696650939  1.0000
  Rh  Rh2       1.0  0.7500000916068206  0.7499999313056553  0.7500000549953588  1.0000
  Mg  Mg1       1.0  0.9999999882062762  1.352365049319822e-08  0.9999999675864238  1.0000
  Cl  Cl1       1.0  0.2615026110414267  0.2615025939790673  0.7384973813386649  1.0000
  Cl  Cl2       1.0  0.7384974064853916  0.7384973878425763  0.2615025824464018  1.0000
  Cl  Cl3       1.0  0.7384974378129865  0.26150258969741935  0.26150256630684676  1.0000
  Cl  Cl4       1.0  0.2615025148957456  0.7384973843964248  0.7384974873838044  1.0000
  Cl  Cl5       1.0  0.2615025883717168  0.7384973935664351  0.2615025526207298  1.0000
  Cl  Cl6       1.0  0.7384974330190021  0.26150257666350807  0.738497432379974  1.0000
