data_image0
_chemical_formula_structural       Rh2MgBr6
_chemical_formula_sum              "Rh2 Mg1 Br6"
_cell_length_a       6.8277119423605726
_cell_length_b       6.8277119809173366
_cell_length_c       6.827711952044538
_cell_angle_alpha    60.000000580728745
_cell_angle_beta     59.999999809480634
_cell_angle_gamma    60.00000040612002

_space_group_name_H-M_alt    "P 1"
_space_group_IT_number       1

loop_
  _space_group_symop_operation_xyz
  'x, y, z'

loop_
  _atom_site_type_symbol
  _atom_site_label
  _atom_site_symmetry_multiplicity
  _atom_site_fract_x
  _atom_site_fract_y
  _atom_site_fract_z
  _atom_site_occupancy
  Rh  Rh1       1.0  0.24999999765518371  0.25000005085820803  0.24999998421058722  1.0000
  Rh  Rh2       1.0  0.7499999919602889  0.7499999983090978  0.7499999790054735  1.0000
  Mg  Mg1       1.0  1.4810419343956834e-08  2.1525422045824434e-08  0.9999999422873531  1.0000
  Br  Br1       1.0  0.25787269574962934  0.2578726718796864  0.7421272798496923  1.0000
  Br  Br2       1.0  0.742127303945639  0.7421273216802783  0.2578726739085121  1.0000
  Br  Br3       1.0  0.7421272751466272  0.25787268339179187  0.2578727395436297  1.0000
  Br  Br4       1.0  0.2578726706531172  0.7421272689111141  0.7421273833542835  1.0000
  Br  Br5       1.0  0.25787268924507745  0.7421272913412738  0.2578727335878224  1.0000
  Br  Br6       1.0  0.7421273578037044  0.25787270221869146  0.7421272755830777  1.0000
