data_image0
_chemical_formula_structural       Rh2MnCl6
_chemical_formula_sum              "Rh2 Mn1 Cl6"
_cell_length_a       6.362413301423973
_cell_length_b       6.362413234856001
_cell_length_c       6.362413393313883
_cell_angle_alpha    59.99999925464902
_cell_angle_beta     59.99999977552944
_cell_angle_gamma    59.99999959770932

_space_group_name_H-M_alt    "P 1"
_space_group_IT_number       1

loop_
  _space_group_symop_operation_xyz
  'x, y, z'

loop_
  _atom_site_type_symbol
  _atom_site_label
  _atom_site_symmetry_multiplicity
  _atom_site_fract_x
  _atom_site_fract_y
  _atom_site_fract_z
  _atom_site_occupancy
  Rh  Rh1       1.0  0.24999997268982688  0.25000004248951163  0.24999999356265964  1.0000
  Rh  Rh2       1.0  0.7500000224360439  0.7500000158203279  0.7499999481789965  1.0000
  Mn  Mn1       1.0  1.5270773113660038e-08  0.9999999923001237  1.6647049802502188e-08  1.0000
  Cl  Cl1       1.0  0.24972378054967273  0.24972394991357177  0.750276144304106  1.0000
  Cl  Cl2       1.0  0.7502761717519791  0.7502761334208659  0.2497238566327406  1.0000
  Cl  Cl3       1.0  0.7502761885007778  0.24972378348425706  0.2497238994584221  1.0000
  Cl  Cl4       1.0  0.24972385924091467  0.7502761169781172  0.7502761766290483  1.0000
  Cl  Cl5       1.0  0.249723878227207  0.7502761324114586  0.24972380717082984  1.0000
  Cl  Cl6       1.0  0.7502761091642515  0.24972382387501912  0.750276165873754  1.0000
