data_image0
_chemical_formula_structural       Rh2NCl6
_chemical_formula_sum              "Rh2 N1 Cl6"
_cell_length_a       6.166447275786176
_cell_length_b       6.16644722540071
_cell_length_c       6.166447141807128
_cell_angle_alpha    59.99999998250884
_cell_angle_beta     59.999999573974186
_cell_angle_gamma    59.99999995969608

_space_group_name_H-M_alt    "P 1"
_space_group_IT_number       1

loop_
  _space_group_symop_operation_xyz
  'x, y, z'

loop_
  _atom_site_type_symbol
  _atom_site_label
  _atom_site_symmetry_multiplicity
  _atom_site_fract_x
  _atom_site_fract_y
  _atom_site_fract_z
  _atom_site_occupancy
  Rh  Rh1       1.0  0.24999997296587864  0.24999999227606165  0.2500000158110029  1.0000
  Rh  Rh2       1.0  0.7499999958800393  0.7499999986757628  0.7499999980180172  1.0000
  N   N1        1.0  0.9999999815016389  0.9999999880831393  2.1694328475342013e-08  1.0000
  Cl  Cl1       1.0  0.24657818207416823  0.24657807717269434  0.7534218670819864  1.0000
  Cl  Cl2       1.0  0.753421830161771  0.7534219296682777  0.24657810899905244  1.0000
  Cl  Cl3       1.0  0.7534219260915609  0.24657807444586288  0.2465780922019838  1.0000
  Cl  Cl4       1.0  0.24657810993912183  0.7534219284228223  0.7534218885629407  1.0000
  Cl  Cl5       1.0  0.24657810726421853  0.7534219090459942  0.24657810313260756  1.0000
  Cl  Cl6       1.0  0.7534218918638427  0.2465780977949778  0.7534219119359575  1.0000
