data_image0
_chemical_formula_structural       Rh2NF6
_chemical_formula_sum              "Rh2 N1 F6"
_cell_length_a       4.748553001583627
_cell_length_b       4.7485529474328425
_cell_length_c       4.748552913618301
_cell_angle_alpha    60.00000017810021
_cell_angle_beta     59.99999995060035
_cell_angle_gamma    59.999999838829126

_space_group_name_H-M_alt    "P 1"
_space_group_IT_number       1

loop_
  _space_group_symop_operation_xyz
  'x, y, z'

loop_
  _atom_site_type_symbol
  _atom_site_label
  _atom_site_symmetry_multiplicity
  _atom_site_fract_x
  _atom_site_fract_y
  _atom_site_fract_z
  _atom_site_occupancy
  Rh  Rh1       1.0  0.25000000451288595  0.25000000801566485  0.24999997198894847  1.0000
  Rh  Rh2       1.0  0.7499999869375824  0.7500000163094067  0.7499999689365574  1.0000
  N   N1        1.0  1.3946601972321426e-07  0.9999999974208041  3.895772816298076e-08  1.0000
  F   F1        1.0  0.2455518108746025  0.24555185016789785  0.7544481905462234  1.0000
  F   F2        1.0  0.7544481017082967  0.7544480168262184  0.24555188532578284  1.0000
  F   F3        1.0  0.7544480763019104  0.24555190097296287  0.2455519354891072  1.0000
  F   F4        1.0  0.24555185750024017  0.7544481285105008  0.7544480990703128  1.0000
  F   F5        1.0  0.2455519094011672  0.7544481507813702  0.24555186266657614  1.0000
  F   F6        1.0  0.7544481094847998  0.24555192254842528  0.7544480610978653  1.0000
