data_image0
_chemical_formula_structural       Rh2NiI6
_chemical_formula_sum              "Rh2 Ni1 I6"
_cell_length_a       7.150193503026763
_cell_length_b       7.150193456372796
_cell_length_c       7.150193458306925
_cell_angle_alpha    59.9999999458179
_cell_angle_beta     60.00000000152622
_cell_angle_gamma    59.99999963485785

_space_group_name_H-M_alt    "P 1"
_space_group_IT_number       1

loop_
  _space_group_symop_operation_xyz
  'x, y, z'

loop_
  _atom_site_type_symbol
  _atom_site_label
  _atom_site_symmetry_multiplicity
  _atom_site_fract_x
  _atom_site_fract_y
  _atom_site_fract_z
  _atom_site_occupancy
  Rh  Rh1       1.0  0.2499999670733468  0.24999995251746618  0.2500000622265268  1.0000
  Rh  Rh2       1.0  0.7500000764935868  0.7500000099990336  0.7499998745717523  1.0000
  Ni  Ni1       1.0  8.155764217390552e-09  2.398036966181155e-08  0.999999983931933  1.0000
  I   I1        1.0  0.2539795356853597  0.2539795515127632  0.746020451961021  1.0000
  I   I2        1.0  0.7460204435449592  0.7460204538258257  0.2539795962910972  1.0000
  I   I3        1.0  0.7460204588715464  0.25397953817275043  0.2539795423862149  1.0000
  I   I4        1.0  0.2539795341261874  0.7460204791560232  0.7460204482330695  1.0000
  I   I5        1.0  0.25397949122646785  0.7460204413430594  0.2539795920018296  1.0000
  I   I6        1.0  0.7460204893416965  0.253979550292461  0.7460204442515738  1.0000
