data_image0
_chemical_formula_structural       Rh2NiCl6
_chemical_formula_sum              "Rh2 Ni1 Cl6"
_cell_length_a       6.278125632344805
_cell_length_b       6.278125655014567
_cell_length_c       6.2781255919951695
_cell_angle_alpha    60.000000334310805
_cell_angle_beta     59.99999991337208
_cell_angle_gamma    60.00000083059221

_space_group_name_H-M_alt    "P 1"
_space_group_IT_number       1

loop_
  _space_group_symop_operation_xyz
  'x, y, z'

loop_
  _atom_site_type_symbol
  _atom_site_label
  _atom_site_symmetry_multiplicity
  _atom_site_fract_x
  _atom_site_fract_y
  _atom_site_fract_z
  _atom_site_occupancy
  Rh  Rh1       1.0  0.25000004217240057  0.24999997276412184  0.24999993367337464  1.0000
  Rh  Rh2       1.0  0.7500000068897683  0.7500000509476434  0.7500001449292649  1.0000
  Ni  Ni1       1.0  0.9999999595907736  9.363901982338852e-08  0.9999999877205924  1.0000
  Cl  Cl1       1.0  0.25169926767772216  0.25169929917615325  0.7483007316186788  1.0000
  Cl  Cl2       1.0  0.748300651059539  0.7483006465030944  0.25169934285009077  1.0000
  Cl  Cl3       1.0  0.7483007091246292  0.2516993277295435  0.2516992364301433  1.0000
  Cl  Cl4       1.0  0.2516993412763659  0.7483006257529566  0.7483006631782139  1.0000
  Cl  Cl5       1.0  0.2516993303677316  0.7483007071128653  0.2516992993688972  1.0000
  Cl  Cl6       1.0  0.7483006816131336  0.2516992678285765  0.7483006660620098  1.0000
