data_image0
_chemical_formula_structural       Rh2NO6
_chemical_formula_sum              "Rh2 N1 O6"
_cell_length_a       4.833507262873842
_cell_length_b       4.833506983373406
_cell_length_c       4.833507256665644
_cell_angle_alpha    60.00000075496386
_cell_angle_beta     60.00000066918801
_cell_angle_gamma    60.00000115475774

_space_group_name_H-M_alt    "P 1"
_space_group_IT_number       1

loop_
  _space_group_symop_operation_xyz
  'x, y, z'

loop_
  _atom_site_type_symbol
  _atom_site_label
  _atom_site_symmetry_multiplicity
  _atom_site_fract_x
  _atom_site_fract_y
  _atom_site_fract_z
  _atom_site_occupancy
  Rh  Rh1       1.0  0.2499998029279893  0.25000047743459164  0.2500010600580912  1.0000
  Rh  Rh2       1.0  0.749999670500775  0.7500003604792964  0.7500009122208267  1.0000
  N   N1        1.0  0.9999994994698742  3.364971356961202e-06  4.7061792534405265e-06  1.0000
  O   O1        1.0  0.23313698123100585  0.23313634727194607  0.7668626987430894  1.0000
  O   O2        1.0  0.7668619083720595  0.7668619491763987  0.23313765629582195  1.0000
  O   O3        1.0  0.7668646153996355  0.23313554654172333  0.23313505501715068  1.0000
  O   O4        1.0  0.23313917561698091  0.7668605733175687  0.7668605735926116  1.0000
  O   O5        1.0  0.2331365316860742  0.7668632775329818  0.23313606699649894  1.0000
  O   O6        1.0  0.7668618582109119  0.23313817357580516  0.7668612578679403  1.0000
