data_image0
_chemical_formula_structural       Rh2NiBr6
_chemical_formula_sum              "Rh2 Ni1 Br6"
_cell_length_a       6.723867142828178
_cell_length_b       6.7238671883716465
_cell_length_c       6.723867120604947
_cell_angle_alpha    60.00000058106858
_cell_angle_beta     60.00000132833733
_cell_angle_gamma    60.00000147416334

_space_group_name_H-M_alt    "P 1"
_space_group_IT_number       1

loop_
  _space_group_symop_operation_xyz
  'x, y, z'

loop_
  _atom_site_type_symbol
  _atom_site_label
  _atom_site_symmetry_multiplicity
  _atom_site_fract_x
  _atom_site_fract_y
  _atom_site_fract_z
  _atom_site_occupancy
  Rh  Rh1       1.0  0.25000000906938047  0.24999996238548966  0.2500000155114446  1.0000
  Rh  Rh2       1.0  0.7499999660246061  0.75000000373175  0.7499999920681516  1.0000
  Ni  Ni1       1.0  1.3006252848849852e-09  2.185786533982381e-08  0.9999999690866428  1.0000
  Br  Br1       1.0  0.2474417969842372  0.24744179158872456  0.7525582158024938  1.0000
  Br  Br2       1.0  0.752558226054682  0.7525582419236  0.2474418129307814  1.0000
  Br  Br3       1.0  0.7525582262844874  0.24744178780393614  0.2474417462780748  1.0000
  Br  Br4       1.0  0.2474417576549787  0.7525582548158323  0.752558224576475  1.0000
  Br  Br5       1.0  0.24744176885943978  0.7525581974367067  0.24744178580035028  1.0000
  Br  Br6       1.0  0.7525582359497833  0.24744174135820174  0.7525582324807084  1.0000
