data_image0
_chemical_formula_structural       Rh2NiF6
_chemical_formula_sum              "Rh2 Ni1 F6"
_cell_length_a       5.161096256626682
_cell_length_b       5.161096346803487
_cell_length_c       5.161096337807386
_cell_angle_alpha    60.00000024733251
_cell_angle_beta     59.999998765514704
_cell_angle_gamma    59.999999761587574

_space_group_name_H-M_alt    "P 1"
_space_group_IT_number       1

loop_
  _space_group_symop_operation_xyz
  'x, y, z'

loop_
  _atom_site_type_symbol
  _atom_site_label
  _atom_site_symmetry_multiplicity
  _atom_site_fract_x
  _atom_site_fract_y
  _atom_site_fract_z
  _atom_site_occupancy
  Rh  Rh1       1.0  0.24999998037390717  0.24999998564958908  0.25000002202243005  1.0000
  Rh  Rh2       1.0  0.750000036647749  0.7499999925442523  0.7500000005065335  1.0000
  Ni  Ni1       1.0  0.9999999881581233  0.9999999952539351  0.9999999617922231  1.0000
  F   F1        1.0  0.2506129548423746  0.25061293995697576  0.749387065594782  1.0000
  F   F2        1.0  0.7493870617721339  0.7493870595941566  0.2506129251458088  1.0000
  F   F3        1.0  0.7493870575911445  0.2506129338567576  0.25061297047869896  1.0000
  F   F4        1.0  0.2506129192712468  0.7493870775595369  0.749387053581098  1.0000
  F   F5        1.0  0.2506129553963447  0.7493870537837821  0.25061293208084023  1.0000
  F   F6        1.0  0.7493870467318223  0.250612962378577  0.7493870595348808  1.0000
