data_image0
_chemical_formula_structural       Rh2PF6
_chemical_formula_sum              "Rh2 P1 F6"
_cell_length_a       4.811749950372461
_cell_length_b       4.811749915914598
_cell_length_c       4.8117498903257525
_cell_angle_alpha    59.99999995244728
_cell_angle_beta     59.99999955622767
_cell_angle_gamma    60.00000042879593

_space_group_name_H-M_alt    "P 1"
_space_group_IT_number       1

loop_
  _space_group_symop_operation_xyz
  'x, y, z'

loop_
  _atom_site_type_symbol
  _atom_site_label
  _atom_site_symmetry_multiplicity
  _atom_site_fract_x
  _atom_site_fract_y
  _atom_site_fract_z
  _atom_site_occupancy
  Rh  Rh1       1.0  0.25000004329301007  0.250000007221926  0.2500000173503509  1.0000
  Rh  Rh2       1.0  0.7499999819928136  0.7499999325795375  0.7500000458425219  1.0000
  P   P1        1.0  8.484405949249702e-10  0.9999999974546788  0.9999999738312422  1.0000
  F   F1        1.0  0.2536631600266647  0.25366326684841745  0.7463367636417787  1.0000
  F   F2        1.0  0.7463367823325003  0.7463367849471749  0.25366322266997926  1.0000
  F   F3        1.0  0.7463367542022552  0.2536632524601298  0.2536632038903274  1.0000
  F   F4        1.0  0.25366325566607295  0.7463367407930772  0.746336792485763  1.0000
  F   F5        1.0  0.25366325564633024  0.7463367608090571  0.253663190959904  1.0000
  F   F6        1.0  0.7463367642327376  0.2536632528067189  0.7463367798383022  1.0000
