data_image0
_chemical_formula_structural       Rh2PI6
_chemical_formula_sum              "Rh2 P1 I6"
_cell_length_a       7.357655771590121
_cell_length_b       7.357655609104768
_cell_length_c       7.35765569979264
_cell_angle_alpha    59.99999982142325
_cell_angle_beta     60.00000036287238
_cell_angle_gamma    59.99999940751614

_space_group_name_H-M_alt    "P 1"
_space_group_IT_number       1

loop_
  _space_group_symop_operation_xyz
  'x, y, z'

loop_
  _atom_site_type_symbol
  _atom_site_label
  _atom_site_symmetry_multiplicity
  _atom_site_fract_x
  _atom_site_fract_y
  _atom_site_fract_z
  _atom_site_occupancy
  Rh  Rh1       1.0  0.24999996561065266  0.2500000467497826  0.24999997803299917  1.0000
  Rh  Rh2       1.0  0.7500000396325963  0.750000003753315  0.7500000124944082  1.0000
  P   P1        1.0  2.4745720088578082e-08  0.9999999916770711  0.9999999605286475  1.0000
  I   I1        1.0  0.2603364162525111  0.26033639978808126  0.7396635993332288  1.0000
  I   I2        1.0  0.7396636004062423  0.7396635458461133  0.26033642161133497  1.0000
  I   I3        1.0  0.7396635822898524  0.26033640977577593  0.2603364186112005  1.0000
  I   I4        1.0  0.26033636861240045  0.7396635824668201  0.73966362413957  1.0000
  I   I5        1.0  0.2603364148604385  0.7396636079276122  0.2603363876253857  1.0000
  I   I6        1.0  0.7396635915088684  0.2603364109483557  0.7396635936882434  1.0000
