data_image0
_chemical_formula_structural       Rh2PCl6
_chemical_formula_sum              "Rh2 P1 Cl6"
_cell_length_a       6.329505389510456
_cell_length_b       6.329505257863287
_cell_length_c       6.329505310561948
_cell_angle_alpha    59.999999971830356
_cell_angle_beta     59.99999987372382
_cell_angle_gamma    59.99999942789833

_space_group_name_H-M_alt    "P 1"
_space_group_IT_number       1

loop_
  _space_group_symop_operation_xyz
  'x, y, z'

loop_
  _atom_site_type_symbol
  _atom_site_label
  _atom_site_symmetry_multiplicity
  _atom_site_fract_x
  _atom_site_fract_y
  _atom_site_fract_z
  _atom_site_occupancy
  Rh  Rh1       1.0  0.24999998310353735  0.24999999297295902  0.25000003901464324  1.0000
  Rh  Rh2       1.0  0.7499999960787976  0.7500000137484671  0.7499999703915876  1.0000
  P   P1        1.0  0.9999999957063797  1.9349771877626274e-09  0.9999999838003963  1.0000
  Cl  Cl1       1.0  0.24706533599088892  0.2470653411584955  0.7529346592120837  1.0000
  Cl  Cl2       1.0  0.7529346294442658  0.7529346849127033  0.2470653505526558  1.0000
  Cl  Cl3       1.0  0.7529347210781656  0.24706528271360886  0.2470653312546792  1.0000
  Cl  Cl4       1.0  0.24706532551211188  0.7529346969181355  0.7529346690517371  1.0000
  Cl  Cl5       1.0  0.2470652762616174  0.7529347215598309  0.2470653498845235  1.0000
  Cl  Cl6       1.0  0.752934743387616  0.24706526774679977  0.752934647995656  1.0000
