data_image0
_chemical_formula_structural       Rh2RuCl6
_chemical_formula_sum              "Rh2 Ru1 Cl6"
_cell_length_a       6.437008882502645
_cell_length_b       6.437009030078606
_cell_length_c       6.437008906872791
_cell_angle_alpha    60.00000033644796
_cell_angle_beta     59.99999954598093
_cell_angle_gamma    60.00000029347681

_space_group_name_H-M_alt    "P 1"
_space_group_IT_number       1

loop_
  _space_group_symop_operation_xyz
  'x, y, z'

loop_
  _atom_site_type_symbol
  _atom_site_label
  _atom_site_symmetry_multiplicity
  _atom_site_fract_x
  _atom_site_fract_y
  _atom_site_fract_z
  _atom_site_occupancy
  Rh  Rh1       1.0  0.2500000130738828  0.24999999372353332  0.2499999296379672  1.0000
  Rh  Rh2       1.0  0.7500000083998134  0.7499999982945523  0.7500000256832953  1.0000
  Ru  Ru1       1.0  2.0257716365505567e-08  3.805322824703356e-09  0.9999999600051821  1.0000
  Cl  Cl1       1.0  0.25253048860639415  0.2525305056867945  0.7474695145736144  1.0000
  Cl  Cl2       1.0  0.7474694736517  0.7474695186765349  0.25253051321645686  1.0000
  Cl  Cl3       1.0  0.7474695339197788  0.25253048618485363  0.2525304919992839  1.0000
  Cl  Cl4       1.0  0.2525304876814016  0.7474694677800038  0.7474695490860632  1.0000
  Cl  Cl5       1.0  0.25253047974699466  0.7474695449362985  0.25253048982993215  1.0000
  Cl  Cl6       1.0  0.7474694866241981  0.2525304832323537  0.7474695262333455  1.0000
