data_image0
_chemical_formula_structural       Rh2RuBr6
_chemical_formula_sum              "Rh2 Ru1 Br6"
_cell_length_a       6.8841281773605605
_cell_length_b       6.884128177181012
_cell_length_c       6.8841282627001315
_cell_angle_alpha    59.99999820394618
_cell_angle_beta     59.99999898018061
_cell_angle_gamma    59.99999941742502

_space_group_name_H-M_alt    "P 1"
_space_group_IT_number       1

loop_
  _space_group_symop_operation_xyz
  'x, y, z'

loop_
  _atom_site_type_symbol
  _atom_site_label
  _atom_site_symmetry_multiplicity
  _atom_site_fract_x
  _atom_site_fract_y
  _atom_site_fract_z
  _atom_site_occupancy
  Rh  Rh1       1.0  0.2500000161393513  0.2499999723320279  0.24999997565205911  1.0000
  Rh  Rh2       1.0  0.7499999789000744  0.7500000148457555  0.7499999679897668  1.0000
  Ru  Ru1       1.0  0.9999999930871554  1.0674509449489364e-08  1.9908418720484673e-08  1.0000
  Br  Br1       1.0  0.2511723453336879  0.25117233281591406  0.7488276785355131  1.0000
  Br  Br2       1.0  0.7488276333218971  0.7488276632572928  0.25117237053369373  1.0000
  Br  Br3       1.0  0.748827676751606  0.25117231398346596  0.25117236674013854  1.0000
  Br  Br4       1.0  0.2511723817388545  0.7488276589616367  0.7488276379968983  1.0000
  Br  Br5       1.0  0.25117233393123833  0.7488276656291949  0.25117235360079576  1.0000
  Br  Br6       1.0  0.7488276388783541  0.25117237314205143  0.7488276407269685  1.0000
