data_image0
_chemical_formula_structural       Rh2SBr6
_chemical_formula_sum              "Rh2 S1 Br6"
_cell_length_a       6.77630344912304
_cell_length_b       6.776303522860576
_cell_length_c       6.776303601551877
_cell_angle_alpha    59.999999684750435
_cell_angle_beta     60.00000014575979
_cell_angle_gamma    60.00000082437001

_space_group_name_H-M_alt    "P 1"
_space_group_IT_number       1

loop_
  _space_group_symop_operation_xyz
  'x, y, z'

loop_
  _atom_site_type_symbol
  _atom_site_label
  _atom_site_symmetry_multiplicity
  _atom_site_fract_x
  _atom_site_fract_y
  _atom_site_fract_z
  _atom_site_occupancy
  Rh  Rh1       1.0  0.249999993202021  0.24999998190220088  0.249999989057423  1.0000
  Rh  Rh2       1.0  0.7499999762481729  0.7500000324615028  0.750000065668191  1.0000
  S   S1        1.0  0.9999999931661571  3.0725693767418684e-08  2.7898806411500982e-08  1.0000
  Br  Br1       1.0  0.2543859432293123  0.254385950555894  0.7456140296342031  1.0000
  Br  Br2       1.0  0.7456140506797259  0.7456140620004164  0.25438591784318276  1.0000
  Br  Br3       1.0  0.7456140522791067  0.2543859500986589  0.25438595691751814  1.0000
  Br  Br4       1.0  0.254385958103208  0.7456140028136575  0.7456140269025348  1.0000
  Br  Br5       1.0  0.2543859915380292  0.7456140528814268  0.2543859505576194  1.0000
  Br  Br6       1.0  0.7456140368650193  0.25438593798615877  0.7456140333133174  1.0000
