data_image0
_chemical_formula_structural       Rh2SCl6
_chemical_formula_sum              "Rh2 S1 Cl6"
_cell_length_a       6.405619214532629
_cell_length_b       6.405619170588943
_cell_length_c       6.405619322632694
_cell_angle_alpha    59.99999935716444
_cell_angle_beta     60.00000001718241
_cell_angle_gamma    59.999999328506625

_space_group_name_H-M_alt    "P 1"
_space_group_IT_number       1

loop_
  _space_group_symop_operation_xyz
  'x, y, z'

loop_
  _atom_site_type_symbol
  _atom_site_label
  _atom_site_symmetry_multiplicity
  _atom_site_fract_x
  _atom_site_fract_y
  _atom_site_fract_z
  _atom_site_occupancy
  Rh  Rh1       1.0  0.24999994756388244  0.25000001318648124  0.25000001765320584  1.0000
  Rh  Rh2       1.0  0.7500000278540265  0.7500000032317251  0.749999962930995  1.0000
  S   S1        1.0  0.9999999731791438  0.999999988528089  6.129687451814136e-08  1.0000
  Cl  Cl1       1.0  0.2542151059316665  0.25421508170153395  0.7457849071514127  1.0000
  Cl  Cl2       1.0  0.7457848908086016  0.745784919420791  0.254215078225196  1.0000
  Cl  Cl3       1.0  0.7457849316367564  0.2542150824168659  0.254215095243951  1.0000
  Cl  Cl4       1.0  0.25421511801730956  0.7457849167934736  0.7457848958543375  1.0000
  Cl  Cl5       1.0  0.25421504295086456  0.7457849495728693  0.2542150731773821  1.0000
  Cl  Cl6       1.0  0.7457849472161843  0.2542150496374705  0.7457849133195701  1.0000
