data_image0
_chemical_formula_structural       Rh2TaF6
_chemical_formula_sum              "Rh2 Ta1 F6"
_cell_length_a       5.7532406811217935
_cell_length_b       5.753240545981174
_cell_length_c       5.75324060825406
_cell_angle_alpha    60.00000200432698
_cell_angle_beta     60.00000689061127
_cell_angle_gamma    60.00000145805509

_space_group_name_H-M_alt    "P 1"
_space_group_IT_number       1

loop_
  _space_group_symop_operation_xyz
  'x, y, z'

loop_
  _atom_site_type_symbol
  _atom_site_label
  _atom_site_symmetry_multiplicity
  _atom_site_fract_x
  _atom_site_fract_y
  _atom_site_fract_z
  _atom_site_occupancy
  Rh  Rh1       1.0  0.2499999686176874  0.24999945310491437  0.250000308588423  1.0000
  Rh  Rh2       1.0  0.7500005552268083  0.7499993193996309  0.7500003018036885  1.0000
  Ta  Ta1       1.0  0.9999996999657482  6.833420175283347e-07  0.999999662341444  1.0000
  F   F1        1.0  0.23961753568238944  0.2396169983820486  0.7603827805555663  1.0000
  F   F2        1.0  0.7603832033394284  0.7603830854579546  0.2396169605529877  1.0000
  F   F3        1.0  0.7603828002761542  0.23961714712577975  0.23961735300531825  1.0000
  F   F4        1.0  0.239616953346388  0.7603830388962117  0.760383267725845  1.0000
  F   F5        1.0  0.23961683962962804  0.7603830312986267  0.2396167649784557  1.0000
  F   F6        1.0  0.7603825723257407  0.23961735482974825  0.7603827150419534  1.0000
