data_image0
_chemical_formula_structural       Rh2TaCl6
_chemical_formula_sum              "Rh2 Ta1 Cl6"
_cell_length_a       6.401631585642928
_cell_length_b       6.4016314284791065
_cell_length_c       6.401631353629938
_cell_angle_alpha    60.000000147281916
_cell_angle_beta     59.999999805328194
_cell_angle_gamma    59.99999957819597

_space_group_name_H-M_alt    "P 1"
_space_group_IT_number       1

loop_
  _space_group_symop_operation_xyz
  'x, y, z'

loop_
  _atom_site_type_symbol
  _atom_site_label
  _atom_site_symmetry_multiplicity
  _atom_site_fract_x
  _atom_site_fract_y
  _atom_site_fract_z
  _atom_site_occupancy
  Rh  Rh1       1.0  0.25000001366198416  0.2500000046269134  0.24999996639818584  1.0000
  Rh  Rh2       1.0  0.7500000036540788  0.7499999851830979  0.7500000040659999  1.0000
  Ta  Ta1       1.0  2.3139400279857232e-08  0.9999999846945906  2.2638735288640585e-08  1.0000
  Cl  Cl1       1.0  0.2595042744333541  0.25950425188808585  0.7404957502525922  1.0000
  Cl  Cl2       1.0  0.7404957601731639  0.7404957455746302  0.2595042389820499  1.0000
  Cl  Cl3       1.0  0.7404957275673484  0.2595042433114212  0.25950425160339385  1.0000
  Cl  Cl4       1.0  0.2595042555679221  0.7404957732830566  0.7404957319315663  1.0000
  Cl  Cl5       1.0  0.25950421341081903  0.7404957414452236  0.25950424662682786  1.0000
  Cl  Cl6       1.0  0.7404957404454026  0.2595042655833735  0.7404957797621246  1.0000
