data_image0
_chemical_formula_structural       Rh2TaI6
_chemical_formula_sum              "Rh2 Ta1 I6"
_cell_length_a       7.55900789802952
_cell_length_b       7.559007883583562
_cell_length_c       7.559008089544082
_cell_angle_alpha    59.9999990149397
_cell_angle_beta     59.99999904636564
_cell_angle_gamma    59.99999950207524

_space_group_name_H-M_alt    "P 1"
_space_group_IT_number       1

loop_
  _space_group_symop_operation_xyz
  'x, y, z'

loop_
  _atom_site_type_symbol
  _atom_site_label
  _atom_site_symmetry_multiplicity
  _atom_site_fract_x
  _atom_site_fract_y
  _atom_site_fract_z
  _atom_site_occupancy
  Rh  Rh1       1.0  0.24999999403171055  0.24999996650700299  0.2500000531189014  1.0000
  Rh  Rh2       1.0  0.7499999929099392  0.7499999999762327  0.7500001090133879  1.0000
  Ta  Ta1       1.0  1.5898515312118765e-11  0.9999999724558258  0.9999999886285649  1.0000
  I   I1        1.0  0.2553848420990364  0.25538486042422365  0.7446151351848422  1.0000
  I   I2        1.0  0.7446151504896253  0.7446151303626951  0.2553848466064874  1.0000
  I   I3        1.0  0.7446151163449867  0.25538490532313496  0.25538483281523733  1.0000
  I   I4        1.0  0.25538484772789943  0.7446151389318867  0.7446151285623793  1.0000
  I   I5        1.0  0.25538492450026706  0.7446151440434505  0.25538480023451277  1.0000
  I   I6        1.0  0.7446151335732015  0.2553848840091161  0.7446151090147913  1.0000
