data_image0
_chemical_formula_structural       Rh2VI6
_chemical_formula_sum              "Rh2 V1 I6"
_cell_length_a       7.330080242542269
_cell_length_b       7.330080352263829
_cell_length_c       7.330080224299774
_cell_angle_alpha    60.000000023184676
_cell_angle_beta     60.000000378526344
_cell_angle_gamma    59.99999972734907

_space_group_name_H-M_alt    "P 1"
_space_group_IT_number       1

loop_
  _space_group_symop_operation_xyz
  'x, y, z'

loop_
  _atom_site_type_symbol
  _atom_site_label
  _atom_site_symmetry_multiplicity
  _atom_site_fract_x
  _atom_site_fract_y
  _atom_site_fract_z
  _atom_site_occupancy
  Rh  Rh1       1.0  0.24999998777724322  0.24999995693436972  0.250000021406282  1.0000
  Rh  Rh2       1.0  0.7499999786204297  0.7500000328753459  0.7500000737637688  1.0000
  V   V1        1.0  1.5387070266256303e-08  0.9999999916457605  5.105324668390522e-08  1.0000
  I   I1        1.0  0.25316480684999143  0.25316479962045385  0.7468352038698114  1.0000
  I   I2        1.0  0.7468351977996482  0.7468352219353709  0.25316474579763576  1.0000
  I   I3        1.0  0.7468352126090247  0.2531647914350333  0.25316479229754274  1.0000
  I   I4        1.0  0.2531648502799894  0.7468351499200961  0.7468351751717732  1.0000
  I   I5        1.0  0.2531647938045396  0.7468352204086305  0.25316475266228405  1.0000
  I   I6        1.0  0.7468351576346642  0.25316483790584665  0.7468351820389483  1.0000
