data_image0
_chemical_formula_structural       Rh2VCl6
_chemical_formula_sum              "Rh2 V1 Cl6"
_cell_length_a       6.366696980332224
_cell_length_b       6.366696886193646
_cell_length_c       6.366696867927193
_cell_angle_alpha    59.999999922919265
_cell_angle_beta     60.000000562753016
_cell_angle_gamma    60.00000049634765

_space_group_name_H-M_alt    "P 1"
_space_group_IT_number       1

loop_
  _space_group_symop_operation_xyz
  'x, y, z'

loop_
  _atom_site_type_symbol
  _atom_site_label
  _atom_site_symmetry_multiplicity
  _atom_site_fract_x
  _atom_site_fract_y
  _atom_site_fract_z
  _atom_site_occupancy
  Rh  Rh1       1.0  0.25000000165061714  0.24999999547731097  0.25000000516035736  1.0000
  Rh  Rh2       1.0  0.7499999982284309  0.7499999902792808  0.7500000074950695  1.0000
  V   V1        1.0  0.9999999862419845  0.9999999923053042  1.2297028852761843e-08  1.0000
  Cl  Cl1       1.0  0.2519122226967993  0.25191228224654083  0.7480877443446141  1.0000
  Cl  Cl2       1.0  0.7480877574143021  0.7480877573729203  0.2519122386979657  1.0000
  Cl  Cl3       1.0  0.7480877632817481  0.2519122423224499  0.2519122644939084  1.0000
  Cl  Cl4       1.0  0.25191225409264634  0.7480877453578159  0.7480877494467202  1.0000
  Cl  Cl5       1.0  0.25191226636541464  0.748087757827366  0.2519122137969608  1.0000
  Cl  Cl6       1.0  0.7480877507889464  0.2519122413949432  0.7480877552158334  1.0000
