data_image0
_chemical_formula_structural       Rh2VF6
_chemical_formula_sum              "Rh2 V1 F6"
_cell_length_a       5.3881875149643195
_cell_length_b       5.388187623711754
_cell_length_c       5.388187567900632
_cell_angle_alpha    59.99999920821545
_cell_angle_beta     59.99999690305429
_cell_angle_gamma    59.99999943432705

_space_group_name_H-M_alt    "P 1"
_space_group_IT_number       1

loop_
  _space_group_symop_operation_xyz
  'x, y, z'

loop_
  _atom_site_type_symbol
  _atom_site_label
  _atom_site_symmetry_multiplicity
  _atom_site_fract_x
  _atom_site_fract_y
  _atom_site_fract_z
  _atom_site_occupancy
  Rh  Rh1       1.0  0.2500000794456682  0.25000013288617506  0.2499998597375554  1.0000
  Rh  Rh2       1.0  0.7499999319147709  0.7499999099596036  0.7500000101796637  1.0000
  V   V1        1.0  1.580343354149581e-08  0.9999999204443615  8.012980533724006e-08  1.0000
  F   F1        1.0  0.251031120700922  0.25103113639849395  0.7489688514374802  1.0000
  F   F2        1.0  0.748968763508135  0.7489688314376826  0.2510312364826676  1.0000
  F   F3        1.0  0.7489689040629852  0.2510310575076983  0.2510310890997519  1.0000
  F   F4        1.0  0.2510311040513759  0.7489689307856425  0.7489688653940749  1.0000
  F   F5        1.0  0.2510310764787231  0.7489689137893856  0.25103114401431803  1.0000
  F   F6        1.0  0.7489689777421559  0.2510311290563925  0.7489689030552256  1.0000
