data_image0
_chemical_formula_structural       Rh2ZnCl6
_chemical_formula_sum              "Rh2 Zn1 Cl6"
_cell_length_a       6.2968749916664555
_cell_length_b       6.296875009196361
_cell_length_c       6.296874988005354
_cell_angle_alpha    59.99999985243445
_cell_angle_beta     59.9999997903483
_cell_angle_gamma    59.999999804269436

_space_group_name_H-M_alt    "P 1"
_space_group_IT_number       1

loop_
  _space_group_symop_operation_xyz
  'x, y, z'

loop_
  _atom_site_type_symbol
  _atom_site_label
  _atom_site_symmetry_multiplicity
  _atom_site_fract_x
  _atom_site_fract_y
  _atom_site_fract_z
  _atom_site_occupancy
  Rh  Rh1       1.0  0.24999996529206028  0.2500000380958901  0.2500000269224724  1.0000
  Rh  Rh2       1.0  0.7500000488417388  0.7499999139522312  0.749999990109926  1.0000
  Zn  Zn1       1.0  0.9999999964627867  0.9999999610999147  5.337756025707586e-09  1.0000
  Cl  Cl1       1.0  0.26035068938669154  0.2603507059337122  0.739649284227838  1.0000
  Cl  Cl2       1.0  0.7396493405645108  0.7396493141895584  0.2603506860940162  1.0000
  Cl  Cl3       1.0  0.7396493541270562  0.2603506279066733  0.26035071276176674  1.0000
  Cl  Cl4       1.0  0.26035068610535095  0.7396493338664692  0.7396492927111744  1.0000
  Cl  Cl5       1.0  0.26035066919075495  0.7396493329135823  0.2603506660917222  1.0000
  Cl  Cl6       1.0  0.7396492460466404  0.2603507727898759  0.7396493394421031  1.0000
