data_image0
_chemical_formula_structural       Rh2ZnF6
_chemical_formula_sum              "Rh2 Zn1 F6"
_cell_length_a       5.167097795193559
_cell_length_b       5.167097986727496
_cell_length_c       5.167097969337787
_cell_angle_alpha    60.000000084599414
_cell_angle_beta     60.000000829545385
_cell_angle_gamma    60.00000142453222

_space_group_name_H-M_alt    "P 1"
_space_group_IT_number       1

loop_
  _space_group_symop_operation_xyz
  'x, y, z'

loop_
  _atom_site_type_symbol
  _atom_site_label
  _atom_site_symmetry_multiplicity
  _atom_site_fract_x
  _atom_site_fract_y
  _atom_site_fract_z
  _atom_site_occupancy
  Rh  Rh1       1.0  0.2500000143887068  0.24999997492804776  0.24999995967821156  1.0000
  Rh  Rh2       1.0  0.7500000537742224  0.7499999935221476  0.7500000116052675  1.0000
  Zn  Zn1       1.0  1.7471067239563125e-08  2.133248468917715e-08  0.9999999709216127  1.0000
  F   F1        1.0  0.2583242056234594  0.2583242384490669  0.7416757605472208  1.0000
  F   F2        1.0  0.7416757841655319  0.7416757774066493  0.2583242107378872  1.0000
  F   F3        1.0  0.7416757885819021  0.2583242129412249  0.2583242828687769  1.0000
  F   F4        1.0  0.2583241846849303  0.7416757318062092  0.7416757709379975  1.0000
  F   F5        1.0  0.2583242152215069  0.7416757995015301  0.2583242090733792  1.0000
  F   F6        1.0  0.7416757435292958  0.258324242427222  0.7416758053360734  1.0000
