data_image0
_chemical_formula_structural       Rh2ZnBr6
_chemical_formula_sum              "Rh2 Zn1 Br6"
_cell_length_a       6.780954485702884
_cell_length_b       6.78095444254721
_cell_length_c       6.78095445487988
_cell_angle_alpha    60.00000013439242
_cell_angle_beta     60.00000000377777
_cell_angle_gamma    59.999999716779755

_space_group_name_H-M_alt    "P 1"
_space_group_IT_number       1

loop_
  _space_group_symop_operation_xyz
  'x, y, z'

loop_
  _atom_site_type_symbol
  _atom_site_label
  _atom_site_symmetry_multiplicity
  _atom_site_fract_x
  _atom_site_fract_y
  _atom_site_fract_z
  _atom_site_occupancy
  Rh  Rh1       1.0  0.2500000297340413  0.2499999430384628  0.2500000052336028  1.0000
  Rh  Rh2       1.0  0.7499999564439759  0.7500000639154226  0.7500000030225507  1.0000
  Zn  Zn1       1.0  0.9999999902816051  3.61230835928117e-09  4.581988414674407e-08  1.0000
  Br  Br1       1.0  0.25567679697228074  0.25567672469020347  0.744323211996865  1.0000
  Br  Br2       1.0  0.744323179487342  0.74432328587599  0.2556767270511177  1.0000
  Br  Br3       1.0  0.7443232357725545  0.2556767587775997  0.2556767914504562  1.0000
  Br  Br4       1.0  0.25567681614703935  0.7443231939916625  0.7443232316732814  1.0000
  Br  Br5       1.0  0.25567677863357596  0.7443232269601994  0.2556767945620584  1.0000
  Br  Br6       1.0  0.744323225467241  0.2556767926367648  0.7443231807145319  1.0000
