data_image0
_chemical_formula_structural       Ru2AsS6
_chemical_formula_sum              "Ru2 As1 S6"
_cell_length_a       5.386617963970359
_cell_length_b       5.386617754139507
_cell_length_c       5.386618079121233
_cell_angle_alpha    59.99993838247902
_cell_angle_beta     59.99995307106963
_cell_angle_gamma    59.999938675726355

_space_group_name_H-M_alt    "P 1"
_space_group_IT_number       1

loop_
  _space_group_symop_operation_xyz
  'x, y, z'

loop_
  _atom_site_type_symbol
  _atom_site_label
  _atom_site_symmetry_multiplicity
  _atom_site_fract_x
  _atom_site_fract_y
  _atom_site_fract_z
  _atom_site_occupancy
  Ru  Ru1       1.0  0.249984085324258  0.249998003293652  0.25001606094129325  1.0000
  Ru  Ru2       1.0  0.7499912944507373  0.7499999055354319  0.7500138585799598  1.0000
  As  As1       1.0  1.8614629433324465e-06  1.8416835085889595e-07  0.9999978855896151  1.0000
  S   S1        1.0  0.2751928708796643  0.2751905786353019  0.7248127762351849  1.0000
  S   S2        1.0  0.7248107511507548  0.7248113568839482  0.275189411543521  1.0000
  S   S3        1.0  0.7248091538083984  0.2751912678591501  0.27518652542451755  1.0000
  S   S4        1.0  0.27518913439521064  0.7248107654359782  0.7248059015569455  1.0000
  S   S5        1.0  0.275197669358078  0.7248088694499873  0.27518252836554086  1.0000
  S   S6        1.0  0.7248227319000201  0.2751891212347824  0.724796159137601  1.0000
