data_image0
_chemical_formula_structural       Ru2AsBr6
_chemical_formula_sum              "Ru2 As1 Br6"
_cell_length_a       6.864546180855005
_cell_length_b       6.864545802851403
_cell_length_c       6.864545952444086
_cell_angle_alpha    59.999999969602925
_cell_angle_beta     59.99999959396337
_cell_angle_gamma    60.00000110154348

_space_group_name_H-M_alt    "P 1"
_space_group_IT_number       1

loop_
  _space_group_symop_operation_xyz
  'x, y, z'

loop_
  _atom_site_type_symbol
  _atom_site_label
  _atom_site_symmetry_multiplicity
  _atom_site_fract_x
  _atom_site_fract_y
  _atom_site_fract_z
  _atom_site_occupancy
  Ru  Ru1       1.0  0.2500001266474519  0.2499999741436029  0.24999996900727015  1.0000
  Ru  Ru2       1.0  0.7499998864828393  0.7500001008468044  0.7499999013863915  1.0000
  As  As1       1.0  1.7908623771882802e-08  1.7841606199316418e-09  0.9999999974374105  1.0000
  Br  Br1       1.0  0.25643854253226805  0.25643867942170384  0.743561286568564  1.0000
  Br  Br2       1.0  0.7435614539663739  0.743561238562614  0.2564386371384726  1.0000
  Br  Br3       1.0  0.7435613124676316  0.25643855388650255  0.25643873691660074  1.0000
  Br  Br4       1.0  0.2564387668631432  0.7435613426878996  0.7435614008151051  1.0000
  Br  Br5       1.0  0.25643867812463567  0.7435614645610377  0.25643859372886013  1.0000
  Br  Br6       1.0  0.743561226551038  0.2564386229184897  0.7435614746938921  1.0000
