data_image0
_chemical_formula_structural       Ru2AsSe6
_chemical_formula_sum              "Ru2 As1 Se6"
_cell_length_a       6.221977447819746
_cell_length_b       6.221977397983788
_cell_length_c       6.221977415189569
_cell_angle_alpha    60.00000176455165
_cell_angle_beta     60.0000013956643
_cell_angle_gamma    60.00000169518298

_space_group_name_H-M_alt    "P 1"
_space_group_IT_number       1

loop_
  _space_group_symop_operation_xyz
  'x, y, z'

loop_
  _atom_site_type_symbol
  _atom_site_label
  _atom_site_symmetry_multiplicity
  _atom_site_fract_x
  _atom_site_fract_y
  _atom_site_fract_z
  _atom_site_occupancy
  Ru  Ru1       1.0  0.25000013642812363  0.24999995839522587  0.2499999121818091  1.0000
  Ru  Ru2       1.0  0.7499996290235125  0.7499999499855289  0.7499999028400183  1.0000
  As  As1       1.0  0.9999999787044507  1.377892095793103e-08  0.9999999700069863  1.0000
  Se  Se1       1.0  0.27753319888897865  0.2775331400222069  0.7224668586676337  1.0000
  Se  Se2       1.0  0.7224667897492831  0.7224668726846777  0.27753320243537255  1.0000
  Se  Se3       1.0  0.7224667954324757  0.27753310256406105  0.2775332406805743  1.0000
  Se  Se4       1.0  0.2775334034048305  0.7224668195956271  0.7224668441712254  1.0000
  Se  Se5       1.0  0.27753319638543633  0.7224669008676743  0.27753313193320317  1.0000
  Se  Se6       1.0  0.7224668613852736  0.27753324962842946  0.7224669269629558  1.0000
