data_image0
_chemical_formula_structural       Ru2AsI6
_chemical_formula_sum              "Ru2 As1 I6"
_cell_length_a       7.624903559198346
_cell_length_b       7.624903861702677
_cell_length_c       7.624903729198241
_cell_angle_alpha    60.0000001075742
_cell_angle_beta     59.99999990407424
_cell_angle_gamma    59.999999957858854

_space_group_name_H-M_alt    "P 1"
_space_group_IT_number       1

loop_
  _space_group_symop_operation_xyz
  'x, y, z'

loop_
  _atom_site_type_symbol
  _atom_site_label
  _atom_site_symmetry_multiplicity
  _atom_site_fract_x
  _atom_site_fract_y
  _atom_site_fract_z
  _atom_site_occupancy
  Ru  Ru1       1.0  0.24999988259858363  0.25000005690187005  0.2500000430908726  1.0000
  Ru  Ru2       1.0  0.7499999117914978  0.7499999329816409  0.7499999574462026  1.0000
  As  As1       1.0  3.453940372863857e-08  4.176231818943429e-08  0.9999999959479302  1.0000
  I   I1        1.0  0.26171685811939865  0.26171683768945875  0.7382831538570007  1.0000
  I   I2        1.0  0.7382831636114874  0.738283142556591  0.2617168755350607  1.0000
  I   I3        1.0  0.7382831760784669  0.26171679860888497  0.2617168954554993  1.0000
  I   I4        1.0  0.26171686157570434  0.7382832201869974  0.7382831224379067  1.0000
  I   I5        1.0  0.26171690926352875  0.7382831178548322  0.2617167944256357  1.0000
  I   I6        1.0  0.7382832003014271  0.26171686239121705  0.7382831661310439  1.0000
