data_image0
_chemical_formula_structural       Ru2AsCl6
_chemical_formula_sum              "Ru2 As1 Cl6"
_cell_length_a       6.399616517131777
_cell_length_b       6.399616647554222
_cell_length_c       6.399616473555355
_cell_angle_alpha    60.00000053711484
_cell_angle_beta     60.00000069372717
_cell_angle_gamma    60.00000084534913

_space_group_name_H-M_alt    "P 1"
_space_group_IT_number       1

loop_
  _space_group_symop_operation_xyz
  'x, y, z'

loop_
  _atom_site_type_symbol
  _atom_site_label
  _atom_site_symmetry_multiplicity
  _atom_site_fract_x
  _atom_site_fract_y
  _atom_site_fract_z
  _atom_site_occupancy
  Ru  Ru1       1.0  0.24999995442348819  0.24999999191153538  0.24999999628476885  1.0000
  Ru  Ru2       1.0  0.7499999697070203  0.75000000826884  0.749999997498594  1.0000
  As  As1       1.0  1.2630293716140435e-08  1.279727790753874e-16  0.9999999749337295  1.0000
  Cl  Cl1       1.0  0.2555133583515977  0.25551323838437906  0.7444867231578255  1.0000
  Cl  Cl2       1.0  0.7444866892205714  0.744486754140882  0.2555133158634447  1.0000
  Cl  Cl3       1.0  0.7444867297848323  0.255513320887847  0.25551323743038723  1.0000
  Cl  Cl4       1.0  0.2555132534694658  0.7444866697236356  0.7444867893914922  1.0000
  Cl  Cl5       1.0  0.2555132701227195  0.7444867319245918  0.25551329930047156  1.0000
  Cl  Cl6       1.0  0.744486771598663  0.2555132835660113  0.7444866561590262  1.0000
