data_image0
_chemical_formula_structural       Ru2AsF6
_chemical_formula_sum              "Ru2 As1 F6"
_cell_length_a       5.679827826749486
_cell_length_b       5.679827619719987
_cell_length_c       5.679825425891517
_cell_angle_alpha    59.999995322258485
_cell_angle_beta     59.99999865855221
_cell_angle_gamma    59.999997102178675

_space_group_name_H-M_alt    "P 1"
_space_group_IT_number       1

loop_
  _space_group_symop_operation_xyz
  'x, y, z'

loop_
  _atom_site_type_symbol
  _atom_site_label
  _atom_site_symmetry_multiplicity
  _atom_site_fract_x
  _atom_site_fract_y
  _atom_site_fract_z
  _atom_site_occupancy
  Ru  Ru1       1.0  0.2500000595993261  0.2500005185183349  0.24999907629000537  1.0000
  Ru  Ru2       1.0  0.7499998121145309  0.7499995329391819  0.7500005415428043  1.0000
  As  As1       1.0  0.9999999963039815  0.9999999805932251  1.259915366420854e-07  1.0000
  F   F1        1.0  0.23952749780078045  0.23952721162338753  0.7604728437240165  1.0000
  F   F2        1.0  0.7604727132419993  0.7604725293259051  0.23952736535086297  1.0000
  F   F3        1.0  0.7604724669973043  0.2395275407615961  0.23952738566855597  1.0000
  F   F4        1.0  0.23952745874384265  0.7604725559782813  0.7604727300614561  1.0000
  F   F5        1.0  0.2395273998650146  0.7604725836099661  0.23952757252671802  1.0000
  F   F6        1.0  0.7604726722123645  0.23952737296996932  0.7604726686402276  1.0000
