data_image0
_chemical_formula_structural       Ru2BBr6
_chemical_formula_sum              "Ru2 B1 Br6"
_cell_length_a       6.676932105522662
_cell_length_b       6.676932076626582
_cell_length_c       6.676931881821511
_cell_angle_alpha    59.99999951739064
_cell_angle_beta     60.000000710658426
_cell_angle_gamma    59.99999917964565

_space_group_name_H-M_alt    "P 1"
_space_group_IT_number       1

loop_
  _space_group_symop_operation_xyz
  'x, y, z'

loop_
  _atom_site_type_symbol
  _atom_site_label
  _atom_site_symmetry_multiplicity
  _atom_site_fract_x
  _atom_site_fract_y
  _atom_site_fract_z
  _atom_site_occupancy
  Ru  Ru1       1.0  0.24999995619666862  0.2500000127323817  0.25000002239633573  1.0000
  Ru  Ru2       1.0  0.7499999746251895  0.7499999794997738  0.7499999821146524  1.0000
  B   B1        1.0  0.9999997120103775  1.687549497285904e-07  0.999999746599315  1.0000
  Br  Br1       1.0  0.24124889475506456  0.24124884357383325  0.7587511736267083  1.0000
  Br  Br2       1.0  0.7587512659344757  0.7587512165271552  0.241248776370735  1.0000
  Br  Br3       1.0  0.7587511752703587  0.24124879790239503  0.24124884217977383  1.0000
  Br  Br4       1.0  0.24124879197354968  0.75875118882688  0.7587512681848333  1.0000
  Br  Br5       1.0  0.24124892378391352  0.7587510901535286  0.24124888059358154  1.0000
  Br  Br6       1.0  0.7587513199733324  0.24124869480352842  0.7587512972390389  1.0000
