data_image0
_chemical_formula_structural       Ru2BeCl6
_chemical_formula_sum              "Ru2 Be1 Cl6"
_cell_length_a       6.144642204005541
_cell_length_b       6.144642210966931
_cell_length_c       6.14464210891961
_cell_angle_alpha    60.00000048082947
_cell_angle_beta     59.99999909615625
_cell_angle_gamma    59.99999985315451

_space_group_name_H-M_alt    "P 1"
_space_group_IT_number       1

loop_
  _space_group_symop_operation_xyz
  'x, y, z'

loop_
  _atom_site_type_symbol
  _atom_site_label
  _atom_site_symmetry_multiplicity
  _atom_site_fract_x
  _atom_site_fract_y
  _atom_site_fract_z
  _atom_site_occupancy
  Ru  Ru1       1.0  0.2500000177972049  0.2500000421636175  0.24999999415579782  1.0000
  Ru  Ru2       1.0  0.7500000081410853  0.7500000029129795  0.7500000619992929  1.0000
  Be  Be1       1.0  0.9999999919327993  0.999999996013617  9.281660097889908e-09  1.0000
  Cl  Cl1       1.0  0.245057979970025  0.2450580018740958  0.754941993485364  1.0000
  Cl  Cl2       1.0  0.754941977919807  0.754941965468032  0.24505800048416235  1.0000
  Cl  Cl3       1.0  0.7549420117047996  0.24505798727316003  0.24505797108691754  1.0000
  Cl  Cl4       1.0  0.24505802831938361  0.7549419760825847  0.7549419984555304  1.0000
  Cl  Cl5       1.0  0.24505800009579234  0.7549420036489096  0.2450579690125954  1.0000
  Cl  Cl6       1.0  0.7549419824124958  0.24505801950258027  0.7549419896253236  1.0000
