data_image0
_chemical_formula_structural       Ru2BI6
_chemical_formula_sum              "Ru2 B1 I6"
_cell_length_a       7.231313216114303
_cell_length_b       7.231313133957899
_cell_length_c       7.2313129731759735
_cell_angle_alpha    60.00000162455094
_cell_angle_beta     60.00000203040521
_cell_angle_gamma    59.99999995605619

_space_group_name_H-M_alt    "P 1"
_space_group_IT_number       1

loop_
  _space_group_symop_operation_xyz
  'x, y, z'

loop_
  _atom_site_type_symbol
  _atom_site_label
  _atom_site_symmetry_multiplicity
  _atom_site_fract_x
  _atom_site_fract_y
  _atom_site_fract_z
  _atom_site_occupancy
  Ru  Ru1       1.0  0.2499999980162292  0.24999998892069433  0.2500003962416686  1.0000
  Ru  Ru2       1.0  0.7499997487383335  0.7499999074836752  0.7500003412009522  1.0000
  B   B1        1.0  0.9999999749021756  3.2179704647912766e-08  0.9999999065722023  1.0000
  I   I1        1.0  0.24343352032831875  0.24343348130765585  0.75656634857023  1.0000
  I   I2        1.0  0.7565665868837317  0.7565664930054634  0.24343333305006146  1.0000
  I   I3        1.0  0.756566432743306  0.24343348561256156  0.24343350024647956  1.0000
  I   I4        1.0  0.2434335192684907  0.756566700409146  0.7565663646994791  1.0000
  I   I5        1.0  0.2434336358300699  0.7565664514376701  0.24343334791323312  1.0000
  I   I6        1.0  0.7565665886434859  0.24343345851603881  0.756566457989357  1.0000
