data_image0
_chemical_formula_structural       Ru2BeBr6
_chemical_formula_sum              "Ru2 Be1 Br6"
_cell_length_a       6.648629291513603
_cell_length_b       6.648629273549648
_cell_length_c       6.6486288985446205
_cell_angle_alpha    59.999999832164455
_cell_angle_beta     60.000001203089
_cell_angle_gamma    59.99999756806934

_space_group_name_H-M_alt    "P 1"
_space_group_IT_number       1

loop_
  _space_group_symop_operation_xyz
  'x, y, z'

loop_
  _atom_site_type_symbol
  _atom_site_label
  _atom_site_symmetry_multiplicity
  _atom_site_fract_x
  _atom_site_fract_y
  _atom_site_fract_z
  _atom_site_occupancy
  Ru  Ru1       1.0  0.24999999732866132  0.24999999394462247  0.24999998266473547  1.0000
  Ru  Ru2       1.0  0.750000024264844  0.7499999892022705  0.7499999943496329  1.0000
  Be  Be1       1.0  0.9999999853866164  7.368406037453223e-09  0.9999999900858632  1.0000
  Br  Br1       1.0  0.24631780004907583  0.24631778363281034  0.7536822016881015  1.0000
  Br  Br2       1.0  0.7536822089838507  0.7536821903035756  0.24631782531761756  1.0000
  Br  Br3       1.0  0.7536822877443835  0.24631774304339102  0.24631771899405433  1.0000
  Br  Br4       1.0  0.24631775704090264  0.7536822382613998  0.7536822638902394  1.0000
  Br  Br5       1.0  0.24631767376964336  0.7536822964108374  0.2463177443837324  1.0000
  Br  Br6       1.0  0.7536822808792052  0.2463177364727932  0.7536822683078466  1.0000
