data_image0
_chemical_formula_structural       Ru2BeF6
_chemical_formula_sum              "Ru2 Be1 F6"
_cell_length_a       5.189696177037891
_cell_length_b       5.18969621955113
_cell_length_c       5.18969579354134
_cell_angle_alpha    59.99999896884861
_cell_angle_beta     59.99999942915498
_cell_angle_gamma    59.99999879355122

_space_group_name_H-M_alt    "P 1"
_space_group_IT_number       1

loop_
  _space_group_symop_operation_xyz
  'x, y, z'

loop_
  _atom_site_type_symbol
  _atom_site_label
  _atom_site_symmetry_multiplicity
  _atom_site_fract_x
  _atom_site_fract_y
  _atom_site_fract_z
  _atom_site_occupancy
  Ru  Ru1       1.0  0.2499999635127075  0.24999994902693498  0.2500000643339255  1.0000
  Ru  Ru2       1.0  0.7500002287089831  0.7500001208355658  0.7499999371382262  1.0000
  Be  Be1       1.0  1.8586545529414174e-08  0.9999999976400442  1.693634259541921e-08  1.0000
  F   F1        1.0  0.23773948000299824  0.23773951256610457  0.7622605159335231  1.0000
  F   F2        1.0  0.762260467134715  0.7622604581782989  0.23773948229220965  1.0000
  F   F3        1.0  0.7622604796716358  0.23773945972983596  0.23773954283151222  1.0000
  F   F4        1.0  0.23773944139476283  0.762260555853711  0.7622604209606676  1.0000
  F   F5        1.0  0.2377394296946021  0.7622604919164068  0.23773953341269669  1.0000
  F   F6        1.0  0.7622604979581021  0.23773945050853804  0.7622605060573281  1.0000
