data_image0
_chemical_formula_structural       Ru2BeI6
_chemical_formula_sum              "Ru2 Be1 I6"
_cell_length_a       7.2797894144397475
_cell_length_b       7.279789258346436
_cell_length_c       7.279789171876979
_cell_angle_alpha    59.99999995709442
_cell_angle_beta     60.00000093121793
_cell_angle_gamma    60.00000339446544

_space_group_name_H-M_alt    "P 1"
_space_group_IT_number       1

loop_
  _space_group_symop_operation_xyz
  'x, y, z'

loop_
  _atom_site_type_symbol
  _atom_site_label
  _atom_site_symmetry_multiplicity
  _atom_site_fract_x
  _atom_site_fract_y
  _atom_site_fract_z
  _atom_site_occupancy
  Ru  Ru1       1.0  0.25000009549350916  0.25000021946087736  0.24999979797688163  1.0000
  Ru  Ru2       1.0  0.7499999360273235  0.7500000157094296  0.7500001130277678  1.0000
  Be  Be1       1.0  0.9999999919894254  0.999999976446532  3.501334760799545e-08  1.0000
  I   I1        1.0  0.24884583065453272  0.2488458298540698  0.7511542301616113  1.0000
  I   I2        1.0  0.7511541813402852  0.7511541260394066  0.24884576430848626  1.0000
  I   I3        1.0  0.75115411784562  0.24884583133088575  0.24884592166740233  1.0000
  I   I4        1.0  0.24884591805451706  0.7511540909147807  0.7511540941579347  1.0000
  I   I5        1.0  0.24884588920181244  0.7511540611065102  0.24884590773316048  1.0000
  I   I6        1.0  0.7511540253162382  0.24884584936241774  0.7511541293406058  1.0000
