data_image0
_chemical_formula_structural       Ru2BF6
_chemical_formula_sum              "Ru2 B1 F6"
_cell_length_a       5.310393624602561
_cell_length_b       5.310393819383485
_cell_length_c       5.310393188781966
_cell_angle_alpha    60.00000672336375
_cell_angle_beta     60.000000684385974
_cell_angle_gamma    60.000000283722535

_space_group_name_H-M_alt    "P 1"
_space_group_IT_number       1

loop_
  _space_group_symop_operation_xyz
  'x, y, z'

loop_
  _atom_site_type_symbol
  _atom_site_label
  _atom_site_symmetry_multiplicity
  _atom_site_fract_x
  _atom_site_fract_y
  _atom_site_fract_z
  _atom_site_occupancy
  Ru  Ru1       1.0  0.25000075436423647  0.2500000226779173  0.2499990377515205  1.0000
  Ru  Ru2       1.0  0.7499992465140761  0.7500003309540546  0.7500013542784736  1.0000
  B   B1        1.0  0.9999999457223611  2.9982111261135705e-07  0.9999996022957092  1.0000
  F   F1        1.0  0.21778253274911902  0.21778236618511504  0.7822175181251426  1.0000
  F   F2        1.0  0.7822172898161215  0.7822173416782643  0.2177824762127876  1.0000
  F   F3        1.0  0.7822173416418395  0.21778263289839445  0.21778252622461242  1.0000
  F   F4        1.0  0.21778258258946964  0.7822173309660944  0.782217362720622  1.0000
  F   F5        1.0  0.217782926499735  0.7822171819027915  0.21778273033052234  1.0000
  F   F6        1.0  0.7822173857274511  0.21778246599635664  0.7822174088305907  1.0000
