data_image0
_chemical_formula_structural       Ru2CCl6
_chemical_formula_sum              "Ru2 C1 Cl6"
_cell_length_a       6.359120160746395
_cell_length_b       6.359120601568997
_cell_length_c       6.359120392244495
_cell_angle_alpha    59.999996526737355
_cell_angle_beta     59.99999693451474
_cell_angle_gamma    59.999999880361635

_space_group_name_H-M_alt    "P 1"
_space_group_IT_number       1

loop_
  _space_group_symop_operation_xyz
  'x, y, z'

loop_
  _atom_site_type_symbol
  _atom_site_label
  _atom_site_symmetry_multiplicity
  _atom_site_fract_x
  _atom_site_fract_y
  _atom_site_fract_z
  _atom_site_occupancy
  Ru  Ru1       1.0  0.24999991537965383  0.24999983460742145  0.2500002329934354  1.0000
  Ru  Ru2       1.0  0.7499999835262819  0.7499999737579471  0.7499999600453746  1.0000
  C   C1        1.0  1.147547356858392e-06  0.9999986056007548  3.064584869261289e-08  1.0000
  Cl  Cl1       1.0  0.24535648347206787  0.24535669571277924  0.7546433981438193  1.0000
  Cl  Cl2       1.0  0.7546434906626353  0.7546436114777404  0.24535650786801347  1.0000
  Cl  Cl3       1.0  0.7546431529458639  0.24535688609399411  0.24535675882991984  1.0000
  Cl  Cl4       1.0  0.24535629886873245  0.7546438005117683  0.7546436730997088  1.0000
  Cl  Cl5       1.0  0.24535623654787045  0.754643798231476  0.24535632440498714  1.0000
  Cl  Cl6       1.0  0.754643293202203  0.24535676896445044  0.7546431296960463  1.0000
