data_image0
_chemical_formula_structural       Ru2CBr6
_chemical_formula_sum              "Ru2 C1 Br6"
_cell_length_a       6.796567554112918
_cell_length_b       6.796567303019328
_cell_length_c       6.79656795386205
_cell_angle_alpha    59.99999731089172
_cell_angle_beta     59.999998156425924
_cell_angle_gamma    60.00000178397814

_space_group_name_H-M_alt    "P 1"
_space_group_IT_number       1

loop_
  _space_group_symop_operation_xyz
  'x, y, z'

loop_
  _atom_site_type_symbol
  _atom_site_label
  _atom_site_symmetry_multiplicity
  _atom_site_fract_x
  _atom_site_fract_y
  _atom_site_fract_z
  _atom_site_occupancy
  Ru  Ru1       1.0  0.25000003933695103  0.2500000379597477  0.2500000923774291  1.0000
  Ru  Ru2       1.0  0.7499999614369811  0.7499998904306012  0.7499999698337212  1.0000
  C   C1        1.0  0.9999998366833839  0.999999684649108  1.7592185049433027e-06  1.0000
  Br  Br1       1.0  0.24778867217555528  0.24778878911074229  0.7522110903736673  1.0000
  Br  Br2       1.0  0.7522115268214484  0.7522114059763686  0.2477883936148211  1.0000
  Br  Br3       1.0  0.7522114551743434  0.24778871367220454  0.24778825735985563  1.0000
  Br  Br4       1.0  0.24778901977947676  0.752211086775801  0.7522109784616315  1.0000
  Br  Br5       1.0  0.24778852371823779  0.7522114266143758  0.24778836069571758  1.0000
  Br  Br6       1.0  0.7522109765964471  0.2477889684952673  0.75221106511452  1.0000
