data_image0
_chemical_formula_structural       Ru2CF6
_chemical_formula_sum              "Ru2 C1 F6"
_cell_length_a       5.0746049283089425
_cell_length_b       5.074605263870439
_cell_length_c       5.074604362998097
_cell_angle_alpha    59.99999980287925
_cell_angle_beta     60.00000265548762
_cell_angle_gamma    60.00000098610015

_space_group_name_H-M_alt    "P 1"
_space_group_IT_number       1

loop_
  _space_group_symop_operation_xyz
  'x, y, z'

loop_
  _atom_site_type_symbol
  _atom_site_label
  _atom_site_symmetry_multiplicity
  _atom_site_fract_x
  _atom_site_fract_y
  _atom_site_fract_z
  _atom_site_occupancy
  Ru  Ru1       1.0  0.2499987242743698  0.24999780791470513  0.25000056739786886  1.0000
  Ru  Ru2       1.0  0.7499994386933556  0.7499986440971231  0.749999295678094  1.0000
  C   C1        1.0  0.999998463194298  0.9999961867047799  0.9999999063619001  1.0000
  F   F1        1.0  0.21857006275820495  0.21856999227035917  0.7814297867555999  1.0000
  F   F2        1.0  0.7814359852156627  0.7814358988541371  0.21856395435996237  1.0000
  F   F3        1.0  0.7814307317233098  0.21856892159286712  0.21856942079982916  1.0000
  F   F4        1.0  0.21856467506463945  0.7814350821915075  0.7814351622756922  1.0000
  F   F5        1.0  0.21856785948948382  0.7814317857173997  0.21856783284924786  1.0000
  F   F6        1.0  0.7814340233835159  0.2185656847818919  0.7814339510198821  1.0000
