data_image0
_chemical_formula_structural       Ru2CI6
_chemical_formula_sum              "Ru2 C1 I6"
_cell_length_a       7.284604215585107
_cell_length_b       7.284603953682323
_cell_length_c       7.284603168481338
_cell_angle_alpha    59.999999765121565
_cell_angle_beta     60.00000000180511
_cell_angle_gamma    59.99999994885483

_space_group_name_H-M_alt    "P 1"
_space_group_IT_number       1

loop_
  _space_group_symop_operation_xyz
  'x, y, z'

loop_
  _atom_site_type_symbol
  _atom_site_label
  _atom_site_symmetry_multiplicity
  _atom_site_fract_x
  _atom_site_fract_y
  _atom_site_fract_z
  _atom_site_occupancy
  Ru  Ru1       1.0  0.2500000814548289  0.24999992063659243  0.24999999593867103  1.0000
  Ru  Ru2       1.0  0.7499999367706319  0.7499997383718581  0.7500008054421395  1.0000
  C   C1        1.0  4.4529135238879604e-08  0.9999999092109554  3.273926428669119e-08  1.0000
  I   I1        1.0  0.25313509054613  0.25313509423349534  0.746864873609079  1.0000
  I   I2        1.0  0.7468649323795827  0.7468649834133495  0.25313485126462065  1.0000
  I   I3        1.0  0.7468648367076227  0.2531355042773817  0.2531347216505566  1.0000
  I   I4        1.0  0.253135002434128  0.7468649012187902  0.7468649037352901  1.0000
  I   I5        1.0  0.2531351196644277  0.7468649153038563  0.25313495783351353  1.0000
  I   I6        1.0  0.7468649537792964  0.25313503456581354  0.746864857834588  1.0000
