data_image0
_chemical_formula_structural       Ru2GaSe6
_chemical_formula_sum              "Ru2 Ga1 Se6"
_cell_length_a       6.2856747371848
_cell_length_b       6.28567529987141
_cell_length_c       6.285674880076453
_cell_angle_alpha    59.999999570853035
_cell_angle_beta     59.99999982765131
_cell_angle_gamma    59.99999957340348

_space_group_name_H-M_alt    "P 1"
_space_group_IT_number       1

loop_
  _space_group_symop_operation_xyz
  'x, y, z'

loop_
  _atom_site_type_symbol
  _atom_site_label
  _atom_site_symmetry_multiplicity
  _atom_site_fract_x
  _atom_site_fract_y
  _atom_site_fract_z
  _atom_site_occupancy
  Ru  Ru1       1.0  0.2500001161994436  0.2500003322740142  0.2499999325502421  1.0000
  Ru  Ru2       1.0  0.750000274241837  0.7500000790927476  0.7500004321035973  1.0000
  Ga  Ga1       1.0  1.861233804747088e-08  0.999999955185197  0.9999999017368989  1.0000
  Se  Se1       1.0  0.27309919280266437  0.27309925615856134  0.7269005723931712  1.0000
  Se  Se2       1.0  0.7269008832160733  0.7269007206994714  0.27309897830977037  1.0000
  Se  Se3       1.0  0.7269005926771975  0.2730994107597393  0.27309917513995957  1.0000
  Se  Se4       1.0  0.27309900803013964  0.7269006693671917  0.726900937041128  1.0000
  Se  Se5       1.0  0.2730991817599429  0.7269006527587082  0.27309919924395054  1.0000
  Se  Se6       1.0  0.726900730119735  0.2730989402507627  0.7269008640906685  1.0000
