data_image0
_chemical_formula_structural       Ru2GaBr6
_chemical_formula_sum              "Ru2 Ga1 Br6"
_cell_length_a       6.796468222142863
_cell_length_b       6.796468153976642
_cell_length_c       6.796468277883654
_cell_angle_alpha    59.99999971996185
_cell_angle_beta     59.99999949388695
_cell_angle_gamma    59.99999975908931

_space_group_name_H-M_alt    "P 1"
_space_group_IT_number       1

loop_
  _space_group_symop_operation_xyz
  'x, y, z'

loop_
  _atom_site_type_symbol
  _atom_site_label
  _atom_site_symmetry_multiplicity
  _atom_site_fract_x
  _atom_site_fract_y
  _atom_site_fract_z
  _atom_site_occupancy
  Ru  Ru1       1.0  0.2500000037883305  0.24999998683099112  0.24999999618461832  1.0000
  Ru  Ru2       1.0  0.7499999735576977  0.7500000127518825  0.7499999798566951  1.0000
  Ga  Ga1       1.0  2.55022541038052e-08  0.9999999693654668  0.9999999746104435  1.0000
  Br  Br1       1.0  0.25672016584978463  0.2567201136540717  0.7432798695587554  1.0000
  Br  Br2       1.0  0.7432798592735637  0.7432798751166142  0.2567201321405641  1.0000
  Br  Br3       1.0  0.7432798657979611  0.25672013499545604  0.25672015116067226  1.0000
  Br  Br4       1.0  0.2567201364319612  0.7432798663894495  0.7432798924620607  1.0000
  Br  Br5       1.0  0.2567201153245797  0.7432798821962237  0.2567201828039994  1.0000
  Br  Br6       1.0  0.7432798577990261  0.25672016063540287  0.7432798222787784  1.0000
