data_image0
_chemical_formula_structural       Ru2GaCl6
_chemical_formula_sum              "Ru2 Ga1 Cl6"
_cell_length_a       6.373338472330046
_cell_length_b       6.373338459067115
_cell_length_c       6.373338450048922
_cell_angle_alpha    59.99999984319448
_cell_angle_beta     60.000000606036195
_cell_angle_gamma    59.999999659021974

_space_group_name_H-M_alt    "P 1"
_space_group_IT_number       1

loop_
  _space_group_symop_operation_xyz
  'x, y, z'

loop_
  _atom_site_type_symbol
  _atom_site_label
  _atom_site_symmetry_multiplicity
  _atom_site_fract_x
  _atom_site_fract_y
  _atom_site_fract_z
  _atom_site_occupancy
  Ru  Ru1       1.0  0.24999997075962163  0.2499999662458137  0.2500000422340098  1.0000
  Ru  Ru2       1.0  0.7499999745728372  0.7499999890558975  0.7500000048937595  1.0000
  Ga  Ga1       1.0  0.999999995004307  0.9999999769399687  0.9999999951994254  1.0000
  Cl  Cl1       1.0  0.25613073257269586  0.256130654134104  0.7438693009178946  1.0000
  Cl  Cl2       1.0  0.743869264001041  0.7438693376793234  0.25613070704048657  1.0000
  Cl  Cl3       1.0  0.7438692963032206  0.2561307148223495  0.2561307056536431  1.0000
  Cl  Cl4       1.0  0.25613072082165494  0.7438693077377864  0.7438692829319601  1.0000
  Cl  Cl5       1.0  0.2561307412879341  0.7438693097673967  0.25613066900928394  1.0000
  Cl  Cl6       1.0  0.7438693008719751  0.25613073008776255  0.7438692968422544  1.0000
