data_image0
_chemical_formula_structural       Ru2GaS6
_chemical_formula_sum              "Ru2 Ga1 S6"
_cell_length_a       5.552156739766442
_cell_length_b       5.552159930112662
_cell_length_c       5.552157815027334
_cell_angle_alpha    60.00000662598319
_cell_angle_beta     59.999985242011704
_cell_angle_gamma    59.99999946090729

_space_group_name_H-M_alt    "P 1"
_space_group_IT_number       1

loop_
  _space_group_symop_operation_xyz
  'x, y, z'

loop_
  _atom_site_type_symbol
  _atom_site_label
  _atom_site_symmetry_multiplicity
  _atom_site_fract_x
  _atom_site_fract_y
  _atom_site_fract_z
  _atom_site_occupancy
  Ru  Ru1       1.0  0.25000009951392865  0.2500036258481674  0.24999866723739714  1.0000
  Ru  Ru2       1.0  0.7500020204245285  0.7499990297157079  0.7500022930368949  1.0000
  Ga  Ga1       1.0  0.9999994145603248  3.08824529465823e-07  0.9999992935909728  1.0000
  S   S1        1.0  0.2711179172143498  0.2711206775250959  0.7288811856824323  1.0000
  S   S2        1.0  0.7288805516571063  0.7288794920027175  0.2711194930948665  1.0000
  S   S3        1.0  0.7288814476004704  0.2711196895529944  0.2711189239212424  1.0000
  S   S4        1.0  0.271118574306244  0.728879271147594  0.7288813612165066  1.0000
  S   S5        1.0  0.27112029049469566  0.728878742856212  0.2711175741682518  1.0000
  S   S6        1.0  0.7288797053779467  0.2711193288712861  0.7288810305655904  1.0000
