data_image0
_chemical_formula_structural       Ru2GaF6
_chemical_formula_sum              "Ru2 Ga1 F6"
_cell_length_a       5.4328384558379925
_cell_length_b       5.4328383768041775
_cell_length_c       5.432838723783201
_cell_angle_alpha    59.99999501580555
_cell_angle_beta     59.999995383251544
_cell_angle_gamma    59.999996714657115

_space_group_name_H-M_alt    "P 1"
_space_group_IT_number       1

loop_
  _space_group_symop_operation_xyz
  'x, y, z'

loop_
  _atom_site_type_symbol
  _atom_site_label
  _atom_site_symmetry_multiplicity
  _atom_site_fract_x
  _atom_site_fract_y
  _atom_site_fract_z
  _atom_site_occupancy
  Ru  Ru1       1.0  0.24999970461137955  0.2500001607381043  0.24999966753255362  1.0000
  Ru  Ru2       1.0  0.7500004628174952  0.7499996616355619  0.7500003471307496  1.0000
  Ga  Ga1       1.0  0.9999999499773562  2.254337248567814e-08  0.9999999585198855  1.0000
  F   F1        1.0  0.24468947219412465  0.2446898177340059  0.7553104668331211  1.0000
  F   F2        1.0  0.7553104676610997  0.7553102729057798  0.24468952564328839  1.0000
  F   F3        1.0  0.7553103794276003  0.24468971846605536  0.2446895956878945  1.0000
  F   F4        1.0  0.2446895765284059  0.755310419514811  0.7553103374577073  1.0000
  F   F5        1.0  0.24468970183945937  0.7553103447115906  0.24468959971037305  1.0000
  F   F6        1.0  0.7553103251171052  0.24468959939628082  0.7553104316846168  1.0000
