data_image0
_chemical_formula_structural       Ru2NF6
_chemical_formula_sum              "Ru2 N1 F6"
_cell_length_a       5.198659223916384
_cell_length_b       5.198659009960839
_cell_length_c       5.198659313298325
_cell_angle_alpha    60.00000057038801
_cell_angle_beta     59.99999860853213
_cell_angle_gamma    60.00000133655425

_space_group_name_H-M_alt    "P 1"
_space_group_IT_number       1

loop_
  _space_group_symop_operation_xyz
  'x, y, z'

loop_
  _atom_site_type_symbol
  _atom_site_label
  _atom_site_symmetry_multiplicity
  _atom_site_fract_x
  _atom_site_fract_y
  _atom_site_fract_z
  _atom_site_occupancy
  Ru  Ru1       1.0  0.25000037093611815  0.2499994092587223  0.2499991096121631  1.0000
  Ru  Ru2       1.0  0.7500000229769144  0.7500000912821431  0.7499995599819352  1.0000
  N   N1        1.0  0.9999999440439077  6.125304310478484e-08  1.6662593842089418e-07  1.0000
  F   F1        1.0  0.2340285785833985  0.23402871951553803  0.7659716322016964  1.0000
  F   F2        1.0  0.7659713001686042  0.76597143360583  0.23402887109624665  1.0000
  F   F3        1.0  0.7659714126953754  0.23402866409531486  0.23402874061535017  1.0000
  F   F4        1.0  0.23402864074620267  0.7659712581492103  0.7659715561003312  1.0000
  F   F5        1.0  0.23402855266030426  0.7659716089347328  0.23402876543333387  1.0000
  F   F6        1.0  0.7659711840919452  0.23402873030163227  0.7659716215519209  1.0000
