data_image0
_chemical_formula_structural       Ru2NO6
_chemical_formula_sum              "Ru2 N1 O6"
_cell_length_a       4.819501843734106
_cell_length_b       4.819502836531877
_cell_length_c       4.81950256521037
_cell_angle_alpha    60.000003526050556
_cell_angle_beta     60.0000000978934
_cell_angle_gamma    59.999998455897845

_space_group_name_H-M_alt    "P 1"
_space_group_IT_number       1

loop_
  _space_group_symop_operation_xyz
  'x, y, z'

loop_
  _atom_site_type_symbol
  _atom_site_label
  _atom_site_symmetry_multiplicity
  _atom_site_fract_x
  _atom_site_fract_y
  _atom_site_fract_z
  _atom_site_occupancy
  Ru  Ru1       1.0  0.25000215079032806  0.25000131077441096  0.2500020576851713  1.0000
  Ru  Ru2       1.0  0.7499987400236909  0.7500036375415513  0.7500039249371712  1.0000
  N   N1        1.0  1.4314611679521076e-06  8.57155679939519e-06  1.2081167012192435e-05  1.0000
  O   O1        1.0  0.23518878827783476  0.23518699824401257  0.7648101568078404  1.0000
  O   O2        1.0  0.7648069528639364  0.7648068118766895  0.23519095595673428  1.0000
  O   O3        1.0  0.7648129089362484  0.23518567203193405  0.23518496909172498  1.0000
  O   O4        1.0  0.23519464169972834  0.7648039831825763  0.7648042159581975  1.0000
  O   O5        1.0  0.23518782854843248  0.7648113249036314  0.23518645371284205  1.0000
  O   O6        1.0  0.7648066713628694  0.23519179372975796  0.7648052659364217  1.0000
