data_image0
_chemical_formula_structural       Ru2PCl6
_chemical_formula_sum              "Ru2 P1 Cl6"
_cell_length_a       6.40724283919963
_cell_length_b       6.407242810191822
_cell_length_c       6.4072428259101315
_cell_angle_alpha    60.00000007511486
_cell_angle_beta     59.99999973480632
_cell_angle_gamma    59.99999774223518

_space_group_name_H-M_alt    "P 1"
_space_group_IT_number       1

loop_
  _space_group_symop_operation_xyz
  'x, y, z'

loop_
  _atom_site_type_symbol
  _atom_site_label
  _atom_site_symmetry_multiplicity
  _atom_site_fract_x
  _atom_site_fract_y
  _atom_site_fract_z
  _atom_site_occupancy
  Ru  Ru1       1.0  0.24999999804366455  0.24999996056351997  0.25000006516104156  1.0000
  Ru  Ru2       1.0  0.7499999535334375  0.7500000575486206  0.7500000139193105  1.0000
  P   P1        1.0  0.999999997888615  0.9999999847079949  8.701695033995667e-09  1.0000
  Cl  Cl1       1.0  0.2473306283139885  0.24733055339724766  0.7526694156937807  1.0000
  Cl  Cl2       1.0  0.7526694490159521  0.7526694226618753  0.24733056691097982  1.0000
  Cl  Cl3       1.0  0.7526694484504147  0.2473306108895489  0.24733055695022682  1.0000
  Cl  Cl4       1.0  0.24733052684547632  0.7526694550101072  0.752669416143955  1.0000
  Cl  Cl5       1.0  0.24733056067707676  0.7526694018669772  0.24733058380880843  1.0000
  Cl  Cl6       1.0  0.7526694419264293  0.24733055507714097  0.7526693723621867  1.0000
