data_image0
_chemical_formula_structural       Ru2PF6
_chemical_formula_sum              "Ru2 P1 F6"
_cell_length_a       5.918491964902532
_cell_length_b       5.918492064969265
_cell_length_c       5.918490939058871
_cell_angle_alpha    60.000002883982624
_cell_angle_beta     60.0000066846363
_cell_angle_gamma    59.999998767232015

_space_group_name_H-M_alt    "P 1"
_space_group_IT_number       1

loop_
  _space_group_symop_operation_xyz
  'x, y, z'

loop_
  _atom_site_type_symbol
  _atom_site_label
  _atom_site_symmetry_multiplicity
  _atom_site_fract_x
  _atom_site_fract_y
  _atom_site_fract_z
  _atom_site_occupancy
  Ru  Ru1       1.0  0.2500007020141095  0.24999920642258536  0.24999987056549325  1.0000
  Ru  Ru2       1.0  0.7499997288281071  0.7500001562944684  0.7500000961231946  1.0000
  P   P1        1.0  0.9999999398129824  8.691282444423114e-08  0.9999999663616552  1.0000
  F   F1        1.0  0.19947297032543948  0.1994732511346299  0.800526853620719  1.0000
  F   F2        1.0  0.8005269258092029  0.8005269372542416  0.1994730757214948  1.0000
  F   F3        1.0  0.800526745838909  0.19947323196811212  0.1994731937476578  1.0000
  F   F4        1.0  0.1994730705412455  0.8005269440046432  0.8005268441957938  1.0000
  F   F5        1.0  0.19947301694389394  0.800526988016404  0.19947314178029862  1.0000
  F   F6        1.0  0.8005268118117631  0.1994732210660001  0.8005267956980615  1.0000
