data_image0
_chemical_formula_structural       Ru2PI6
_chemical_formula_sum              "Ru2 P1 I6"
_cell_length_a       7.488093301228625
_cell_length_b       7.48809321548877
_cell_length_c       7.488093345770238
_cell_angle_alpha    59.99999944362356
_cell_angle_beta     59.99999966013741
_cell_angle_gamma    60.00000032119789

_space_group_name_H-M_alt    "P 1"
_space_group_IT_number       1

loop_
  _space_group_symop_operation_xyz
  'x, y, z'

loop_
  _atom_site_type_symbol
  _atom_site_label
  _atom_site_symmetry_multiplicity
  _atom_site_fract_x
  _atom_site_fract_y
  _atom_site_fract_z
  _atom_site_occupancy
  Ru  Ru1       1.0  0.25000018168227267  0.2500001187811409  0.24999988520608646  1.0000
  Ru  Ru2       1.0  0.7499999610968243  0.7500001420811554  0.750000010654427  1.0000
  P   P1        1.0  0.9999999328821306  0.9999999885508709  5.2638033690528455e-08  1.0000
  I   I1        1.0  0.26020138058072695  0.260201204418354  0.7397986610807442  1.0000
  I   I2        1.0  0.7397986613480148  0.7397987113344966  0.2602012908279901  1.0000
  I   I3        1.0  0.7397986866565011  0.2602013396801638  0.26020125856218623  1.0000
  I   I4        1.0  0.2602012422189236  0.739798628411559  0.7397987664382806  1.0000
  I   I5        1.0  0.260201278421254  0.7397986051498048  0.2602013185140097  1.0000
  I   I6        1.0  0.7397986836176209  0.2602012680777109  0.7397987493559166  1.0000
