data_image0
_chemical_formula_structural       Ru2RhF6
_chemical_formula_sum              "Ru2 Rh1 F6"
_cell_length_a       5.564688819077407
_cell_length_b       5.564688908545991
_cell_length_c       5.564689337373269
_cell_angle_alpha    59.99999857988814
_cell_angle_beta     59.99999858979081
_cell_angle_gamma    60.000000271718385

_space_group_name_H-M_alt    "P 1"
_space_group_IT_number       1

loop_
  _space_group_symop_operation_xyz
  'x, y, z'

loop_
  _atom_site_type_symbol
  _atom_site_label
  _atom_site_symmetry_multiplicity
  _atom_site_fract_x
  _atom_site_fract_y
  _atom_site_fract_z
  _atom_site_occupancy
  Ru  Ru1       1.0  0.24999965451466605  0.25000028390680895  0.2499996625299222  1.0000
  Ru  Ru2       1.0  0.7499997465793821  0.7499991438046092  0.7500003108147794  1.0000
  Rh  Rh1       1.0  2.6806582076812934e-08  8.143413190135619e-08  1.7761464528601285e-08  1.0000
  F   F1        1.0  0.2529223285714205  0.25292235729627505  0.7470778048567316  1.0000
  F   F2        1.0  0.7470778212484315  0.7470777064817489  0.2529223674263538  1.0000
  F   F3        1.0  0.747077849132493  0.25292242924906605  0.25292211944562215  1.0000
  F   F4        1.0  0.252922444326081  0.7470776829492527  0.7470778004649975  1.0000
  F   F5        1.0  0.2529224045858252  0.7470777149589635  0.25292217347918367  1.0000
  F   F6        1.0  0.7470777962686455  0.25292253809839166  0.7470776863630594  1.0000
