data_image0
_chemical_formula_structural       Ru2RhI6
_chemical_formula_sum              "Ru2 Rh1 I6"
_cell_length_a       7.383995010108482
_cell_length_b       7.383994917976156
_cell_length_c       7.38399490353214
_cell_angle_alpha    59.99999951967424
_cell_angle_beta     59.9999995224998
_cell_angle_gamma    59.99999933484693

_space_group_name_H-M_alt    "P 1"
_space_group_IT_number       1

loop_
  _space_group_symop_operation_xyz
  'x, y, z'

loop_
  _atom_site_type_symbol
  _atom_site_label
  _atom_site_symmetry_multiplicity
  _atom_site_fract_x
  _atom_site_fract_y
  _atom_site_fract_z
  _atom_site_occupancy
  Ru  Ru1       1.0  0.250000047399076  0.24999995344029582  0.25000000869562483  1.0000
  Ru  Ru2       1.0  0.7499999647111957  0.750000092531615  0.7500001151926465  1.0000
  Rh  Rh1       1.0  4.5802297357932374e-09  3.317296103073581e-08  0.999999994666209  1.0000
  I   I1        1.0  0.25112580286108094  0.2511256981498957  0.7488742786720923  1.0000
  I   I2        1.0  0.748874229532408  0.7488742682069089  0.2511256812200183  1.0000
  I   I3        1.0  0.7488742425654948  0.2511257378125715  0.2511257371324708  1.0000
  I   I4        1.0  0.25112571650338517  0.7488742467893619  0.7488742394651368  1.0000
  I   I5        1.0  0.2511257454292638  0.7488742447513336  0.2511257066876072  1.0000
  I   I6        1.0  0.748874248422399  0.251125719946823  0.748874244864851  1.0000
