data_image0
_chemical_formula_structural       Ru2RhCl6
_chemical_formula_sum              "Ru2 Rh1 Cl6"
_cell_length_a       6.4817611624916305
_cell_length_b       6.481761125322814
_cell_length_c       6.481761172624513
_cell_angle_alpha    59.99999909602179
_cell_angle_beta     59.99999992821017
_cell_angle_gamma    59.99999948196266

_space_group_name_H-M_alt    "P 1"
_space_group_IT_number       1

loop_
  _space_group_symop_operation_xyz
  'x, y, z'

loop_
  _atom_site_type_symbol
  _atom_site_label
  _atom_site_symmetry_multiplicity
  _atom_site_fract_x
  _atom_site_fract_y
  _atom_site_fract_z
  _atom_site_occupancy
  Ru  Ru1       1.0  0.24999999526421893  0.24999996897702054  0.24999995544691742  1.0000
  Ru  Ru2       1.0  0.7499999956878954  0.7500000108549284  0.7499999529107219  1.0000
  Rh  Rh1       1.0  2.452674135903313e-08  0.9999999905523757  0.9999999970888133  1.0000
  Cl  Cl1       1.0  0.25146505806545016  0.2514650782801587  0.7485349270393666  1.0000
  Cl  Cl2       1.0  0.7485349360173316  0.7485349242260878  0.25146506561159593  1.0000
  Cl  Cl3       1.0  0.748534948737707  0.25146506524156675  0.25146506421258796  1.0000
  Cl  Cl4       1.0  0.2514650605322555  0.7485349504913535  0.7485349636007453  1.0000
  Cl  Cl5       1.0  0.25146506233395227  0.748534956076708  0.25146505495491595  1.0000
  Cl  Cl6       1.0  0.748534910460819  0.25146507288288616  0.7485350091673251  1.0000
