data_image0
_chemical_formula_structural       Ru2RhBr6
_chemical_formula_sum              "Ru2 Rh1 Br6"
_cell_length_a       6.8883346370241645
_cell_length_b       6.888334515872271
_cell_length_c       6.888334537891723
_cell_angle_alpha    59.99999934656799
_cell_angle_beta     59.999999478922916
_cell_angle_gamma    59.99999944976276

_space_group_name_H-M_alt    "P 1"
_space_group_IT_number       1

loop_
  _space_group_symop_operation_xyz
  'x, y, z'

loop_
  _atom_site_type_symbol
  _atom_site_label
  _atom_site_symmetry_multiplicity
  _atom_site_fract_x
  _atom_site_fract_y
  _atom_site_fract_z
  _atom_site_occupancy
  Ru  Ru1       1.0  0.2500000040939709  0.2500000804072864  0.24999996659748416  1.0000
  Ru  Ru2       1.0  0.7499999326528097  0.7499999923020614  0.750000051001337  1.0000
  Rh  Rh1       1.0  0.9999999927020815  1.7779985352715378e-09  5.663419489096649e-09  1.0000
  Br  Br1       1.0  0.24994333171289265  0.2499433628108819  0.7500566617399198  1.0000
  Br  Br2       1.0  0.7500566836695717  0.7500566298885308  0.2499433521908376  1.0000
  Br  Br3       1.0  0.7500566369197034  0.24994335718360444  0.24994333475400127  1.0000
  Br  Br4       1.0  0.2499433550786169  0.7500566604077882  0.7500566479365142  1.0000
  Br  Br5       1.0  0.24994339896378262  0.7500566242904909  0.24994331461861502  1.0000
  Br  Br6       1.0  0.7500566657610062  0.249943300844977  0.7500566648710609  1.0000
