data_image0
_chemical_formula_structural       Ru2SBr6
_chemical_formula_sum              "Ru2 S1 Br6"
_cell_length_a       6.908244912044867
_cell_length_b       6.908244844709307
_cell_length_c       6.908244591261606
_cell_angle_alpha    59.99999780537999
_cell_angle_beta     59.99999764497279
_cell_angle_gamma    59.99999525005847

_space_group_name_H-M_alt    "P 1"
_space_group_IT_number       1

loop_
  _space_group_symop_operation_xyz
  'x, y, z'

loop_
  _atom_site_type_symbol
  _atom_site_label
  _atom_site_symmetry_multiplicity
  _atom_site_fract_x
  _atom_site_fract_y
  _atom_site_fract_z
  _atom_site_occupancy
  Ru  Ru1       1.0  0.2500001946430275  0.2500000847636946  0.24999989201186448  1.0000
  Ru  Ru2       1.0  0.7499998223969035  0.7499999564482374  0.7500004286451795  1.0000
  S   S1        1.0  2.26910023039971e-08  3.723036137781019e-08  0.9999998151519228  1.0000
  Br  Br1       1.0  0.2555521798562447  0.255552181001267  0.7444478125289208  1.0000
  Br  Br2       1.0  0.7444478316130897  0.7444478017058258  0.2555521435383113  1.0000
  Br  Br3       1.0  0.7444476350108775  0.2555523292354699  0.2555522503346809  1.0000
  Br  Br4       1.0  0.2555522874817483  0.7444476446072555  0.7444477228070854  1.0000
  Br  Br5       1.0  0.2555523061253808  0.744447771544929  0.2555521954067057  1.0000
  Br  Br6       1.0  0.7444477464560458  0.2555521881147976  0.7444477501806167  1.0000
