data_image0
_chemical_formula_structural       Ru2SbO6
_chemical_formula_sum              "Ru2 Sb1 O6"
_cell_length_a       5.458005187506391
_cell_length_b       5.4580046872803045
_cell_length_c       5.45800460856861
_cell_angle_alpha    59.999991239478135
_cell_angle_beta     59.99999355328361
_cell_angle_gamma    59.99999392783284

_space_group_name_H-M_alt    "P 1"
_space_group_IT_number       1

loop_
  _space_group_symop_operation_xyz
  'x, y, z'

loop_
  _atom_site_type_symbol
  _atom_site_label
  _atom_site_symmetry_multiplicity
  _atom_site_fract_x
  _atom_site_fract_y
  _atom_site_fract_z
  _atom_site_occupancy
  Ru  Ru1       1.0  0.2500017081908719  0.2500010279387231  0.24999792431235301  1.0000
  Ru  Ru2       1.0  0.7499991103165952  0.7500034316268185  0.7500027549274253  1.0000
  Sb  Sb1       1.0  0.9999999749756715  1.7951542924528525e-08  0.999999983382508  1.0000
  O   O1        1.0  0.2521299736459381  0.2521283575821617  0.747870926328408  1.0000
  O   O2        1.0  0.7478705986915792  0.7478705190542022  0.25212770410899255  1.0000
  O   O3        1.0  0.7478704991290577  0.2521286418045951  0.25212971142645973  1.0000
  O   O4        1.0  0.2521283533904506  0.7478701518057954  0.747870932561113  1.0000
  O   O5        1.0  0.2521301182029565  0.7478700459456312  0.2521284183394069  1.0000
  O   O6        1.0  0.7478696572727089  0.2521277939891471  0.7478716803634391  1.0000
