data_image0
_chemical_formula_structural       Ru2SI6
_chemical_formula_sum              "Ru2 S1 I6"
_cell_length_a       7.528873689649674
_cell_length_b       7.528873567753014
_cell_length_c       7.528873658982662
_cell_angle_alpha    60.00000099686335
_cell_angle_beta     60.00000053155973
_cell_angle_gamma    59.99999935929439

_space_group_name_H-M_alt    "P 1"
_space_group_IT_number       1

loop_
  _space_group_symop_operation_xyz
  'x, y, z'

loop_
  _atom_site_type_symbol
  _atom_site_label
  _atom_site_symmetry_multiplicity
  _atom_site_fract_x
  _atom_site_fract_y
  _atom_site_fract_z
  _atom_site_occupancy
  Ru  Ru1       1.0  0.2499999324040139  0.2500000371119122  0.25000008112645244  1.0000
  Ru  Ru2       1.0  0.7500001567828718  0.7499998608192247  0.749999973680569  1.0000
  S   S1        1.0  0.999999995058699  0.9999999642119274  0.9999999871591883  1.0000
  I   I1        1.0  0.26837602098154284  0.26837616175279966  0.7316239336592072  1.0000
  I   I2        1.0  0.7316239382876294  0.7316239004781242  0.26837609598745926  1.0000
  I   I3        1.0  0.7316239220226058  0.2683760850663007  0.268376025844826  1.0000
  I   I4        1.0  0.26837602968708213  0.7316239446300113  0.731623956109672  1.0000
  I   I5        1.0  0.2683760229236314  0.7316239363578952  0.2683760479397216  1.0000
  I   I6        1.0  0.7316239830847407  0.2683761144859134  0.7316238962916864  1.0000
