data_image0
_chemical_formula_structural       Ru2SF6
_chemical_formula_sum              "Ru2 S1 F6"
_cell_length_a       5.326661481007823
_cell_length_b       5.326337131974907
_cell_length_c       5.326262039686941
_cell_angle_alpha    59.99609155189328
_cell_angle_beta     59.99783934063336
_cell_angle_gamma    59.99914361795869

_space_group_name_H-M_alt    "P 1"
_space_group_IT_number       1

loop_
  _space_group_symop_operation_xyz
  'x, y, z'

loop_
  _atom_site_type_symbol
  _atom_site_label
  _atom_site_symmetry_multiplicity
  _atom_site_fract_x
  _atom_site_fract_y
  _atom_site_fract_z
  _atom_site_occupancy
  Ru  Ru1       1.0  0.2503524446103183  0.2496479807955485  0.2504246452524435  1.0000
  Ru  Ru2       1.0  0.7497924751654044  0.7501284421639672  0.7505102114049078  1.0000
  S   S1        1.0  0.9999756259234582  2.942947497785444e-05  0.9998915742760407  1.0000
  F   F1        1.0  0.25517337493578773  0.25506954600934356  0.7446808873247914  1.0000
  F   F2        1.0  0.7447748795975565  0.7449906660907105  0.254951448813805  1.0000
  F   F3        1.0  0.7448599911993491  0.25515745097989945  0.25501173862630455  1.0000
  F   F4        1.0  0.25505899952697864  0.7449216231582678  0.7447686719807203  1.0000
  F   F5        1.0  0.2551148142529728  0.7449251777607214  0.2550058940793635  1.0000
  F   F6        1.0  0.7448489755993963  0.255158347872231  0.7447997499820417  1.0000
