data_image0
_chemical_formula_structural       Ru2SbSe6
_chemical_formula_sum              "Ru2 Sb1 Se6"
_cell_length_a       6.495210513441551
_cell_length_b       6.4952106110219985
_cell_length_c       6.49521051382798
_cell_angle_alpha    60.000001696090614
_cell_angle_beta     60.000000592005584
_cell_angle_gamma    60.00000054290097

_space_group_name_H-M_alt    "P 1"
_space_group_IT_number       1

loop_
  _space_group_symop_operation_xyz
  'x, y, z'

loop_
  _atom_site_type_symbol
  _atom_site_label
  _atom_site_symmetry_multiplicity
  _atom_site_fract_x
  _atom_site_fract_y
  _atom_site_fract_z
  _atom_site_occupancy
  Ru  Ru1       1.0  0.24999973105828757  0.2500002720085043  0.2500000608379141  1.0000
  Ru  Ru2       1.0  0.7500000108058177  0.749999797794903  0.749999819395174  1.0000
  Sb  Sb1       1.0  0.9999999965522952  0.9999999943431629  0.9999999614435834  1.0000
  Se  Se1       1.0  0.280998404450739  0.2809985072734353  0.7190015473606296  1.0000
  Se  Se2       1.0  0.7190016169211476  0.7190014173378331  0.28099861982171265  1.0000
  Se  Se3       1.0  0.719001580877272  0.28099847514566095  0.2809984641438367  1.0000
  Se  Se4       1.0  0.28099858228503893  0.7190014720929526  0.7190015869585101  1.0000
  Se  Se5       1.0  0.2809984364799243  0.7190014803115545  0.280998508056506  1.0000
  Se  Se6       1.0  0.719001643897296  0.280998581949404  0.7190014437890311  1.0000
