data_image0
_chemical_formula_structural       Ru2SbS6
_chemical_formula_sum              "Ru2 Sb1 S6"
_cell_length_a       6.330029956597801
_cell_length_b       6.330029601956098
_cell_length_c       6.330029582734841
_cell_angle_alpha    59.999999949874464
_cell_angle_beta     60.00000091940665
_cell_angle_gamma    59.99999807945827

_space_group_name_H-M_alt    "P 1"
_space_group_IT_number       1

loop_
  _space_group_symop_operation_xyz
  'x, y, z'

loop_
  _atom_site_type_symbol
  _atom_site_label
  _atom_site_symmetry_multiplicity
  _atom_site_fract_x
  _atom_site_fract_y
  _atom_site_fract_z
  _atom_site_occupancy
  Ru  Ru1       1.0  0.2499999894101374  0.24999999307715565  0.25000007107221406  1.0000
  Ru  Ru2       1.0  0.749999805952602  0.7500000392107959  0.7500002722647411  1.0000
  Sb  Sb1       1.0  0.9999999617842491  2.7087438335219407e-08  0.9999999486923844  1.0000
  S   S1        1.0  0.2711294910556189  0.27112949185654484  0.7288705214816281  1.0000
  S   S2        1.0  0.7288705898913984  0.7288704552994547  0.2711294846634447  1.0000
  S   S3        1.0  0.728870488619061  0.27112951455246476  0.27112943125205907  1.0000
  S   S4        1.0  0.2711294270624829  0.7288706493030405  0.7288704275335972  1.0000
  S   S5        1.0  0.2711297579231373  0.7288704973795526  0.27112924663267873  1.0000
  S   S6        1.0  0.7288704955290484  0.2711293317526076  0.7288705821934409  1.0000
