data_image0
_chemical_formula_structural       S2AsF6
_chemical_formula_sum              "S2 As1 F6"
_cell_length_a       4.767864061666242
_cell_length_b       4.767864101202289
_cell_length_c       4.767863805766076
_cell_angle_alpha    60.00000072201942
_cell_angle_beta     59.99999991598589
_cell_angle_gamma    60.000002795868355

_space_group_name_H-M_alt    "P 1"
_space_group_IT_number       1

loop_
  _space_group_symop_operation_xyz
  'x, y, z'

loop_
  _atom_site_type_symbol
  _atom_site_label
  _atom_site_symmetry_multiplicity
  _atom_site_fract_x
  _atom_site_fract_y
  _atom_site_fract_z
  _atom_site_occupancy
  S   S1        1.0  0.24999981731103427  0.2500000226216681  0.2500000943809086  1.0000
  S   S2        1.0  0.7500003518084407  0.7499999111713087  0.7499999073571426  1.0000
  As  As1       1.0  0.9999999837564584  5.137498375188122e-09  2.862415062257893e-08  1.0000
  F   F1        1.0  0.2754664252351511  0.27546627808775204  0.7245336593703344  1.0000
  F   F2        1.0  0.7245335063718629  0.7245337070802089  0.27546639348895124  1.0000
  F   F3        1.0  0.7245336019977905  0.2754663301891969  0.27546635779859807  1.0000
  F   F4        1.0  0.2754663258904073  0.7245336806662593  0.7245336295445889  1.0000
  F   F5        1.0  0.27546635233121836  0.7245336919763099  0.27546633080880495  1.0000
  F   F6        1.0  0.7245336095844477  0.2754663548416397  0.7245336592921565  1.0000
