data_image0
_chemical_formula_structural       S2AsBr6
_chemical_formula_sum              "S2 As1 Br6"
_cell_length_a       7.2500479177964
_cell_length_b       7.250047893427957
_cell_length_c       7.250047964733028
_cell_angle_alpha    59.99999798952768
_cell_angle_beta     59.99999881263807
_cell_angle_gamma    60.00000110277582

_space_group_name_H-M_alt    "P 1"
_space_group_IT_number       1

loop_
  _space_group_symop_operation_xyz
  'x, y, z'

loop_
  _atom_site_type_symbol
  _atom_site_label
  _atom_site_symmetry_multiplicity
  _atom_site_fract_x
  _atom_site_fract_y
  _atom_site_fract_z
  _atom_site_occupancy
  S   S1        1.0  0.25000043572979447  0.2500000225953037  0.2499998454879172  1.0000
  S   S2        1.0  0.7499997011992904  0.7500004039550024  0.7500001920637782  1.0000
  As  As1       1.0  0.9999999839931648  0.9999999763499108  0.9999999536220041  1.0000
  Br  Br1       1.0  0.25147790756401606  0.2514776978760879  0.748522162609519  1.0000
  Br  Br2       1.0  0.7485221119348799  0.7485221492470199  0.25147778613239163  1.0000
  Br  Br3       1.0  0.748522106585755  0.25147776400528493  0.251477823661206  1.0000
  Br  Br4       1.0  0.2514777970008077  0.7485221202822461  0.7485222210060101  1.0000
  Br  Br5       1.0  0.2514778465532993  0.7485221009207536  0.2514777825454165  1.0000
  Br  Br6       1.0  0.7485221110077303  0.2514777647845655  0.7485222278740573  1.0000
