data_image0
_chemical_formula_structural       S2AsCl6
_chemical_formula_sum              "S2 As1 Cl6"
_cell_length_a       6.63829248593189
_cell_length_b       6.6382925919837925
_cell_length_c       6.638292757596891
_cell_angle_alpha    59.99999913507559
_cell_angle_beta     59.9999996709788
_cell_angle_gamma    60.000000748578096

_space_group_name_H-M_alt    "P 1"
_space_group_IT_number       1

loop_
  _space_group_symop_operation_xyz
  'x, y, z'

loop_
  _atom_site_type_symbol
  _atom_site_label
  _atom_site_symmetry_multiplicity
  _atom_site_fract_x
  _atom_site_fract_y
  _atom_site_fract_z
  _atom_site_occupancy
  S   S1        1.0  0.2500000308077865  0.24999985187083756  0.2500000350938917  1.0000
  S   S2        1.0  0.7500001082470662  0.7499999725756669  0.7500000124139807  1.0000
  As  As1       1.0  0.9999999748035182  4.427927266905735e-08  1.3054775611946693e-08  1.0000
  Cl  Cl1       1.0  0.25031656854711054  0.25031662547783157  0.7496834067194982  1.0000
  Cl  Cl2       1.0  0.7496833823270438  0.7496833982253998  0.25031656143619896  1.0000
  Cl  Cl3       1.0  0.7496833740545964  0.25031660991763777  0.25031659993324057  1.0000
  Cl  Cl4       1.0  0.2503165852876949  0.7496834562198968  0.7496833909764018  1.0000
  Cl  Cl5       1.0  0.2503165783055734  0.7496834251685263  0.2503166012294991  1.0000
  Cl  Cl6       1.0  0.7496834023322294  0.25031661882937206  0.7496833720252688  1.0000
