data_image0
_chemical_formula_structural       S2AsF6
_chemical_formula_sum              "S2 As1 F6"
_cell_length_a       4.767944981320969
_cell_length_b       4.767945516766713
_cell_length_c       4.767945326725287
_cell_angle_alpha    60.00000056263857
_cell_angle_beta     60.000000293416925
_cell_angle_gamma    60.000000588009875

_space_group_name_H-M_alt    "P 1"
_space_group_IT_number       1

loop_
  _space_group_symop_operation_xyz
  'x, y, z'

loop_
  _atom_site_type_symbol
  _atom_site_label
  _atom_site_symmetry_multiplicity
  _atom_site_fract_x
  _atom_site_fract_y
  _atom_site_fract_z
  _atom_site_occupancy
  S   S1        1.0  0.25000015699434236  0.2499999329922505  0.25000005862770636  1.0000
  S   S2        1.0  0.7500001033520302  0.7500001971261367  0.7499999299165717  1.0000
  As  As1       1.0  0.9999999445672223  2.8255765722176217e-08  0.9999998709694197  1.0000
  F   F1        1.0  0.275471592308829  0.2754716501123881  0.7245283709184265  1.0000
  F   F2        1.0  0.7245283549917237  0.7245283438646084  0.27547170379504526  1.0000
  F   F3        1.0  0.7245284032229331  0.27547160250716995  0.27547160374013197  1.0000
  F   F4        1.0  0.27547156766189174  0.7245282553284293  0.7245284160929106  1.0000
  F   F5        1.0  0.275471567485894  0.7245282919962437  0.27547168194910143  1.0000
  F   F6        1.0  0.7245282923612751  0.27547167372499415  0.7245283667253604  1.0000
