data_image0
_chemical_formula_structural       S2AsCl6
_chemical_formula_sum              "S2 As1 Cl6"
_cell_length_a       6.638288691627656
_cell_length_b       6.638288539584704
_cell_length_c       6.638288538816869
_cell_angle_alpha    59.99999897629743
_cell_angle_beta     59.999999839365856
_cell_angle_gamma    59.999998965224734

_space_group_name_H-M_alt    "P 1"
_space_group_IT_number       1

loop_
  _space_group_symop_operation_xyz
  'x, y, z'

loop_
  _atom_site_type_symbol
  _atom_site_label
  _atom_site_symmetry_multiplicity
  _atom_site_fract_x
  _atom_site_fract_y
  _atom_site_fract_z
  _atom_site_occupancy
  S   S1        1.0  0.24999997378534142  0.250000059418872  0.24999999486752136  1.0000
  S   S2        1.0  0.7499999822038547  0.7500000583335102  0.7500000307107384  1.0000
  As  As1       1.0  1.085879398056846e-08  0.99999997786035  0.9999999694865311  1.0000
  Cl  Cl1       1.0  0.25031889809533703  0.2503187297727097  0.7496811403763516  1.0000
  Cl  Cl2       1.0  0.7496811083230631  0.7496812366920629  0.25031884072713223  1.0000
  Cl  Cl3       1.0  0.7496812425342356  0.2503188658297913  0.2503187430937689  1.0000
  Cl  Cl4       1.0  0.25031880605315077  0.7496810784953306  0.7496812551104696  1.0000
  Cl  Cl5       1.0  0.2503187742979021  0.7496811563708966  0.2503188767359375  1.0000
  Cl  Cl6       1.0  0.7496812073460628  0.25031883223352586  0.749681158409372  1.0000
