data_image0
_chemical_formula_structural       S2AsI6
_chemical_formula_sum              "S2 As1 I6"
_cell_length_a       7.699475788655664
_cell_length_b       7.699476461394867
_cell_length_c       7.699476595224697
_cell_angle_alpha    59.9999965740638
_cell_angle_beta     60.00000044732611
_cell_angle_gamma    60.000001452347455

_space_group_name_H-M_alt    "P 1"
_space_group_IT_number       1

loop_
  _space_group_symop_operation_xyz
  'x, y, z'

loop_
  _atom_site_type_symbol
  _atom_site_label
  _atom_site_symmetry_multiplicity
  _atom_site_fract_x
  _atom_site_fract_y
  _atom_site_fract_z
  _atom_site_occupancy
  S   S1        1.0  0.2500001541845016  0.24999976216498365  0.24999972593784325  1.0000
  S   S2        1.0  0.7500001797936288  0.7499999323134084  0.7499996456790083  1.0000
  As  As1       1.0  0.9999999836382794  7.158086609257015e-08  0.9999999957686377  1.0000
  I   I1        1.0  0.2600574532552384  0.26005757921835587  0.7399425098482407  1.0000
  I   I2        1.0  0.7399424289088182  0.739942503387363  0.2600576430135523  1.0000
  I   I3        1.0  0.7399425826361213  0.2600573863208935  0.26005750163056124  1.0000
  I   I4        1.0  0.26005731726718834  0.7399426835593336  0.7399427448347813  1.0000
  I   I5        1.0  0.2600574754147493  0.7399426202668093  0.2600575111477768  1.0000
  I   I6        1.0  0.7399424348955792  0.26005745438547634  0.7399427186365  1.0000
