data_image0
_chemical_formula_structural       S2AsBr6
_chemical_formula_sum              "S2 As1 Br6"
_cell_length_a       7.250679493941262
_cell_length_b       7.250679827298197
_cell_length_c       7.250679427140518
_cell_angle_alpha    60.000000085233914
_cell_angle_beta     60.00000193394718
_cell_angle_gamma    59.99999986702659

_space_group_name_H-M_alt    "P 1"
_space_group_IT_number       1

loop_
  _space_group_symop_operation_xyz
  'x, y, z'

loop_
  _atom_site_type_symbol
  _atom_site_label
  _atom_site_symmetry_multiplicity
  _atom_site_fract_x
  _atom_site_fract_y
  _atom_site_fract_z
  _atom_site_occupancy
  S   S1        1.0  0.2500001489767384  0.24999994102728876  0.2499998343066933  1.0000
  S   S2        1.0  0.7499999511309261  0.7500000730753046  0.7500000602650413  1.0000
  As  As1       1.0  0.9999999824488993  5.743092519583113e-08  2.005633856584006e-08  1.0000
  Br  Br1       1.0  0.25146396606389154  0.2514638930410464  0.7485361120059718  1.0000
  Br  Br2       1.0  0.748536029595713  0.748536114304967  0.2514639126438605  1.0000
  Br  Br3       1.0  0.7485360678758145  0.2514639008296306  0.25146393811061185  1.0000
  Br  Br4       1.0  0.2514638816967007  0.7485361014489498  0.7485360734994108  1.0000
  Br  Br5       1.0  0.25146392136791124  0.7485360535068984  0.25146389340486824  1.0000
  Br  Br6       1.0  0.748536047734662  0.2514638710710173  0.7485361459112777  1.0000
