data_image0
_chemical_formula_structural       S2AsI6
_chemical_formula_sum              "S2 As1 I6"
_cell_length_a       7.699554179953594
_cell_length_b       7.699554611434007
_cell_length_c       7.699554153359161
_cell_angle_alpha    60.0000003186272
_cell_angle_beta     60.000000578155614
_cell_angle_gamma    60.00000152023136

_space_group_name_H-M_alt    "P 1"
_space_group_IT_number       1

loop_
  _space_group_symop_operation_xyz
  'x, y, z'

loop_
  _atom_site_type_symbol
  _atom_site_label
  _atom_site_symmetry_multiplicity
  _atom_site_fract_x
  _atom_site_fract_y
  _atom_site_fract_z
  _atom_site_occupancy
  S   S1        1.0  0.24999996842087926  0.25000002234239715  0.24999997034032376  1.0000
  S   S2        1.0  0.7500000956827998  0.7499998331987356  0.7500001197489378  1.0000
  As  As1       1.0  1.313339429100573e-08  1.908803631026604e-08  1.7657473524824495e-08  1.0000
  I   I1        1.0  0.26005527779760973  0.26005535142047315  0.7399446657406196  1.0000
  I   I2        1.0  0.7399446555411529  0.7399447029543791  0.2600553071925415  1.0000
  I   I3        1.0  0.7399447302190261  0.2600553009004555  0.26005525497319687  1.0000
  I   I4        1.0  0.26005527451525634  0.7399447057543048  0.7399447035246982  1.0000
  I   I5        1.0  0.2600553054325827  0.7399447187498834  0.26005528714298853  1.0000
  I   I6        1.0  0.7399446807438865  0.26005534357831744  0.7399446696811866  1.0000
