data_image0
_chemical_formula_structural       S2BBr6
_chemical_formula_sum              "S2 B1 Br6"
_cell_length_a       7.2261943212411985
_cell_length_b       7.226194518048076
_cell_length_c       7.226194267771547
_cell_angle_alpha    60.00000634794531
_cell_angle_beta     60.00000507911031
_cell_angle_gamma    60.00000373902436

_space_group_name_H-M_alt    "P 1"
_space_group_IT_number       1

loop_
  _space_group_symop_operation_xyz
  'x, y, z'

loop_
  _atom_site_type_symbol
  _atom_site_label
  _atom_site_symmetry_multiplicity
  _atom_site_fract_x
  _atom_site_fract_y
  _atom_site_fract_z
  _atom_site_occupancy
  S   S1        1.0  0.24999991157282422  0.2500000187993484  0.2500000739968497  1.0000
  S   S2        1.0  0.7500003349308737  0.7499999767392355  0.7500000724221163  1.0000
  B   B1        1.0  4.477550327458886e-08  0.9999999423744781  1.0576571559120354e-08  1.0000
  Br  Br1       1.0  0.2235971595497927  0.22359725073751932  0.7764028314988591  1.0000
  Br  Br2       1.0  0.7764027606839106  0.7764027600548709  0.22359720057660146  1.0000
  Br  Br3       1.0  0.7764028034363389  0.22359722134044507  0.2235971626592794  1.0000
  Br  Br4       1.0  0.22359711293959747  0.7764027962314122  0.7764027198829213  1.0000
  Br  Br5       1.0  0.22359708819935808  0.7764028567773862  0.22359724561195443  1.0000
  Br  Br6       1.0  0.7764027929250293  0.22359716587907708  0.7764026741553857  1.0000
