data_image0
_chemical_formula_structural       S2BCl6
_chemical_formula_sum              "S2 B1 Cl6"
_cell_length_a       6.70223452691749
_cell_length_b       6.702235045920196
_cell_length_c       6.7022346232305665
_cell_angle_alpha    60.000004721513406
_cell_angle_beta     60.000000089790895
_cell_angle_gamma    60.0000058785632

_space_group_name_H-M_alt    "P 1"
_space_group_IT_number       1

loop_
  _space_group_symop_operation_xyz
  'x, y, z'

loop_
  _atom_site_type_symbol
  _atom_site_label
  _atom_site_symmetry_multiplicity
  _atom_site_fract_x
  _atom_site_fract_y
  _atom_site_fract_z
  _atom_site_occupancy
  S   S1        1.0  0.2499999029581381  0.24999986891672935  0.24999989904649766  1.0000
  S   S2        1.0  0.7500000938660595  0.7499999868426983  0.7499999964595582  1.0000
  B   B1        1.0  2.1877292499407296e-06  3.4719987408855e-07  0.9999971479893145  1.0000
  Cl  Cl1       1.0  0.21741619312727697  0.21741625114849783  0.78258388260546  1.0000
  Cl  Cl2       1.0  0.7825826898554489  0.7825828371164787  0.2174173429908937  1.0000
  Cl  Cl3       1.0  0.7825828080232574  0.21741714747444357  0.217417254222981  1.0000
  Cl  Cl4       1.0  0.2174160610055923  0.7825838174971844  0.7825839143322744  1.0000
  Cl  Cl5       1.0  0.21741674400506156  0.7825831750331765  0.21741695304595876  1.0000
  Cl  Cl6       1.0  0.7825833019311121  0.2174165747389435  0.7825836050146248  1.0000
