data_image0
_chemical_formula_structural       S2BF6
_chemical_formula_sum              "S2 B1 F6"
_cell_length_a       4.449953348793543
_cell_length_b       4.353725024169794
_cell_length_c       3.9453177578923553
_cell_angle_alpha    41.57442898673957
_cell_angle_beta     58.8343022690029
_cell_angle_gamma    51.82305458829317

_space_group_name_H-M_alt    "P 1"
_space_group_IT_number       1

loop_
  _space_group_symop_operation_xyz
  'x, y, z'

loop_
  _atom_site_type_symbol
  _atom_site_label
  _atom_site_symmetry_multiplicity
  _atom_site_fract_x
  _atom_site_fract_y
  _atom_site_fract_z
  _atom_site_occupancy
  S   S1        1.0  0.13443347540808914  0.22218259653629813  0.23363065636706581  1.0000
  S   S2        1.0  0.10108637816087129  0.49822552576523754  0.9012103666929718  1.0000
  B   B1        1.0  0.9594827159088586  0.9690791012659143  0.5858999154016136  1.0000
  F   F1        1.0  0.4566055580728141  0.035075551161828825  0.7918681341999911  1.0000
  F   F2        1.0  0.5856935735726985  0.2156519805719086  0.991963015368895  1.0000
  F   F3        1.0  0.7966174374362242  0.11490896987611818  0.45471490836572626  1.0000
  F   F4        1.0  0.6352176485883301  0.09629756304344239  0.6523242543713694  1.0000
  F   F5        1.0  0.8100470685630967  0.24342520532742928  0.36958781021680176  1.0000
  F   F6        1.0  0.1422816907341935  0.23089588352263335  0.22567146238996427  1.0000
