data_image0
_chemical_formula_structural       S2BI6
_chemical_formula_sum              "S2 B1 I6"
_cell_length_a       7.557971895413019
_cell_length_b       7.55796966771101
_cell_length_c       7.55796966578318
_cell_angle_alpha    59.99998929458693
_cell_angle_beta     60.00005387255075
_cell_angle_gamma    60.00000789541239

_space_group_name_H-M_alt    "P 1"
_space_group_IT_number       1

loop_
  _space_group_symop_operation_xyz
  'x, y, z'

loop_
  _atom_site_type_symbol
  _atom_site_label
  _atom_site_symmetry_multiplicity
  _atom_site_fract_x
  _atom_site_fract_y
  _atom_site_fract_z
  _atom_site_occupancy
  S   S1        1.0  0.2500006686419412  0.2499982722835558  0.2500026589528811  1.0000
  S   S2        1.0  0.7500007725210228  0.7499999974893925  0.7500012863656079  1.0000
  B   B1        1.0  2.253180426246778e-06  2.3010576205310586e-07  2.17726524754889e-06  1.0000
  I   I1        1.0  0.2329016298221328  0.23290177639633847  0.7670972091045275  1.0000
  I   I2        1.0  0.7670964506282875  0.7670983941874617  0.23290135738008447  1.0000
  I   I3        1.0  0.7670974860615378  0.23290184715967044  0.23290140276639643  1.0000
  I   I4        1.0  0.232902306060219  0.7670980009510264  0.7670967046326811  1.0000
  I   I5        1.0  0.232899743775657  0.7671003003801583  0.23289926071330033  1.0000
  I   I6        1.0  0.7670986608828657  0.2329011892650967  0.7670980025257101  1.0000
