data_image0
_chemical_formula_structural       S2CBr6
_chemical_formula_sum              "S2 C1 Br6"
_cell_length_a       7.103512866643771
_cell_length_b       7.103512473998182
_cell_length_c       7.103512728744138
_cell_angle_alpha    59.99999723427
_cell_angle_beta     59.99999672687005
_cell_angle_gamma    59.999999010921584

_space_group_name_H-M_alt    "P 1"
_space_group_IT_number       1

loop_
  _space_group_symop_operation_xyz
  'x, y, z'

loop_
  _atom_site_type_symbol
  _atom_site_label
  _atom_site_symmetry_multiplicity
  _atom_site_fract_x
  _atom_site_fract_y
  _atom_site_fract_z
  _atom_site_occupancy
  S   S1        1.0  0.24999998748416122  0.25000019463754236  0.2500000274554563  1.0000
  S   S2        1.0  0.7500000334776771  0.7499999563257177  0.7500001762314299  1.0000
  C   C1        1.0  6.634578734111149e-09  0.999999936206825  4.265684084526733e-08  1.0000
  Br  Br1       1.0  0.2309251709096104  0.2309252471346149  0.7690747083619727  1.0000
  Br  Br2       1.0  0.769074822421062  0.7690747331387993  0.23092509473267536  1.0000
  Br  Br3       1.0  0.7690747331928611  0.23092518169283358  0.23092523647653743  1.0000
  Br  Br4       1.0  0.23092523432646236  0.7690747882357405  0.7690747423646784  1.0000
  Br  Br5       1.0  0.2309252933906005  0.769074708874711  0.23092510233633765  1.0000
  Br  Br6       1.0  0.7690747306449298  0.23092525243316486  0.7690748581881391  1.0000
