data_image0
_chemical_formula_structural       S2CCl6
_chemical_formula_sum              "S2 C1 Cl6"
_cell_length_a       6.594305816745494
_cell_length_b       6.594305914913755
_cell_length_c       6.594305573479897
_cell_angle_alpha    60.0000007482079
_cell_angle_beta     60.000004379692236
_cell_angle_gamma    60.000003888688894

_space_group_name_H-M_alt    "P 1"
_space_group_IT_number       1

loop_
  _space_group_symop_operation_xyz
  'x, y, z'

loop_
  _atom_site_type_symbol
  _atom_site_label
  _atom_site_symmetry_multiplicity
  _atom_site_fract_x
  _atom_site_fract_y
  _atom_site_fract_z
  _atom_site_occupancy
  S   S1        1.0  0.2500000611212993  0.24999983460400363  0.24999986873751234  1.0000
  S   S2        1.0  0.7500000270918458  0.7499997099696757  0.7499999103415249  1.0000
  C   C1        1.0  6.46480484404405e-07  0.9999986961920283  0.9999994627651632  1.0000
  Cl  Cl1       1.0  0.2327624674221562  0.23276243698803864  0.7672377042905331  1.0000
  Cl  Cl2       1.0  0.7672377525993174  0.7672380622256822  0.2327621988066731  1.0000
  Cl  Cl3       1.0  0.7672372694614076  0.23276280207675903  0.23276269197694496  1.0000
  Cl  Cl4       1.0  0.23276183369507208  0.7672382320325091  0.7672381450839537  1.0000
  Cl  Cl5       1.0  0.23276219253856006  0.7672377873676025  0.23276230410868107  1.0000
  Cl  Cl6       1.0  0.7672377289414982  0.23276242025372545  0.7672376711358183  1.0000
