data_image0
_chemical_formula_structural       S2CF6
_chemical_formula_sum              "S2 C1 F6"
_cell_length_a       4.29879116111893
_cell_length_b       3.794404493184544
_cell_length_c       4.384180324122373
_cell_angle_alpha    57.75673809070187
_cell_angle_beta     43.93885733415971
_cell_angle_gamma    70.64662095633649

_space_group_name_H-M_alt    "P 1"
_space_group_IT_number       1

loop_
  _space_group_symop_operation_xyz
  'x, y, z'

loop_
  _atom_site_type_symbol
  _atom_site_label
  _atom_site_symmetry_multiplicity
  _atom_site_fract_x
  _atom_site_fract_y
  _atom_site_fract_z
  _atom_site_occupancy
  S   S1        1.0  0.5901088501263677  0.529424076402316  0.40166573089071284  1.0000
  S   S2        1.0  0.08688843676045055  0.8108327987981491  0.43092974359762687  1.0000
  C   C1        1.0  0.6315627754492894  0.0825022652144778  0.9575854863838322  1.0000
  F   F1        1.0  0.07503899477745415  0.804280520271728  0.44012163251369074  1.0000
  F   F2        1.0  0.23560473478282562  0.005880413885698044  0.3161541280301855  1.0000
  F   F3        1.0  0.5970761958942348  0.5287954308883062  0.3978164022484672  1.0000
  F   F4        1.0  0.32842633311234226  0.23741043040962603  0.018632871515532612  1.0000
  F   F5        1.0  0.3508887964790236  0.24295255902639765  0.04413909123224635  1.0000
  F   F6        1.0  0.20472685935107204  0.18919951703510532  0.9354004224756788  1.0000
