data_image0
_chemical_formula_structural       S2CI6
_chemical_formula_sum              "S2 C1 I6"
_cell_length_a       7.424768906908931
_cell_length_b       7.4247680634218005
_cell_length_c       7.424768241942836
_cell_angle_alpha    60.00000274336815
_cell_angle_beta     60.00000346944856
_cell_angle_gamma    59.99999992023984

_space_group_name_H-M_alt    "P 1"
_space_group_IT_number       1

loop_
  _space_group_symop_operation_xyz
  'x, y, z'

loop_
  _atom_site_type_symbol
  _atom_site_label
  _atom_site_symmetry_multiplicity
  _atom_site_fract_x
  _atom_site_fract_y
  _atom_site_fract_z
  _atom_site_occupancy
  S   S1        1.0  0.2500000787731198  0.2499999901995631  0.24999971039191785  1.0000
  S   S2        1.0  0.7500000764462984  0.7500000629729396  0.7500000861660368  1.0000
  C   C1        1.0  0.9999999612628871  0.9999999109248587  0.9999999171001954  1.0000
  I   I1        1.0  0.2577583029457269  0.25775830019731094  0.7422416898854496  1.0000
  I   I2        1.0  0.7422418029627801  0.7422417562742719  0.25775816065581864  1.0000
  I   I3        1.0  0.7422415978713965  0.25775837424240267  0.25775830604820177  1.0000
  I   I4        1.0  0.2577581391687666  0.7422418603794626  0.7422419092207775  1.0000
  I   I5        1.0  0.25775826689183456  0.7422415630995793  0.25775841380075654  1.0000
  I   I6        1.0  0.7422417707497176  0.25775821295028745  0.7422417969492265  1.0000
