data_image0
_chemical_formula_structural       S2CoI6
_chemical_formula_sum              "S2 Co1 I6"
_cell_length_a       7.467725502469387
_cell_length_b       7.467726710081427
_cell_length_c       7.4677260127646825
_cell_angle_alpha    60.00000680144555
_cell_angle_beta     59.99999971284373
_cell_angle_gamma    60.0000087429835

_space_group_name_H-M_alt    "P 1"
_space_group_IT_number       1

loop_
  _space_group_symop_operation_xyz
  'x, y, z'

loop_
  _atom_site_type_symbol
  _atom_site_label
  _atom_site_symmetry_multiplicity
  _atom_site_fract_x
  _atom_site_fract_y
  _atom_site_fract_z
  _atom_site_occupancy
  S   S1        1.0  0.24999990542132008  0.25000021426294683  0.2499999031775498  1.0000
  S   S2        1.0  0.7500001187006354  0.749999458672543  0.75000018607456  1.0000
  Co  Co1       1.0  6.091222826757011e-09  4.9201498660505375e-09  0.999999959677825  1.0000
  I   I1        1.0  0.24728652959106606  0.2472865403146518  0.7527134686075315  1.0000
  I   I2        1.0  0.752713480826143  0.7527135541137668  0.24728651584358272  1.0000
  I   I3        1.0  0.7527135519067956  0.24728662584419261  0.24728632952041232  1.0000
  I   I4        1.0  0.24728642547629237  0.7527134981051292  0.752713623209918  1.0000
  I   I5        1.0  0.2472863878967556  0.7527136085262368  0.2472864428970876  1.0000
  I   I6        1.0  0.752713584129384  0.24728649902258368  0.7527135715976048  1.0000
