data_image0
_chemical_formula_structural       S2CoF6
_chemical_formula_sum              "S2 Co1 F6"
_cell_length_a       4.5835413805376914
_cell_length_b       3.0318188294984054
_cell_length_c       4.488278662902748
_cell_angle_alpha    107.49159829704844
_cell_angle_beta     90.9784958731833
_cell_angle_gamma    108.23574848836776

_space_group_name_H-M_alt    "P 1"
_space_group_IT_number       1

loop_
  _space_group_symop_operation_xyz
  'x, y, z'

loop_
  _atom_site_type_symbol
  _atom_site_label
  _atom_site_symmetry_multiplicity
  _atom_site_fract_x
  _atom_site_fract_y
  _atom_site_fract_z
  _atom_site_occupancy
  S   S1        1.0  0.10675529207179665  0.7266628786526813  0.6416150229100944  1.0000
  S   S2        1.0  0.2167057335495314  0.3011028723652118  0.43528477036840196  1.0000
  Co  Co1       1.0  0.8782938346402387  0.985387341690661  0.4536243470705429  1.0000
  F   F1        1.0  0.45106113894933764  0.2901357109572332  0.14493710792308256  1.0000
  F   F2        1.0  0.5048137227565391  0.49558233345042596  0.22762995382086437  1.0000
  F   F3        1.0  0.15342847342874266  0.35876312726747317  0.7063347530927343  1.0000
  F   F4        1.0  0.8439643483192693  0.9513044996578762  0.4281541710319048  1.0000
  F   F5        1.0  0.10207909300996006  0.34342401988464216  0.7163291316989271  1.0000
  F   F6        1.0  0.2220251706150804  0.30277190558878825  0.43153300255942306  1.0000
