data_image0
_chemical_formula_structural       S2CoCl6
_chemical_formula_sum              "S2 Co1 Cl6"
_cell_length_a       6.68202735172887
_cell_length_b       6.682027874669171
_cell_length_c       6.682027755760581
_cell_angle_alpha    60.0000020581532
_cell_angle_beta     59.999999462343204
_cell_angle_gamma    60.00000175629686

_space_group_name_H-M_alt    "P 1"
_space_group_IT_number       1

loop_
  _space_group_symop_operation_xyz
  'x, y, z'

loop_
  _atom_site_type_symbol
  _atom_site_label
  _atom_site_symmetry_multiplicity
  _atom_site_fract_x
  _atom_site_fract_y
  _atom_site_fract_z
  _atom_site_occupancy
  S   S1        1.0  0.250000093375782  0.24999991220822035  0.2500000285062746  1.0000
  S   S2        1.0  0.7499998797152767  0.7500001032034469  0.7499999183596059  1.0000
  Co  Co1       1.0  2.5306997568457065e-09  1.832893970536067e-08  2.8480524710810183e-08  1.0000
  Cl  Cl1       1.0  0.2356069513515266  0.2356068855003492  0.7643931113740801  1.0000
  Cl  Cl2       1.0  0.7643930642434569  0.7643931060836973  0.2356068845191651  1.0000
  Cl  Cl3       1.0  0.7643930924967236  0.23560690535473955  0.2356069086783172  1.0000
  Cl  Cl4       1.0  0.235606931109657  0.7643931192213976  0.7643930726993912  1.0000
  Cl  Cl5       1.0  0.23560688942672253  0.7643930601810317  0.23560695527628575  1.0000
  Cl  Cl6       1.0  0.7643930787077636  0.23560691307407589  0.7643931034427105  1.0000
