data_image0
_chemical_formula_structural       S2CoBr6
_chemical_formula_sum              "S2 Co1 Br6"
_cell_length_a       7.0836269777266
_cell_length_b       7.083627732581508
_cell_length_c       7.08362743450698
_cell_angle_alpha    60.00000206962032
_cell_angle_beta     60.000001967743266
_cell_angle_gamma    60.000000300506564

_space_group_name_H-M_alt    "P 1"
_space_group_IT_number       1

loop_
  _space_group_symop_operation_xyz
  'x, y, z'

loop_
  _atom_site_type_symbol
  _atom_site_label
  _atom_site_symmetry_multiplicity
  _atom_site_fract_x
  _atom_site_fract_y
  _atom_site_fract_z
  _atom_site_occupancy
  S   S1        1.0  0.2499999281628754  0.2499999863200655  0.2500000055883323  1.0000
  S   S2        1.0  0.7500000236355786  0.7499999555022279  0.7500001219700749  1.0000
  Co  Co1       1.0  0.9999999785120788  1.55608183446097e-08  0.9999999366133645  1.0000
  Br  Br1       1.0  0.2415472544497733  0.24154731396367587  0.7584527295269685  1.0000
  Br  Br2       1.0  0.7584527624028148  0.7584527212235188  0.24154724400150057  1.0000
  Br  Br3       1.0  0.758452776723935  0.2415472320003591  0.24154727968653034  1.0000
  Br  Br4       1.0  0.2415472358146856  0.7584528014578562  0.7584526869814696  1.0000
  Br  Br5       1.0  0.24154732054783135  0.7584527276929387  0.24154721549795216  1.0000
  Br  Br6       1.0  0.7584527268331017  0.24154724525098645  0.7584527682411555  1.0000
