data_image0
_chemical_formula_structural       S2CrF6
_chemical_formula_sum              "S2 Cr1 F6"
_cell_length_a       4.781885416059283
_cell_length_b       6.851561594653956
_cell_length_c       5.2900613446485
_cell_angle_alpha    24.011984520917824
_cell_angle_beta     24.13707087637774
_cell_angle_gamma    29.734096339476576

_space_group_name_H-M_alt    "P 1"
_space_group_IT_number       1

loop_
  _space_group_symop_operation_xyz
  'x, y, z'

loop_
  _atom_site_type_symbol
  _atom_site_label
  _atom_site_symmetry_multiplicity
  _atom_site_fract_x
  _atom_site_fract_y
  _atom_site_fract_z
  _atom_site_occupancy
  S   S1        1.0  0.35621178008428794  0.440595152161486  0.4100510469080325  1.0000
  S   S2        1.0  0.9808079874697825  0.8148375190810051  0.30242038243544955  1.0000
  Cr  Cr1       1.0  0.38010433100858704  0.23058913766116945  0.5717311396239948  1.0000
  F   F1        1.0  0.6075104110563317  0.6407434378968422  0.9713422289415863  1.0000
  F   F2        1.0  0.35742900650279785  0.5457516107187412  0.23336100463500306  1.0000
  F   F3        1.0  0.3102511148187379  0.12128779560429571  0.18470620803754548  1.0000
  F   F4        1.0  0.25225262571541146  0.9827495414117126  0.5866089707005391  1.0000
  F   F5        1.0  0.34637091936786013  0.48457741692538775  0.39052904014174106  1.0000
  F   F6        1.0  0.05332540342891412  0.508226911054704  0.6305610545087513  1.0000
