data_image0
_chemical_formula_structural       S2CrI6
_chemical_formula_sum              "S2 Cr1 I6"
_cell_length_a       7.601678243756054
_cell_length_b       7.601677944747616
_cell_length_c       7.601678566251031
_cell_angle_alpha    59.99999999762435
_cell_angle_beta     59.999997667075185
_cell_angle_gamma    60.0000002839316

_space_group_name_H-M_alt    "P 1"
_space_group_IT_number       1

loop_
  _space_group_symop_operation_xyz
  'x, y, z'

loop_
  _atom_site_type_symbol
  _atom_site_label
  _atom_site_symmetry_multiplicity
  _atom_site_fract_x
  _atom_site_fract_y
  _atom_site_fract_z
  _atom_site_occupancy
  S   S1        1.0  0.24999948777756723  0.25000058997260205  0.2500000390463825  1.0000
  S   S2        1.0  0.7500003774667817  0.7500008306169861  0.7499997586413798  1.0000
  Cr  Cr1       1.0  0.9999999945847821  0.9999999387762732  2.0164481865230562e-08  1.0000
  I   I1        1.0  0.24343301373779416  0.24343284298827786  0.756567060920847  1.0000
  I   I2        1.0  0.7565672455754016  0.756566684499236  0.2434329719234069  1.0000
  I   I3        1.0  0.7565670560001193  0.2434327484858327  0.2434331550923143  1.0000
  I   I4        1.0  0.2434327809815892  0.7565668611703594  0.7565670281008648  1.0000
  I   I5        1.0  0.24343300034569823  0.7565668645943116  0.24343299819076425  1.0000
  I   I6        1.0  0.7565670559733672  0.24343263389248107  0.7565669783205569  1.0000
