data_image0
_chemical_formula_structural       S2CrCl6
_chemical_formula_sum              "S2 Cr1 Cl6"
_cell_length_a       6.692529033519913
_cell_length_b       6.692528994957311
_cell_length_c       6.692528886228461
_cell_angle_alpha    60.00000132729162
_cell_angle_beta     60.00000140493092
_cell_angle_gamma    60.000003059260244

_space_group_name_H-M_alt    "P 1"
_space_group_IT_number       1

loop_
  _space_group_symop_operation_xyz
  'x, y, z'

loop_
  _atom_site_type_symbol
  _atom_site_label
  _atom_site_symmetry_multiplicity
  _atom_site_fract_x
  _atom_site_fract_y
  _atom_site_fract_z
  _atom_site_occupancy
  S   S1        1.0  0.24999996338396613  0.2499999731145471  0.2500000445161132  1.0000
  S   S2        1.0  0.7499999479408576  0.7500000254846858  0.7499999723905537  1.0000
  Cr  Cr1       1.0  1.3088193528309955e-08  7.320072130161803e-09  0.999999964394408  1.0000
  Cl  Cl1       1.0  0.23647496061149048  0.236474949852923  0.7635250389874656  1.0000
  Cl  Cl2       1.0  0.7635250930299308  0.763525004825882  0.23647495860518655  1.0000
  Cl  Cl3       1.0  0.763525007145231  0.23647494884084563  0.23647502262001155  1.0000
  Cl  Cl4       1.0  0.23647496749451866  0.7635250772086591  0.7635250116606034  1.0000
  Cl  Cl5       1.0  0.23647498379289586  0.763525084817595  0.2364749264142802  1.0000
  Cl  Cl6       1.0  0.7635250536743896  0.2364749339118394  0.7635250562053465  1.0000
