data_image0
_chemical_formula_structural       S2CrBr6
_chemical_formula_sum              "S2 Cr1 Br6"
_cell_length_a       7.1150634368258325
_cell_length_b       7.115063654017274
_cell_length_c       7.115063622440266
_cell_angle_alpha    59.99999672950327
_cell_angle_beta     59.99999683074678
_cell_angle_gamma    59.99999787973099

_space_group_name_H-M_alt    "P 1"
_space_group_IT_number       1

loop_
  _space_group_symop_operation_xyz
  'x, y, z'

loop_
  _atom_site_type_symbol
  _atom_site_label
  _atom_site_symmetry_multiplicity
  _atom_site_fract_x
  _atom_site_fract_y
  _atom_site_fract_z
  _atom_site_occupancy
  S   S1        1.0  0.24999985134751523  0.24999994036921255  0.2500000734795853  1.0000
  S   S2        1.0  0.7500000515655142  0.7499998865185795  0.7500000851405464  1.0000
  Cr  Cr1       1.0  1.840874211746321e-08  2.7541451255841173e-08  5.134278474152339e-09  1.0000
  Br  Br1       1.0  0.2390256079409155  0.23902558451687342  0.7609744001161816  1.0000
  Br  Br2       1.0  0.760974391850733  0.7609744386037657  0.23902559648805358  1.0000
  Br  Br3       1.0  0.7609744371191317  0.23902565158892608  0.23902552319290007  1.0000
  Br  Br4       1.0  0.2390256019820134  0.7609744094012102  0.7609744095233981  1.0000
  Br  Br5       1.0  0.23902560964194325  0.7609744422858978  0.2390255779590385  1.0000
  Br  Br6       1.0  0.7609744317543226  0.23902561181887502  0.7609743668906626  1.0000
