data_image0
_chemical_formula_structural       S2FeCl6
_chemical_formula_sum              "S2 Fe1 Cl6"
_cell_length_a       6.799289623027036
_cell_length_b       6.799289231285348
_cell_length_c       6.7992892948968935
_cell_angle_alpha    59.99999901139628
_cell_angle_beta     60.00000083789321
_cell_angle_gamma    59.9999998746666

_space_group_name_H-M_alt    "P 1"
_space_group_IT_number       1

loop_
  _space_group_symop_operation_xyz
  'x, y, z'

loop_
  _atom_site_type_symbol
  _atom_site_label
  _atom_site_symmetry_multiplicity
  _atom_site_fract_x
  _atom_site_fract_y
  _atom_site_fract_z
  _atom_site_occupancy
  S   S1        1.0  0.2500001346221394  0.24999977006265278  0.25000013944411753  1.0000
  S   S2        1.0  0.7499997887343962  0.7500002792785834  0.7500002354700819  1.0000
  Fe  Fe1       1.0  3.207870317471838e-08  0.9999999801858799  0.9999999526869338  1.0000
  Cl  Cl1       1.0  0.23066092234481056  0.2306607748381544  0.7693390981769643  1.0000
  Cl  Cl2       1.0  0.7693391901904301  0.7693391502145112  0.23066072953248476  1.0000
  Cl  Cl3       1.0  0.7693391480545054  0.23066080677602135  0.2306608293977089  1.0000
  Cl  Cl4       1.0  0.23066083716074454  0.7693392047382603  0.7693390393313149  1.0000
  Cl  Cl5       1.0  0.2306608341323452  0.7693391803221421  0.23066080432117592  1.0000
  Cl  Cl6       1.0  0.7693391228981449  0.23066085460882702  0.7693391565071432  1.0000
