data_image0
_chemical_formula_structural       S2FeF6
_chemical_formula_sum              "S2 Fe1 F6"
_cell_length_a       4.825923226745528
_cell_length_b       4.825922806976062
_cell_length_c       4.825923103357516
_cell_angle_alpha    60.000000139860845
_cell_angle_beta     60.00000000585543
_cell_angle_gamma    59.99999929179807

_space_group_name_H-M_alt    "P 1"
_space_group_IT_number       1

loop_
  _space_group_symop_operation_xyz
  'x, y, z'

loop_
  _atom_site_type_symbol
  _atom_site_label
  _atom_site_symmetry_multiplicity
  _atom_site_fract_x
  _atom_site_fract_y
  _atom_site_fract_z
  _atom_site_occupancy
  S   S1        1.0  0.2500000157868422  0.24999999007392618  0.24999998266034565  1.0000
  S   S2        1.0  0.7499999545758337  0.7500000260543921  0.7500000638477721  1.0000
  Fe  Fe1       1.0  3.2797048573582304e-08  0.9999999949243075  0.9999999571293278  1.0000
  F   F1        1.0  0.2751655059601688  0.2751654701610081  0.7248344932912325  1.0000
  F   F2        1.0  0.7248344763909316  0.7248345028239263  0.2751654859086673  1.0000
  F   F3        1.0  0.7248345424086573  0.27516544697232004  0.2751655061823485  1.0000
  F   F4        1.0  0.2751655117235586  0.7248345260126178  0.7248345428062551  1.0000
  F   F5        1.0  0.2751654794293248  0.7248345338191874  0.27516546718372065  1.0000
  F   F6        1.0  0.7248345314641771  0.2751654899226668  0.7248344723665191  1.0000
