data_image0
_chemical_formula_structural       S2FeI6
_chemical_formula_sum              "S2 Fe1 I6"
_cell_length_a       7.650995942229225
_cell_length_b       7.650996054396063
_cell_length_c       7.650996282841981
_cell_angle_alpha    59.99999717944493
_cell_angle_beta     59.99999838618449
_cell_angle_gamma    59.99999805434769

_space_group_name_H-M_alt    "P 1"
_space_group_IT_number       1

loop_
  _space_group_symop_operation_xyz
  'x, y, z'

loop_
  _atom_site_type_symbol
  _atom_site_label
  _atom_site_symmetry_multiplicity
  _atom_site_fract_x
  _atom_site_fract_y
  _atom_site_fract_z
  _atom_site_occupancy
  S   S1        1.0  0.2500000245428089  0.25000006641314193  0.2499999741330273  1.0000
  S   S2        1.0  0.750000235713654  0.749999930310854  0.749999903934695  1.0000
  Fe  Fe1       1.0  0.9999999634283258  0.999999991996174  5.296499023490217e-09  1.0000
  I   I1        1.0  0.2219442096727719  0.2219442608305658  0.7780557741360028  1.0000
  I   I2        1.0  0.7780557404777214  0.7780557470987883  0.22194429259260495  1.0000
  I   I3        1.0  0.7780556973612778  0.22194425684841024  0.22194425027838907  1.0000
  I   I4        1.0  0.2219441912618485  0.7780557590847721  0.7780557804750604  1.0000
  I   I5        1.0  0.2219441704641663  0.7780557559359609  0.2219442871347088  1.0000
  I   I6        1.0  0.7780557706310305  0.22194425199339457  0.7780557200775996  1.0000
