data_image0
_chemical_formula_structural       S2FeBr6
_chemical_formula_sum              "S2 Fe1 Br6"
_cell_length_a       7.503058018037849
_cell_length_b       7.503058970942202
_cell_length_c       7.503059011926666
_cell_angle_alpha    60.000000784498084
_cell_angle_beta     59.99999879605711
_cell_angle_gamma    60.00000224817808

_space_group_name_H-M_alt    "P 1"
_space_group_IT_number       1

loop_
  _space_group_symop_operation_xyz
  'x, y, z'

loop_
  _atom_site_type_symbol
  _atom_site_label
  _atom_site_symmetry_multiplicity
  _atom_site_fract_x
  _atom_site_fract_y
  _atom_site_fract_z
  _atom_site_occupancy
  S   S1        1.0  0.25000001109734593  0.25000001581675096  0.25000016017482196  1.0000
  S   S2        1.0  0.7500000236554705  0.7499999609369036  0.7499999208473058  1.0000
  Fe  Fe1       1.0  0.9999998976649166  6.692542157899116e-08  0.9999999897162446  1.0000
  Br  Br1       1.0  0.21138855880164562  0.21138858496816806  0.7886114051558836  1.0000
  Br  Br2       1.0  0.7886113956898054  0.7886114848281457  0.2113886148312171  1.0000
  Br  Br3       1.0  0.7886114589651623  0.21138852948899592  0.21138850814181015  1.0000
  Br  Br4       1.0  0.21138857134142128  0.7886114652202597  0.7886113861990202  1.0000
  Br  Br5       1.0  0.2113886343586332  0.7886113776904847  0.2113885333391338  1.0000
  Br  Br6       1.0  0.7886114394606673  0.21138851418214755  0.7886114786277725  1.0000
