data_image0
_chemical_formula_structural       S2GaI6
_chemical_formula_sum              "S2 Ga1 I6"
_cell_length_a       7.649201927353103
_cell_length_b       7.649202371552379
_cell_length_c       7.649201456680142
_cell_angle_alpha    60.000000942835456
_cell_angle_beta     59.99999717757598
_cell_angle_gamma    60.0000005005611

_space_group_name_H-M_alt    "P 1"
_space_group_IT_number       1

loop_
  _space_group_symop_operation_xyz
  'x, y, z'

loop_
  _atom_site_type_symbol
  _atom_site_label
  _atom_site_symmetry_multiplicity
  _atom_site_fract_x
  _atom_site_fract_y
  _atom_site_fract_z
  _atom_site_occupancy
  S   S1        1.0  0.25000020202828765  0.250000053770881  0.24999971756128953  1.0000
  S   S2        1.0  0.7500005086275667  0.7499996249305341  0.7500000056072501  1.0000
  Ga  Ga1       1.0  0.9999999691676065  3.362395304270033e-08  0.9999999803016565  1.0000
  I   I1        1.0  0.2585087682394474  0.25850902253695535  0.7414911066626257  1.0000
  I   I2        1.0  0.7414909703368244  0.7414911268998002  0.25850893385168633  1.0000
  I   I3        1.0  0.7414909734888555  0.25850899500975455  0.25850901562346656  1.0000
  I   I4        1.0  0.25850886537573753  0.7414910935836565  0.7414910809932633  1.0000
  I   I5        1.0  0.25850879422244405  0.7414910836053038  0.25850905723215023  1.0000
  I   I6        1.0  0.7414909476948071  0.25850896976301463  0.7414911002414971  1.0000
