data_image0
_chemical_formula_structural       S2GaCl6
_chemical_formula_sum              "S2 Ga1 Cl6"
_cell_length_a       6.615026125001125
_cell_length_b       6.6150262097611146
_cell_length_c       6.615026594599322
_cell_angle_alpha    59.99999918825411
_cell_angle_beta     59.999999325294965
_cell_angle_gamma    60.00000064220888

_space_group_name_H-M_alt    "P 1"
_space_group_IT_number       1

loop_
  _space_group_symop_operation_xyz
  'x, y, z'

loop_
  _atom_site_type_symbol
  _atom_site_label
  _atom_site_symmetry_multiplicity
  _atom_site_fract_x
  _atom_site_fract_y
  _atom_site_fract_z
  _atom_site_occupancy
  S   S1        1.0  0.2500000691296413  0.24999988058598255  0.2500000156977153  1.0000
  S   S2        1.0  0.749999954767831  0.7500000435245129  0.7499999105403116  1.0000
  Ga  Ga1       1.0  0.9999999927877716  4.2583553384368906e-08  4.989983548535309e-09  1.0000
  Cl  Cl1       1.0  0.24936214425512737  0.24936207466825405  0.75063786637152  1.0000
  Cl  Cl2       1.0  0.7506378283491009  0.750637945718101  0.24936214470658907  1.0000
  Cl  Cl3       1.0  0.750637944859259  0.24936211551148058  0.24936208284433017  1.0000
  Cl  Cl4       1.0  0.24936209263063222  0.7506379196865463  0.750637918619307  1.0000
  Cl  Cl5       1.0  0.24936212375451866  0.7506378795044321  0.24936206845915482  1.0000
  Cl  Cl6       1.0  0.7506378503139557  0.24936209459545222  0.750637983170583  1.0000
