data_image0
_chemical_formula_structural       S2GaF6
_chemical_formula_sum              "S2 Ga1 F6"
_cell_length_a       4.757112240285995
_cell_length_b       4.757112266179484
_cell_length_c       4.757112459131426
_cell_angle_alpha    59.99999840405956
_cell_angle_beta     59.99999935432555
_cell_angle_gamma    59.99999856424608

_space_group_name_H-M_alt    "P 1"
_space_group_IT_number       1

loop_
  _space_group_symop_operation_xyz
  'x, y, z'

loop_
  _atom_site_type_symbol
  _atom_site_label
  _atom_site_symmetry_multiplicity
  _atom_site_fract_x
  _atom_site_fract_y
  _atom_site_fract_z
  _atom_site_occupancy
  S   S1        1.0  0.24999998882897695  0.25000002946165645  0.249999994223127  1.0000
  S   S2        1.0  0.7499999939741175  0.7499999622317562  0.7499999626325818  1.0000
  Ga  Ga1       1.0  0.9999999839889653  3.346921978219794e-08  2.070052476112262e-08  1.0000
  F   F1        1.0  0.2871084819678845  0.28710844176582967  0.7128915669926806  1.0000
  F   F2        1.0  0.712891463617841  0.7128914649672554  0.28710857077246205  1.0000
  F   F3        1.0  0.7128915300237322  0.28710847613433355  0.2871085006611829  1.0000
  F   F4        1.0  0.28710854442833245  0.7128915464537425  0.7128914853136777  1.0000
  F   F5        1.0  0.2871085065443077  0.7128915104720054  0.28710846216522834  1.0000
  F   F6        1.0  0.7128915075193871  0.2871084966687394  0.7128914839492078  1.0000
