data_image0
_chemical_formula_structural       S2GaBr6
_chemical_formula_sum              "S2 Ga1 Br6"
_cell_length_a       7.1215999804965175
_cell_length_b       7.121600674255339
_cell_length_c       7.121600752050087
_cell_angle_alpha    59.999998658311014
_cell_angle_beta     60.0000001234437
_cell_angle_gamma    60.000000576055726

_space_group_name_H-M_alt    "P 1"
_space_group_IT_number       1

loop_
  _space_group_symop_operation_xyz
  'x, y, z'

loop_
  _atom_site_type_symbol
  _atom_site_label
  _atom_site_symmetry_multiplicity
  _atom_site_fract_x
  _atom_site_fract_y
  _atom_site_fract_z
  _atom_site_occupancy
  S   S1        1.0  0.25000005369533396  0.2500000304484148  0.24999979934963487  1.0000
  S   S2        1.0  0.7500001837828217  0.7500002616015367  0.7499998604354656  1.0000
  Ga  Ga1       1.0  0.9999999579249196  2.407665137408901e-08  0.9999999387902788  1.0000
  Br  Br1       1.0  0.2493611649800941  0.24936109240471382  0.7506389210925398  1.0000
  Br  Br2       1.0  0.7506387778013623  0.7506388384954955  0.2493611536748546  1.0000
  Br  Br3       1.0  0.7506388801106625  0.24936103804209522  0.2493611849169061  1.0000
  Br  Br4       1.0  0.24936103677892218  0.7506388051503187  0.7506390042216481  1.0000
  Br  Br5       1.0  0.2493610812822885  0.7506388246225875  0.24936121119501745  1.0000
  Br  Br6       1.0  0.7506388543588122  0.24936108392073164  0.7506389358923262  1.0000
