data_image0
_chemical_formula_structural       S2GaBr6
_chemical_formula_sum              "S2 Ga1 Br6"
_cell_length_a       7.121600118404174
_cell_length_b       7.1216005305519605
_cell_length_c       7.12160054581995
_cell_angle_alpha    59.99999936984189
_cell_angle_beta     59.999997722810996
_cell_angle_gamma    59.9999983538711

_space_group_name_H-M_alt    "P 1"
_space_group_IT_number       1

loop_
  _space_group_symop_operation_xyz
  'x, y, z'

loop_
  _atom_site_type_symbol
  _atom_site_label
  _atom_site_symmetry_multiplicity
  _atom_site_fract_x
  _atom_site_fract_y
  _atom_site_fract_z
  _atom_site_occupancy
  S   S1        1.0  0.2500001022169078  0.24999982261035156  0.24999989515186388  1.0000
  S   S2        1.0  0.750000248973885  0.7500000835053865  0.7499999203862571  1.0000
  Ga  Ga1       1.0  0.9999999677348383  4.815330110008184e-08  0.9999998783174531  1.0000
  Br  Br1       1.0  0.24936111368666464  0.24936115763114128  0.7506389152787512  1.0000
  Br  Br2       1.0  0.7506387900100305  0.7506388895049839  0.24936114617202132  1.0000
  Br  Br3       1.0  0.7506388391035579  0.24936110510312506  0.249361196972059  1.0000
  Br  Br4       1.0  0.24936103583499633  0.7506388629240078  0.7506389928337532  1.0000
  Br  Br5       1.0  0.24936111604600464  0.75063891370242  0.24936112791299012  1.0000
  Br  Br6       1.0  0.7506387872741465  0.24936112483490172  0.7506389310045627  1.0000
