data_image0
_chemical_formula_structural       S2GaCl6
_chemical_formula_sum              "S2 Ga1 Cl6"
_cell_length_a       6.6150319078585165
_cell_length_b       6.615031798098718
_cell_length_c       6.615032160986095
_cell_angle_alpha    59.999999719211466
_cell_angle_beta     59.999999073772386
_cell_angle_gamma    60.00000096083727

_space_group_name_H-M_alt    "P 1"
_space_group_IT_number       1

loop_
  _space_group_symop_operation_xyz
  'x, y, z'

loop_
  _atom_site_type_symbol
  _atom_site_label
  _atom_site_symmetry_multiplicity
  _atom_site_fract_x
  _atom_site_fract_y
  _atom_site_fract_z
  _atom_site_occupancy
  S   S1        1.0  0.250000017531746  0.24999983395430067  0.2500000928392388  1.0000
  S   S2        1.0  0.7499999657490758  0.749999998053448  0.7500000602401542  1.0000
  Ga  Ga1       1.0  1.8478237958450544e-08  7.4058298749411596e-09  1.7292135171879102e-08  1.0000
  Cl  Cl1       1.0  0.2493620015309184  0.24936194831506037  0.7506380481108318  1.0000
  Cl  Cl2       1.0  0.7506380304291603  0.7506380466209276  0.24936194474331086  1.0000
  Cl  Cl3       1.0  0.7506380663826068  0.24936202703130095  0.2493618749328572  1.0000
  Cl  Cl4       1.0  0.2493619499701085  0.7506381456445838  0.7506379899920588  1.0000
  Cl  Cl5       1.0  0.24936194659260527  0.7506380301867837  0.24936193777464583  1.0000
  Cl  Cl6       1.0  0.7506379854645683  0.24936195549191534  0.7506380431444217  1.0000
