data_image0
_chemical_formula_structural       S2GaF6
_chemical_formula_sum              "S2 Ga1 F6"
_cell_length_a       4.757112309142167
_cell_length_b       4.757112351659354
_cell_length_c       4.7571123352313505
_cell_angle_alpha    60.00000062505834
_cell_angle_beta     59.99999884902578
_cell_angle_gamma    59.999998314417866

_space_group_name_H-M_alt    "P 1"
_space_group_IT_number       1

loop_
  _space_group_symop_operation_xyz
  'x, y, z'

loop_
  _atom_site_type_symbol
  _atom_site_label
  _atom_site_symmetry_multiplicity
  _atom_site_fract_x
  _atom_site_fract_y
  _atom_site_fract_z
  _atom_site_occupancy
  S   S1        1.0  0.24999997954463937  0.24999999538974083  0.2500000100651859  1.0000
  S   S2        1.0  0.7499999877439018  0.7499999990419977  0.7499999886936001  1.0000
  Ga  Ga1       1.0  0.9999999902654803  4.376744010397606e-08  1.0311042720255505e-08  1.0000
  F   F1        1.0  0.28710848456063026  0.2871085087608645  0.7128915096526526  1.0000
  F   F2        1.0  0.7128915381396733  0.7128914650744306  0.28710848641328246  1.0000
  F   F3        1.0  0.7128914987420597  0.2871084844432456  0.2871085306703873  1.0000
  F   F4        1.0  0.287108476122906  0.7128914945411612  0.7128915077598172  1.0000
  F   F5        1.0  0.28710847319000976  0.7128915085374754  0.28710851724390046  1.0000
  F   F6        1.0  0.7128915245009462  0.2871085039161494  0.7128914846302374  1.0000
