data_image0
_chemical_formula_structural       S2GaI6
_chemical_formula_sum              "S2 Ga1 I6"
_cell_length_a       7.6492017503197145
_cell_length_b       7.649202471967545
_cell_length_c       7.649201305833869
_cell_angle_alpha    60.00000173154354
_cell_angle_beta     59.99999751108431
_cell_angle_gamma    59.99999962452854

_space_group_name_H-M_alt    "P 1"
_space_group_IT_number       1

loop_
  _space_group_symop_operation_xyz
  'x, y, z'

loop_
  _atom_site_type_symbol
  _atom_site_label
  _atom_site_symmetry_multiplicity
  _atom_site_fract_x
  _atom_site_fract_y
  _atom_site_fract_z
  _atom_site_occupancy
  S   S1        1.0  0.25000015707277407  0.25000019156114334  0.24999967867077522  1.0000
  S   S2        1.0  0.7500004802604517  0.7499996780446996  0.75000002627293  1.0000
  Ga  Ga1       1.0  0.9999999707687462  2.882053155791188e-08  0.9999999753661667  1.0000
  I   I1        1.0  0.25850877426896923  0.25850895090085024  0.7414911346380758  1.0000
  I   I2        1.0  0.7414909989465088  0.7414911108418846  0.2585088958374731  1.0000
  I   I3        1.0  0.7414910146055378  0.2585089476761172  0.25850901992377856  1.0000
  I   I4        1.0  0.2585088501914155  0.741491061228974  0.7414911049172176  1.0000
  I   I5        1.0  0.25850881910902895  0.7414910649050146  0.25850903431018396  1.0000
  I   I6        1.0  0.7414909340556021  0.2585089664160475  0.7414911325243392  1.0000
