data_image0
_chemical_formula_structural       S2GeBr6
_chemical_formula_sum              "S2 Ge1 Br6"
_cell_length_a       7.207462552438092
_cell_length_b       7.207462504463224
_cell_length_c       7.207462662981562
_cell_angle_alpha    59.99999914974811
_cell_angle_beta     60.000000582876794
_cell_angle_gamma    60.0000004500237

_space_group_name_H-M_alt    "P 1"
_space_group_IT_number       1

loop_
  _space_group_symop_operation_xyz
  'x, y, z'

loop_
  _atom_site_type_symbol
  _atom_site_label
  _atom_site_symmetry_multiplicity
  _atom_site_fract_x
  _atom_site_fract_y
  _atom_site_fract_z
  _atom_site_occupancy
  S   S1        1.0  0.25000003492210837  0.2499998873601833  0.2500001695129593  1.0000
  S   S2        1.0  0.7499997783700901  0.7500000597105069  0.7500002925534068  1.0000
  Ge  Ge1       1.0  9.046117098621654e-09  1.6992733368624939e-09  9.889263902882066e-09  1.0000
  Br  Br1       1.0  0.23551346126388992  0.23551344677828756  0.7644865084387015  1.0000
  Br  Br2       1.0  0.7644865694099834  0.7644865546691539  0.23551332936576372  1.0000
  Br  Br3       1.0  0.7644865533628392  0.23551347055408275  0.23551339847552333  1.0000
  Br  Br4       1.0  0.23551352479064314  0.7644865614802788  0.7644864641184155  1.0000
  Br  Br5       1.0  0.23551349823287815  0.764486537206953  0.23551335734116274  1.0000
  Br  Br6       1.0  0.7644865779464549  0.2355134863310422  0.7644864591523535  1.0000
