data_image0
_chemical_formula_structural       S2GeF6
_chemical_formula_sum              "S2 Ge1 F6"
_cell_length_a       4.6912969114413245
_cell_length_b       4.6912967890576
_cell_length_c       4.691296757989738
_cell_angle_alpha    59.999999383945436
_cell_angle_beta     59.999998542980364
_cell_angle_gamma    59.99999854415658

_space_group_name_H-M_alt    "P 1"
_space_group_IT_number       1

loop_
  _space_group_symop_operation_xyz
  'x, y, z'

loop_
  _atom_site_type_symbol
  _atom_site_label
  _atom_site_symmetry_multiplicity
  _atom_site_fract_x
  _atom_site_fract_y
  _atom_site_fract_z
  _atom_site_occupancy
  S   S1        1.0  0.2499999858160428  0.250000009861629  0.25000009831746295  1.0000
  S   S2        1.0  0.7499999993170023  0.7499999852034205  0.7499999189142836  1.0000
  Ge  Ge1       1.0  0.9999999608911173  2.87174195677182e-08  0.9999999988009117  1.0000
  F   F1        1.0  0.2745641481496745  0.2745640940570507  0.7254359042977733  1.0000
  F   F2        1.0  0.7254358818852126  0.7254358696799047  0.2745641317263804  1.0000
  F   F3        1.0  0.7254359018033573  0.274564122936314  0.2745641186196668  1.0000
  F   F4        1.0  0.2745641038908531  0.7254358695180609  0.7254358597943392  1.0000
  F   F5        1.0  0.2745641445341043  0.7254358929567444  0.2745640647599826  1.0000
  F   F6        1.0  0.7254358721487973  0.27456412560437526  0.7254358951063049  1.0000
