data_image0
_chemical_formula_structural       S2GeCl6
_chemical_formula_sum              "S2 Ge1 Cl6"
_cell_length_a       6.771201724797443
_cell_length_b       6.771200412024142
_cell_length_c       6.7712017278003565
_cell_angle_alpha    59.99999709235692
_cell_angle_beta     59.99999913318187
_cell_angle_gamma    60.00000549195791

_space_group_name_H-M_alt    "P 1"
_space_group_IT_number       1

loop_
  _space_group_symop_operation_xyz
  'x, y, z'

loop_
  _atom_site_type_symbol
  _atom_site_label
  _atom_site_symmetry_multiplicity
  _atom_site_fract_x
  _atom_site_fract_y
  _atom_site_fract_z
  _atom_site_occupancy
  S   S1        1.0  0.24999993267824747  0.2500000611406901  0.2500000282316524  1.0000
  S   S2        1.0  0.7500000665814248  0.7499999916939655  0.7499998749719059  1.0000
  Ge  Ge1       1.0  0.9999999634821061  7.2350185173011335e-09  0.9999999924887973  1.0000
  Cl  Cl1       1.0  0.23402578142213126  0.23402586108221263  0.7659741734539759  1.0000
  Cl  Cl2       1.0  0.7659742327213585  0.7659741266372346  0.23402583609162583  1.0000
  Cl  Cl3       1.0  0.7659741923037869  0.2340258049882271  0.23402578858635756  1.0000
  Cl  Cl4       1.0  0.23402580680223575  0.7659741664524158  0.7659742558163349  1.0000
  Cl  Cl5       1.0  0.23402577052671295  0.7659742122432094  0.23402586216169805  1.0000
  Cl  Cl6       1.0  0.7659742638913667  0.2340257555799271  0.7659741959305733  1.0000
