data_image0
_chemical_formula_structural       S2GeI6
_chemical_formula_sum              "S2 Ge1 I6"
_cell_length_a       7.730246869923594
_cell_length_b       7.730246863635342
_cell_length_c       7.730246485854636
_cell_angle_alpha    60.00000040958267
_cell_angle_beta     60.0000000869137
_cell_angle_gamma    60.00000095823829

_space_group_name_H-M_alt    "P 1"
_space_group_IT_number       1

loop_
  _space_group_symop_operation_xyz
  'x, y, z'

loop_
  _atom_site_type_symbol
  _atom_site_label
  _atom_site_symmetry_multiplicity
  _atom_site_fract_x
  _atom_site_fract_y
  _atom_site_fract_z
  _atom_site_occupancy
  S   S1        1.0  0.25000038581558165  0.24999972652279778  0.2499998476771574  1.0000
  S   S2        1.0  0.7500001091413395  0.7500000256134922  0.7500000206049952  1.0000
  Ge  Ge1       1.0  0.9999999098601555  1.315013917551237e-07  1.2420464507107398e-07  1.0000
  I   I1        1.0  0.26864523604038715  0.2686453133092236  0.7313547111950969  1.0000
  I   I2        1.0  0.7313545406769073  0.7313547652040138  0.26864529221826955  1.0000
  I   I3        1.0  0.7313546858917145  0.2686452588553308  0.2686453166763995  1.0000
  I   I4        1.0  0.2686453831955403  0.7313546057701004  0.7313545983383355  1.0000
  I   I5        1.0  0.26864519681085536  0.7313547789056928  0.2686453787376656  1.0000
  I   I6        1.0  0.7313545458505977  0.2686453883313754  0.73135470471215  1.0000
