data_image0
_chemical_formula_structural       S2IrI6
_chemical_formula_sum              "S2 Ir1 I6"
_cell_length_a       7.498092830024464
_cell_length_b       7.498092689947615
_cell_length_c       7.498092846673783
_cell_angle_alpha    60.00000024394724
_cell_angle_beta     60.000001216247874
_cell_angle_gamma    60.000001719359076

_space_group_name_H-M_alt    "P 1"
_space_group_IT_number       1

loop_
  _space_group_symop_operation_xyz
  'x, y, z'

loop_
  _atom_site_type_symbol
  _atom_site_label
  _atom_site_symmetry_multiplicity
  _atom_site_fract_x
  _atom_site_fract_y
  _atom_site_fract_z
  _atom_site_occupancy
  S   S1        1.0  0.24999995001179035  0.25000006986549766  0.2500000218274645  1.0000
  S   S2        1.0  0.7499999697224907  0.7500000168542861  0.7499999312998608  1.0000
  Ir  Ir1       1.0  0.999999997200264  0.9999999852993231  1.9419586058192426e-08  1.0000
  I   I1        1.0  0.251514928926408  0.2515149546444734  0.7484850602203168  1.0000
  I   I2        1.0  0.7484851113490193  0.748485029170575  0.25151493743570225  1.0000
  I   I3        1.0  0.7484850596408498  0.2515149121830092  0.25151493838418953  1.0000
  I   I4        1.0  0.2515149790171967  0.7484850487643195  0.7484850715143798  1.0000
  I   I5        1.0  0.25151491369638945  0.7484850867517471  0.2515149267423096  1.0000
  I   I6        1.0  0.7484850994036462  0.2515148954298923  0.7484850879854545  1.0000
