data_image0
_chemical_formula_structural       S2IrCl6
_chemical_formula_sum              "S2 Ir1 Cl6"
_cell_length_a       6.895468324891681
_cell_length_b       6.895468017259353
_cell_length_c       6.895468560566031
_cell_angle_alpha    60.00000127355068
_cell_angle_beta     59.99999775228383
_cell_angle_gamma    59.99999993651409

_space_group_name_H-M_alt    "P 1"
_space_group_IT_number       1

loop_
  _space_group_symop_operation_xyz
  'x, y, z'

loop_
  _atom_site_type_symbol
  _atom_site_label
  _atom_site_symmetry_multiplicity
  _atom_site_fract_x
  _atom_site_fract_y
  _atom_site_fract_z
  _atom_site_occupancy
  S   S1        1.0  0.24999993847432042  0.24999998910029214  0.2500000921496851  1.0000
  S   S2        1.0  0.7500000202613527  0.7500000561088341  0.7500001281756541  1.0000
  Ir  Ir1       1.0  3.4455095867538285e-08  3.729934030839419e-08  0.9999999264168606  1.0000
  Cl  Cl1       1.0  0.23465590041446313  0.23465595015034463  0.7653440780849572  1.0000
  Cl  Cl2       1.0  0.7653441150218719  0.76534399026538  0.23465590089506622  1.0000
  Cl  Cl3       1.0  0.7653440471564863  0.23465590254013116  0.2346559311856465  1.0000
  Cl  Cl4       1.0  0.23465585976883013  0.7653441373405028  0.7653440102608302  1.0000
  Cl  Cl5       1.0  0.2346559953824633  0.7653440247266121  0.2346558507608106  1.0000
  Cl  Cl6       1.0  0.7653441003495065  0.23465589082288416  0.7653440860022304  1.0000
