data_image0
_chemical_formula_structural       S2IrBr6
_chemical_formula_sum              "S2 Ir1 Br6"
_cell_length_a       7.1746310085100635
_cell_length_b       7.174631107221507
_cell_length_c       7.174630722517975
_cell_angle_alpha    60.00000050009983
_cell_angle_beta     60.00000119966781
_cell_angle_gamma    60.00000097639939

_space_group_name_H-M_alt    "P 1"
_space_group_IT_number       1

loop_
  _space_group_symop_operation_xyz
  'x, y, z'

loop_
  _atom_site_type_symbol
  _atom_site_label
  _atom_site_symmetry_multiplicity
  _atom_site_fract_x
  _atom_site_fract_y
  _atom_site_fract_z
  _atom_site_occupancy
  S   S1        1.0  0.25000003208607957  0.24999994906329737  0.24999995783573595  1.0000
  S   S2        1.0  0.7500001100065156  0.7500001390953096  0.7499999966527496  1.0000
  Ir  Ir1       1.0  0.9999999801179259  1.7070491210137535e-09  1.3268912371819705e-08  1.0000
  Br  Br1       1.0  0.2429147019648196  0.24291470611710927  0.7570852805073491  1.0000
  Br  Br2       1.0  0.7570852727173143  0.7570852710832972  0.24291472953747084  1.0000
  Br  Br3       1.0  0.7570852592006269  0.24291474218218836  0.24291471429355135  1.0000
  Br  Br4       1.0  0.2429146822359222  0.757085262331006  0.7570852903548669  1.0000
  Br  Br5       1.0  0.24291471909750342  0.7570852405037876  0.24291474045396147  1.0000
  Br  Br6       1.0  0.7570852357360566  0.24291468036399383  0.757085299318659  1.0000
