data_image0
_chemical_formula_structural       S2IrF6
_chemical_formula_sum              "S2 Ir1 F6"
_cell_length_a       4.758518411414287
_cell_length_b       4.758518172005786
_cell_length_c       4.758520471419597
_cell_angle_alpha    60.00000514681887
_cell_angle_beta     60.000008309257595
_cell_angle_gamma    59.99999012622935

_space_group_name_H-M_alt    "P 1"
_space_group_IT_number       1

loop_
  _space_group_symop_operation_xyz
  'x, y, z'

loop_
  _atom_site_type_symbol
  _atom_site_label
  _atom_site_symmetry_multiplicity
  _atom_site_fract_x
  _atom_site_fract_y
  _atom_site_fract_z
  _atom_site_occupancy
  S   S1        1.0  0.25000012384651255  0.25000021593870253  0.24999963419204  1.0000
  S   S2        1.0  0.7499998853041289  0.7499997624309226  0.750000347025358  1.0000
  Ir  Ir1       1.0  1.7549706331607338e-08  1.2868967305756547e-08  0.9999999616742393  1.0000
  F   F1        1.0  0.29480238784541746  0.2948020345494165  0.7051975959970929  1.0000
  F   F2        1.0  0.7051975616707042  0.7051978897705318  0.2948024609758267  1.0000
  F   F3        1.0  0.7051980109193016  0.29480165162162963  0.29480213725222376  1.0000
  F   F4        1.0  0.2948018525597755  0.7051984580115682  0.7051979940707265  1.0000
  F   F5        1.0  0.2948022761894383  0.7051976998691207  0.2948024087545366  1.0000
  F   F6        1.0  0.7051978263494774  0.2948022167294241  0.7051975965826478  1.0000
