data_image0
_chemical_formula_structural       S2MnF6
_chemical_formula_sum              "S2 Mn1 F6"
_cell_length_a       4.0350426101287775
_cell_length_b       4.074730463562443
_cell_length_c       4.135761909849395
_cell_angle_alpha    60.54633952435776
_cell_angle_beta     48.822551613466146
_cell_angle_gamma    83.75440763368638

_space_group_name_H-M_alt    "P 1"
_space_group_IT_number       1

loop_
  _space_group_symop_operation_xyz
  'x, y, z'

loop_
  _atom_site_type_symbol
  _atom_site_label
  _atom_site_symmetry_multiplicity
  _atom_site_fract_x
  _atom_site_fract_y
  _atom_site_fract_z
  _atom_site_occupancy
  S   S1        1.0  0.17127919890941906  0.06488577493345837  0.14115632832009337  1.0000
  S   S2        1.0  0.3085375300276686  0.11300072181345562  0.5264249240556101  1.0000
  Mn  Mn1       1.0  0.3646137915945288  0.417853344783066  0.4160689389946546  1.0000
  F   F1        1.0  0.23796575522527907  0.21145935816014816  0.5411010931993248  1.0000
  F   F2        1.0  0.3696005202818924  0.3956502160261638  0.1710107903916774  1.0000
  F   F3        1.0  0.2664271513300242  0.1414349378483387  0.20669039344397813  1.0000
  F   F4        1.0  0.34616635820860886  0.15248345779268835  0.46755883308495694  1.0000
  F   F5        1.0  0.15088140526792784  0.3098751862127568  0.46336545798886536  1.0000
  F   F6        1.0  0.9073644263770865  0.27238342030034784  0.32327158856091504  1.0000
