data_image0
_chemical_formula_structural       S2MnCl6
_chemical_formula_sum              "S2 Mn1 Cl6"
_cell_length_a       6.723601144856135
_cell_length_b       6.723602549795776
_cell_length_c       6.723601156839136
_cell_angle_alpha    60.00000705765591
_cell_angle_beta     59.99999589116477
_cell_angle_gamma    60.0000064375894

_space_group_name_H-M_alt    "P 1"
_space_group_IT_number       1

loop_
  _space_group_symop_operation_xyz
  'x, y, z'

loop_
  _atom_site_type_symbol
  _atom_site_label
  _atom_site_symmetry_multiplicity
  _atom_site_fract_x
  _atom_site_fract_y
  _atom_site_fract_z
  _atom_site_occupancy
  S   S1        1.0  0.2500000074826734  0.2500000899266364  0.25000006473598835  1.0000
  S   S2        1.0  0.7500000085394084  0.750000038441743  0.7499997040644895  1.0000
  Mn  Mn1       1.0  3.140108823810339e-09  0.9999999854275182  2.9512957820595964e-08  1.0000
  Cl  Cl1       1.0  0.23619333588285005  0.23619331844554628  0.7638067006494595  1.0000
  Cl  Cl2       1.0  0.7638067023462131  0.763806666019575  0.23619335655578275  1.0000
  Cl  Cl3       1.0  0.763806635495661  0.2361932727234049  0.2361934279495971  1.0000
  Cl  Cl4       1.0  0.2361933277756892  0.7638067099201553  0.7638066349247238  1.0000
  Cl  Cl5       1.0  0.2361932897142072  0.7638066259393773  0.23619336683105704  1.0000
  Cl  Cl6       1.0  0.7638067100567846  0.23619330387893478  0.7638066952822767  1.0000
