data_image0
_chemical_formula_structural       S2MnBr6
_chemical_formula_sum              "S2 Mn1 Br6"
_cell_length_a       7.271136523867729
_cell_length_b       7.27113648159074
_cell_length_c       7.271136300066621
_cell_angle_alpha    59.99999901088451
_cell_angle_beta     59.999999863887105
_cell_angle_gamma    59.999998682354025

_space_group_name_H-M_alt    "P 1"
_space_group_IT_number       1

loop_
  _space_group_symop_operation_xyz
  'x, y, z'

loop_
  _atom_site_type_symbol
  _atom_site_label
  _atom_site_symmetry_multiplicity
  _atom_site_fract_x
  _atom_site_fract_y
  _atom_site_fract_z
  _atom_site_occupancy
  S   S1        1.0  0.25000004799363323  0.2500000896552829  0.24999993381275995  1.0000
  S   S2        1.0  0.749999980944741  0.7499999910410603  0.7500001195651196  1.0000
  Mn  Mn1       1.0  0.9999999553416393  1.0106356983979157e-08  0.9999999746416754  1.0000
  Br  Br1       1.0  0.22686947201007038  0.2268694846722008  0.773130497304535  1.0000
  Br  Br2       1.0  0.7731305450275335  0.7731304983293711  0.22686944721031457  1.0000
  Br  Br3       1.0  0.7731305200280654  0.22686946789552773  0.2268695131172091  1.0000
  Br  Br4       1.0  0.2268694831986533  0.7731304898401539  0.773130489444453  1.0000
  Br  Br5       1.0  0.22686952444122432  0.7731304852215303  0.22686944450812468  1.0000
  Br  Br6       1.0  0.7731304807423548  0.22686948093611375  0.7731305927478506  1.0000
