data_image0
_chemical_formula_structural       S2MnI6
_chemical_formula_sum              "S2 Mn1 I6"
_cell_length_a       7.635085820060162
_cell_length_b       7.63508470383073
_cell_length_c       7.6350850583464815
_cell_angle_alpha    60.00000276187212
_cell_angle_beta     60.000006504040854
_cell_angle_gamma    60.000003056837016

_space_group_name_H-M_alt    "P 1"
_space_group_IT_number       1

loop_
  _space_group_symop_operation_xyz
  'x, y, z'

loop_
  _atom_site_type_symbol
  _atom_site_label
  _atom_site_symmetry_multiplicity
  _atom_site_fract_x
  _atom_site_fract_y
  _atom_site_fract_z
  _atom_site_occupancy
  S   S1        1.0  0.2500000374449667  0.25000013524054426  0.24999987162008036  1.0000
  S   S2        1.0  0.7499968096239601  0.7500016071933028  0.7500002856543352  1.0000
  Mn  Mn1       1.0  2.3243182843899577e-07  0.9999998925252302  8.247600358897164e-09  1.0000
  I   I1        1.0  0.23215687243356045  0.2321553131281891  0.7678438668980778  1.0000
  I   I2        1.0  0.7678441523696496  0.7678438595357109  0.23215626438159082  1.0000
  I   I3        1.0  0.767844113265799  0.23215569054303573  0.2321562216757382  1.0000
  I   I4        1.0  0.23215681649701017  0.7678438398354339  0.7678439419847432  1.0000
  I   I5        1.0  0.2321569297544615  0.7678438202212525  0.23215546225837275  1.0000
  I   I6        1.0  0.7678440394344933  0.2321558368811938  0.7678440905005818  1.0000
