data_image0
_chemical_formula_structural       S2NCl6
_chemical_formula_sum              "S2 N1 Cl6"
_cell_length_a       6.511626899750886
_cell_length_b       6.511627801029988
_cell_length_c       6.511626552931547
_cell_angle_alpha    60.00000974307521
_cell_angle_beta     60.00000055819327
_cell_angle_gamma    60.0000067333999

_space_group_name_H-M_alt    "P 1"
_space_group_IT_number       1

loop_
  _space_group_symop_operation_xyz
  'x, y, z'

loop_
  _atom_site_type_symbol
  _atom_site_label
  _atom_site_symmetry_multiplicity
  _atom_site_fract_x
  _atom_site_fract_y
  _atom_site_fract_z
  _atom_site_occupancy
  S   S1        1.0  0.24999968610506604  0.2500003012344671  0.2500005224205531  1.0000
  S   S2        1.0  0.7499999832018505  0.7499998899208661  0.7499999270306446  1.0000
  N   N1        1.0  0.9999996005447327  2.070824641699955e-06  0.9999989692796148  1.0000
  Cl  Cl1       1.0  0.2401865044034503  0.2401864516208528  0.7598133934576945  1.0000
  Cl  Cl2       1.0  0.7598128614561459  0.7598126655645462  0.2401872056662791  1.0000
  Cl  Cl3       1.0  0.7598134551880523  0.24018652575185143  0.2401865199252226  1.0000
  Cl  Cl4       1.0  0.24018715044726874  0.7598128886090859  0.7598129175801769  1.0000
  Cl  Cl5       1.0  0.24018717063284106  0.7598127778018623  0.2401871378386254  1.0000
  Cl  Cl6       1.0  0.759813622885269  0.24018642402216697  0.759813379315477  1.0000
