data_image0
_chemical_formula_structural       S2NCl6
_chemical_formula_sum              "S2 N1 Cl6"
_cell_length_a       6.512442675795
_cell_length_b       6.512442785370896
_cell_length_c       6.512442745230969
_cell_angle_alpha    60.000000988791456
_cell_angle_beta     60.00000037907911
_cell_angle_gamma    59.999999089602845

_space_group_name_H-M_alt    "P 1"
_space_group_IT_number       1

loop_
  _space_group_symop_operation_xyz
  'x, y, z'

loop_
  _atom_site_type_symbol
  _atom_site_label
  _atom_site_symmetry_multiplicity
  _atom_site_fract_x
  _atom_site_fract_y
  _atom_site_fract_z
  _atom_site_occupancy
  S   S1        1.0  0.24999981104671656  0.24999956835252427  0.25000083944842977  1.0000
  S   S2        1.0  0.7500005395679178  0.7499999124174002  0.7499992301467788  1.0000
  N   N1        1.0  4.910545285592844e-07  0.9999987023702286  0.999999904242922  1.0000
  Cl  Cl1       1.0  0.24016749168574403  0.2401676678905553  0.7598324068062742  1.0000
  Cl  Cl2       1.0  0.7598327027723195  0.7598329356112073  0.24016721174727151  1.0000
  Cl  Cl3       1.0  0.7598321668236445  0.24016769738346339  0.24016779377384745  1.0000
  Cl  Cl4       1.0  0.24016701185979553  0.7598331129868353  0.7598328465126367  1.0000
  Cl  Cl5       1.0  0.24016702813311896  0.7598328239452407  0.24016740695319683  1.0000
  Cl  Cl6       1.0  0.7598327358842892  0.24016760277798258  0.7598323601222072  1.0000
