data_image0
_chemical_formula_structural       S2NF6
_chemical_formula_sum              "S2 N1 F6"
_cell_length_a       4.443627634150857
_cell_length_b       3.906478074809467
_cell_length_c       3.903288524050107
_cell_angle_alpha    62.15614947233292
_cell_angle_beta     61.888387264219034
_cell_angle_gamma    48.08414207897348

_space_group_name_H-M_alt    "P 1"
_space_group_IT_number       1

loop_
  _space_group_symop_operation_xyz
  'x, y, z'

loop_
  _atom_site_type_symbol
  _atom_site_label
  _atom_site_symmetry_multiplicity
  _atom_site_fract_x
  _atom_site_fract_y
  _atom_site_fract_z
  _atom_site_occupancy
  S   S1        1.0  0.20233824259865676  0.7919359178341663  0.4168563119969252  1.0000
  S   S2        1.0  0.2357547518454861  0.6615399282206859  0.5784602841888384  1.0000
  N   N1        1.0  0.5911079084122605  0.3609141693548703  0.5624894956423522  1.0000
  F   F1        1.0  0.2813998569911442  0.644373134221825  0.6262992953746002  1.0000
  F   F2        1.0  0.09831852206677305  0.8077139127396542  0.03827232691728052  1.0000
  F   F3        1.0  0.4191420324315433  0.5223192466284725  0.5106078479174002  1.0000
  F   F4        1.0  0.2668188036724269  0.7332752177954489  0.3915289449245526  1.0000
  F   F5        1.0  0.5857805331649043  0.0652098175873616  0.2974236595472164  1.0000
  F   F6        1.0  0.16670437204289335  0.7044949594443344  0.5514656150909053  1.0000
