data_image0
_chemical_formula_structural       S2NF6
_chemical_formula_sum              "S2 N1 F6"
_cell_length_a       7.127300485627698
_cell_length_b       7.245426448529783
_cell_length_c       5.548323416503102
_cell_angle_alpha    48.38256433679458
_cell_angle_beta     49.05054450957168
_cell_angle_gamma    47.44311424874111

_space_group_name_H-M_alt    "P 1"
_space_group_IT_number       1

loop_
  _space_group_symop_operation_xyz
  'x, y, z'

loop_
  _atom_site_type_symbol
  _atom_site_label
  _atom_site_symmetry_multiplicity
  _atom_site_fract_x
  _atom_site_fract_y
  _atom_site_fract_z
  _atom_site_occupancy
  S   S1        1.0  0.24624151891536683  0.11418300382826228  0.5697720067772871  1.0000
  S   S2        1.0  0.7671902231617779  0.8020255887576768  0.8930407177151923  1.0000
  N   N1        1.0  0.03396959728476316  0.10938360405871171  0.9798016816368166  1.0000
  F   F1        1.0  0.40955446969258474  0.285260269552712  0.38520631951838497  1.0000
  F   F2        1.0  0.6445106926502482  0.6353040527493492  0.29133364896957337  1.0000
  F   F3        1.0  0.9732328055575726  0.3781669248329175  0.9212863470666433  1.0000
  F   F4        1.0  0.06328179887568018  0.680815467444269  0.8589392332909529  1.0000
  F   F5        1.0  0.21248168064161901  0.9318878797838314  0.16550393818073775  1.0000
  F   F6        1.0  0.6495421870549514  0.06297220344914944  0.9351137091733361  1.0000
