data_image0
_chemical_formula_structural       S2NiI6
_chemical_formula_sum              "S2 Ni1 I6"
_cell_length_a       7.4686882285912
_cell_length_b       7.468688462266799
_cell_length_c       7.468688535232417
_cell_angle_alpha    59.999998862707265
_cell_angle_beta     60.00000275690126
_cell_angle_gamma    60.00000271953856

_space_group_name_H-M_alt    "P 1"
_space_group_IT_number       1

loop_
  _space_group_symop_operation_xyz
  'x, y, z'

loop_
  _atom_site_type_symbol
  _atom_site_label
  _atom_site_symmetry_multiplicity
  _atom_site_fract_x
  _atom_site_fract_y
  _atom_site_fract_z
  _atom_site_occupancy
  S   S1        1.0  0.25000011220844803  0.24999999371938494  0.2499998438002593  1.0000
  S   S2        1.0  0.7500001621863723  0.7499999942768573  0.749999909301847  1.0000
  Ni  Ni1       1.0  5.6033125717147406e-08  0.9999999803219302  0.9999999764667813  1.0000
  I   I1        1.0  0.25247868809551827  0.25247862143430133  0.7475214070678178  1.0000
  I   I2        1.0  0.747521258302509  0.7475212976886773  0.25247874262993386  1.0000
  I   I3        1.0  0.7475213204449397  0.2524786421777764  0.25247866544368236  1.0000
  I   I4        1.0  0.252478505749242  0.7475213917339498  0.74752146419992  1.0000
  I   I5        1.0  0.25247860939392847  0.7475213531655023  0.25247863900035494  1.0000
  I   I6        1.0  0.7475212923533009  0.25247871846253134  0.747521353673183  1.0000
