data_image0
_chemical_formula_structural       S2NiF6
_chemical_formula_sum              "S2 Ni1 F6"
_cell_length_a       4.846202724823893
_cell_length_b       4.846203343949812
_cell_length_c       4.846202961439604
_cell_angle_alpha    60.000015655895325
_cell_angle_beta     60.00000115591278
_cell_angle_gamma    60.000009742644146

_space_group_name_H-M_alt    "P 1"
_space_group_IT_number       1

loop_
  _space_group_symop_operation_xyz
  'x, y, z'

loop_
  _atom_site_type_symbol
  _atom_site_label
  _atom_site_symmetry_multiplicity
  _atom_site_fract_x
  _atom_site_fract_y
  _atom_site_fract_z
  _atom_site_occupancy
  S   S1        1.0  0.24999988732249823  0.2499999908532107  0.2500000741380866  1.0000
  S   S2        1.0  0.7499996124553017  0.7500002783537967  0.7499996279288231  1.0000
  Ni  Ni1       1.0  3.116040170686989e-07  0.9999999444010602  0.9999999607267219  1.0000
  F   F1        1.0  0.2568595264093485  0.2568601840661629  0.7431417681671372  1.0000
  F   F2        1.0  0.7431405271893521  0.743139989106445  0.25685882547135874  1.0000
  F   F3        1.0  0.7431392121794377  0.25685945098660795  0.25686009575130136  1.0000
  F   F4        1.0  0.2568600570760048  0.7431409951261209  0.7431394040786411  1.0000
  F   F5        1.0  0.25685978280932825  0.7431394397711572  0.25686026855893707  1.0000
  F   F6        1.0  0.743141048067433  0.2568598311820334  0.7431398139051846  1.0000
