data_image0
_chemical_formula_structural       S2NiCl6
_chemical_formula_sum              "S2 Ni1 Cl6"
_cell_length_a       6.619576683902993
_cell_length_b       6.619576413198218
_cell_length_c       6.6195765209980015
_cell_angle_alpha    60.000000563103384
_cell_angle_beta     60.00000012354358
_cell_angle_gamma    59.99999899132358

_space_group_name_H-M_alt    "P 1"
_space_group_IT_number       1

loop_
  _space_group_symop_operation_xyz
  'x, y, z'

loop_
  _atom_site_type_symbol
  _atom_site_label
  _atom_site_symmetry_multiplicity
  _atom_site_fract_x
  _atom_site_fract_y
  _atom_site_fract_z
  _atom_site_occupancy
  S   S1        1.0  0.25000009159820147  0.2500000121515968  0.24999994127341174  1.0000
  S   S2        1.0  0.7500001358102097  0.749999945795671  0.750000059495645  1.0000
  Ni  Ni1       1.0  0.9999999732176889  1.8501860430658313e-09  0.9999999913166735  1.0000
  Cl  Cl1       1.0  0.2407437451371015  0.24074384179106387  0.7592562177081245  1.0000
  Cl  Cl2       1.0  0.7592561969681645  0.7592561975643957  0.2407437701974413  1.0000
  Cl  Cl3       1.0  0.7592562280847608  0.2407437638401381  0.24074374066281237  1.0000
  Cl  Cl4       1.0  0.24074368972326446  0.759256238511598  0.7592562673185407  1.0000
  Cl  Cl5       1.0  0.24074372147171627  0.7592562639855621  0.2407437539415364  1.0000
  Cl  Cl6       1.0  0.7592562129516737  0.2407437513174772  0.7592562573845305  1.0000
