data_image0
_chemical_formula_structural       S2NO6
_chemical_formula_sum              "S2 N1 O6"
_cell_length_a       2.878017679397673
_cell_length_b       2.1548466087952396
_cell_length_c       2.604487107119675
_cell_angle_alpha    86.9981362677747
_cell_angle_beta     90.85057532871042
_cell_angle_gamma    65.48072358111469

_space_group_name_H-M_alt    "P 1"
_space_group_IT_number       1

loop_
  _space_group_symop_operation_xyz
  'x, y, z'

loop_
  _atom_site_type_symbol
  _atom_site_label
  _atom_site_symmetry_multiplicity
  _atom_site_fract_x
  _atom_site_fract_y
  _atom_site_fract_z
  _atom_site_occupancy
  S   S1        1.0  0.4356031525174837  0.5406890317971718  0.24730160926609104  1.0000
  S   S2        1.0  0.4392730338008648  0.4592927875210282  0.25051548044440347  1.0000
  N   N1        1.0  0.6828188571419946  0.07136735576021502  0.07127468716324975  1.0000
  O   O1        1.0  0.2886672636742482  0.798714469103864  0.36120188414360327  1.0000
  O   O2        1.0  0.40841736708448934  0.6162954278530723  0.262387904255067  1.0000
  O   O3        1.0  0.4341338026175854  0.43076064491626165  0.24863683426213426  1.0000
  O   O4        1.0  0.710880145250427  0.9372310425847846  0.9493911405647001  1.0000
  O   O5        1.0  0.6092553843434805  0.3682040217772635  0.3400915226836152  1.0000
  O   O6        1.0  0.23385415058828585  0.3532278348432656  0.8586327573459718  1.0000
