data_image0
_chemical_formula_structural       S2OsI6
_chemical_formula_sum              "S2 Os1 I6"
_cell_length_a       7.557667878577948
_cell_length_b       7.557668453766822
_cell_length_c       7.557667655421631
_cell_angle_alpha    60.00000195639858
_cell_angle_beta     59.99999937668283
_cell_angle_gamma    60.000000698148426

_space_group_name_H-M_alt    "P 1"
_space_group_IT_number       1

loop_
  _space_group_symop_operation_xyz
  'x, y, z'

loop_
  _atom_site_type_symbol
  _atom_site_label
  _atom_site_symmetry_multiplicity
  _atom_site_fract_x
  _atom_site_fract_y
  _atom_site_fract_z
  _atom_site_occupancy
  S   S1        1.0  0.25000013548440464  0.2500002147139793  0.24999975840949187  1.0000
  S   S2        1.0  0.7500002673581573  0.7499996588580942  0.7500001099888025  1.0000
  Os  Os1       1.0  0.9999999653068787  3.2410656407755297e-09  3.2927102126203966e-08  1.0000
  I   I1        1.0  0.25202389415221593  0.25202406626772844  0.7479760263273862  1.0000
  I   I2        1.0  0.7479759633208805  0.7479759904245422  0.25202400599447305  1.0000
  I   I3        1.0  0.7479759231039425  0.2520240043054137  0.25202405992726973  1.0000
  I   I4        1.0  0.2520239873674343  0.7479759438111694  0.7479759975369745  1.0000
  I   I5        1.0  0.25202398857186675  0.7479760466911292  0.25202398638592016  1.0000
  I   I6        1.0  0.7479758816324295  0.252024063478718  0.7479760273863049  1.0000
