data_image0
_chemical_formula_structural       S2OsF6
_chemical_formula_sum              "S2 Os1 F6"
_cell_length_a       4.926026780703339
_cell_length_b       4.926027515212322
_cell_length_c       4.926027219093256
_cell_angle_alpha    60.000000054660234
_cell_angle_beta     59.99999853977342
_cell_angle_gamma    60.00000069072388

_space_group_name_H-M_alt    "P 1"
_space_group_IT_number       1

loop_
  _space_group_symop_operation_xyz
  'x, y, z'

loop_
  _atom_site_type_symbol
  _atom_site_label
  _atom_site_symmetry_multiplicity
  _atom_site_fract_x
  _atom_site_fract_y
  _atom_site_fract_z
  _atom_site_occupancy
  S   S1        1.0  0.25000014406194043  0.2499998646575459  0.2500000679629512  1.0000
  S   S2        1.0  0.7499998679405152  0.7500000912272299  0.7499998861884113  1.0000
  Os  Os1       1.0  0.9999999650987746  2.7349002544206628e-08  0.9999999875358431  1.0000
  F   F1        1.0  0.28029709786029794  0.2802971985106284  0.719702865255216  1.0000
  F   F2        1.0  0.7197029167218362  0.7197028269897847  0.2802971482100596  1.0000
  F   F3        1.0  0.7197029267209869  0.28029718435953677  0.2802971329679152  1.0000
  F   F4        1.0  0.2802970960065318  0.7197028237369664  0.7197028810665563  1.0000
  F   F5        1.0  0.28029713697473  0.719702835833491  0.28029718466491055  1.0000
  F   F6        1.0  0.7197028707417478  0.28029713994146477  0.7197028652160559  1.0000
