data_image0
_chemical_formula_structural       S2OsBr6
_chemical_formula_sum              "S2 Os1 Br6"
_cell_length_a       7.254058765527089
_cell_length_b       7.254058159303355
_cell_length_c       7.254058763689233
_cell_angle_alpha    59.99999927773734
_cell_angle_beta     60.000000281316
_cell_angle_gamma    59.999999605242905

_space_group_name_H-M_alt    "P 1"
_space_group_IT_number       1

loop_
  _space_group_symop_operation_xyz
  'x, y, z'

loop_
  _atom_site_type_symbol
  _atom_site_label
  _atom_site_symmetry_multiplicity
  _atom_site_fract_x
  _atom_site_fract_y
  _atom_site_fract_z
  _atom_site_occupancy
  S   S1        1.0  0.25000006826171856  0.24999995891863444  0.25000011458236987  1.0000
  S   S2        1.0  0.7500000474204379  0.7499999763690319  0.7500001272430349  1.0000
  Os  Os1       1.0  1.75897832931794e-08  2.3637015201833846e-08  0.9999999587085222  1.0000
  Br  Br1       1.0  0.23962215568110926  0.2396222563525803  0.7603777425104769  1.0000
  Br  Br2       1.0  0.7603777719259174  0.7603777751714949  0.23962216889325208  1.0000
  Br  Br3       1.0  0.7603777593225388  0.23962220596336975  0.2396221961780534  1.0000
  Br  Br4       1.0  0.2396222130479844  0.7603778154305576  0.7603777461578517  1.0000
  Br  Br5       1.0  0.23962221535894274  0.7603777803240299  0.23962214931067086  1.0000
  Br  Br6       1.0  0.7603777554363489  0.2396222123678066  0.760377775078969  1.0000
