data_image0
_chemical_formula_structural       S2PBr6
_chemical_formula_sum              "S2 P1 Br6"
_cell_length_a       7.659765012132423
_cell_length_b       7.659764204969937
_cell_length_c       7.659764640909526
_cell_angle_alpha    60.000003971843235
_cell_angle_beta     60.000003488137835
_cell_angle_gamma    60.00000202170053

_space_group_name_H-M_alt    "P 1"
_space_group_IT_number       1

loop_
  _space_group_symop_operation_xyz
  'x, y, z'

loop_
  _atom_site_type_symbol
  _atom_site_label
  _atom_site_symmetry_multiplicity
  _atom_site_fract_x
  _atom_site_fract_y
  _atom_site_fract_z
  _atom_site_occupancy
  S   S1        1.0  0.24999986725644696  0.24999995930092994  0.2500003180015344  1.0000
  S   S2        1.0  0.749999912011092  0.7500005526524094  0.7499999327720798  1.0000
  P   P1        1.0  0.9999999570144008  0.999999961625608  0.9999999740983131  1.0000
  Br  Br1       1.0  0.21105585180167796  0.21105569967200966  0.7889440824375511  1.0000
  Br  Br2       1.0  0.7889442042300399  0.78894418549964  0.21105581983001465  1.0000
  Br  Br3       1.0  0.7889442433514114  0.2110558311033985  0.21105565350854877  1.0000
  Br  Br4       1.0  0.21105584835842434  0.7889440013034666  0.7889442207477003  1.0000
  Br  Br5       1.0  0.21105583275524373  0.7889442548741838  0.21105574258918888  1.0000
  Br  Br6       1.0  0.788944273679385  0.21105556953802274  0.7889442183830896  1.0000
