data_image0
_chemical_formula_structural       S2PCl6
_chemical_formula_sum              "S2 P1 Cl6"
_cell_length_a       6.772222551979796
_cell_length_b       6.772222842111169
_cell_length_c       6.77222209031171
_cell_angle_alpha    60.0000010328743
_cell_angle_beta     60.000000289720624
_cell_angle_gamma    60.00000646958428

_space_group_name_H-M_alt    "P 1"
_space_group_IT_number       1

loop_
  _space_group_symop_operation_xyz
  'x, y, z'

loop_
  _atom_site_type_symbol
  _atom_site_label
  _atom_site_symmetry_multiplicity
  _atom_site_fract_x
  _atom_site_fract_y
  _atom_site_fract_z
  _atom_site_occupancy
  S   S1        1.0  0.25000005492555544  0.25000000724222354  0.2500000022767077  1.0000
  S   S2        1.0  0.7500000400329273  0.7499999765145968  0.7499999692485548  1.0000
  P   P1        1.0  0.9999999747167321  1.4467860438845895e-08  1.2790804857436494e-08  1.0000
  Cl  Cl1       1.0  0.22407261920920007  0.22407265060938544  0.7759273690598563  1.0000
  Cl  Cl2       1.0  0.7759274007446502  0.7759273024032242  0.22407263171390643  1.0000
  Cl  Cl3       1.0  0.775927315404774  0.22407264049474415  0.22407262573763123  1.0000
  Cl  Cl4       1.0  0.22407264042779382  0.7759273667723445  0.775927381446153  1.0000
  Cl  Cl5       1.0  0.22407260016601022  0.7759274026960874  0.22407269542552752  1.0000
  Cl  Cl6       1.0  0.7759273534443608  0.22407263169824188  0.7759273362212397  1.0000
