data_image0
_chemical_formula_structural       S2PCl6
_chemical_formula_sum              "S2 P1 Cl6"
_cell_length_a       6.76730959080726
_cell_length_b       6.767309634315371
_cell_length_c       6.7673095004977
_cell_angle_alpha    60.00000076537309
_cell_angle_beta     60.00000069165432
_cell_angle_gamma    59.99999942605284

_space_group_name_H-M_alt    "P 1"
_space_group_IT_number       1

loop_
  _space_group_symop_operation_xyz
  'x, y, z'

loop_
  _atom_site_type_symbol
  _atom_site_label
  _atom_site_symmetry_multiplicity
  _atom_site_fract_x
  _atom_site_fract_y
  _atom_site_fract_z
  _atom_site_occupancy
  S   S1        1.0  0.24999992736812082  0.2500000691441721  0.24999997283616432  1.0000
  S   S2        1.0  0.7499999195067797  0.7500000409312992  0.74999994487943  1.0000
  P   P1        1.0  3.695291464913497e-08  0.9999999710432664  0.9999999738365275  1.0000
  Cl  Cl1       1.0  0.22427432336552205  0.2242742745675278  0.7757256764518149  1.0000
  Cl  Cl2       1.0  0.7757256718207988  0.7757257233006011  0.22427428379711797  1.0000
  Cl  Cl3       1.0  0.7757257057477502  0.22427431054990257  0.2242743317261554  1.0000
  Cl  Cl4       1.0  0.22427432068710368  0.7757256294047598  0.7757257645036912  1.0000
  Cl  Cl5       1.0  0.2242743048586657  0.7757257034322973  0.22427433071730948  1.0000
  Cl  Cl6       1.0  0.7757257957214942  0.2242742853868511  0.7757257040076414  1.0000
