data_image0
_chemical_formula_structural       S2PdCl6
_chemical_formula_sum              "S2 Pd1 Cl6"
_cell_length_a       6.854790609188636
_cell_length_b       6.854790574518366
_cell_length_c       6.854790482331633
_cell_angle_alpha    60.00000056625337
_cell_angle_beta     60.00000037099101
_cell_angle_gamma    60.00000084587181

_space_group_name_H-M_alt    "P 1"
_space_group_IT_number       1

loop_
  _space_group_symop_operation_xyz
  'x, y, z'

loop_
  _atom_site_type_symbol
  _atom_site_label
  _atom_site_symmetry_multiplicity
  _atom_site_fract_x
  _atom_site_fract_y
  _atom_site_fract_z
  _atom_site_occupancy
  S   S1        1.0  0.25000000334248074  0.25000005688348553  0.24999996073756917  1.0000
  S   S2        1.0  0.7499999438554622  0.7500001367031717  0.7499998272363069  1.0000
  Pd  Pd1       1.0  2.893180435593356e-09  0.9999999660527159  5.1997896624583414e-08  1.0000
  Cl  Cl1       1.0  0.24038636223447096  0.2403862728376224  0.7596137008709792  1.0000
  Cl  Cl2       1.0  0.759613661791534  0.7596136902648429  0.24038634628518546  1.0000
  Cl  Cl3       1.0  0.7596136598483525  0.24038629891169602  0.24038639495214398  1.0000
  Cl  Cl4       1.0  0.24038633804285872  0.759613621309989  0.7596136969236446  1.0000
  Cl  Cl5       1.0  0.24038636319926904  0.7596135951085197  0.24038636596552557  1.0000
  Cl  Cl6       1.0  0.7596136467550405  0.24038636978064465  0.7596136712859655  1.0000
