data_image0
_chemical_formula_structural       S2PdBr6
_chemical_formula_sum              "S2 Pd1 Br6"
_cell_length_a       7.137444069008711
_cell_length_b       7.1374435755698835
_cell_length_c       7.137443541728825
_cell_angle_alpha    59.99999832340971
_cell_angle_beta     60.000000199684365
_cell_angle_gamma    60.000000011517024

_space_group_name_H-M_alt    "P 1"
_space_group_IT_number       1

loop_
  _space_group_symop_operation_xyz
  'x, y, z'

loop_
  _atom_site_type_symbol
  _atom_site_label
  _atom_site_symmetry_multiplicity
  _atom_site_fract_x
  _atom_site_fract_y
  _atom_site_fract_z
  _atom_site_occupancy
  S   S1        1.0  0.24999997362895368  0.25000005445904006  0.2500000691999553  1.0000
  S   S2        1.0  0.7500000956773453  0.7500000466929765  0.750000053852188  1.0000
  Pd  Pd1       1.0  5.42540139498669e-09  0.9999999982840567  0.999999996744209  1.0000
  Br  Br1       1.0  0.2471419007701698  0.2471418957528591  0.7528580056134839  1.0000
  Br  Br2       1.0  0.7528580811437849  0.7528580938628409  0.24714188625239128  1.0000
  Br  Br3       1.0  0.7528581456585304  0.24714191524846468  0.24714184650123855  1.0000
  Br  Br4       1.0  0.24714182416252148  0.7528580863788376  0.7528581322711231  1.0000
  Br  Br5       1.0  0.24714190624406043  0.7528580685781704  0.24714186729506973  1.0000
  Br  Br6       1.0  0.752858066585547  0.24714183180847324  0.7528581507859118  1.0000
