data_image0
_chemical_formula_structural       S2PdI6
_chemical_formula_sum              "S2 Pd1 I6"
_cell_length_a       7.495716253156512
_cell_length_b       7.49571642739793
_cell_length_c       7.495716527651179
_cell_angle_alpha    59.99999851041493
_cell_angle_beta     59.99999784945415
_cell_angle_gamma    59.999998965994415

_space_group_name_H-M_alt    "P 1"
_space_group_IT_number       1

loop_
  _space_group_symop_operation_xyz
  'x, y, z'

loop_
  _atom_site_type_symbol
  _atom_site_label
  _atom_site_symmetry_multiplicity
  _atom_site_fract_x
  _atom_site_fract_y
  _atom_site_fract_z
  _atom_site_occupancy
  S   S1        1.0  0.24999987475465724  0.2500000211579413  0.2500001051465424  1.0000
  S   S2        1.0  0.7499999147446572  0.7500001255630263  0.7500000404316305  1.0000
  Pd  Pd1       1.0  1.5404806155391595e-08  0.9999999999999999  4.304454362717395e-09  1.0000
  I   I1        1.0  0.25476932230484645  0.254769198115325  0.7452307242719324  1.0000
  I   I2        1.0  0.7452307692408993  0.7452307541684026  0.2547692140806875  1.0000
  I   I3        1.0  0.7452307934098886  0.25476916245686304  0.25476925518381205  1.0000
  I   I4        1.0  0.2547692620827471  0.7452307685858216  0.7452307278250281  1.0000
  I   I5        1.0  0.25476923346484937  0.7452307759352607  0.25476919866674247  1.0000
  I   I6        1.0  0.7452308140290138  0.2547691975895104  0.7452307244093919  1.0000
