data_image0
_chemical_formula_structural       S2PdF6
_chemical_formula_sum              "S2 Pd1 F6"
_cell_length_a       4.8920428011887935
_cell_length_b       4.892042590650889
_cell_length_c       4.892042849055464
_cell_angle_alpha    60.000001053852976
_cell_angle_beta     60.00000013390266
_cell_angle_gamma    60.00000171612284

_space_group_name_H-M_alt    "P 1"
_space_group_IT_number       1

loop_
  _space_group_symop_operation_xyz
  'x, y, z'

loop_
  _atom_site_type_symbol
  _atom_site_label
  _atom_site_symmetry_multiplicity
  _atom_site_fract_x
  _atom_site_fract_y
  _atom_site_fract_z
  _atom_site_occupancy
  S   S1        1.0  0.24999993683096242  0.2500002842776049  0.24999968617532917  1.0000
  S   S2        1.0  0.7499999088063266  0.7500001117835239  0.7499998418685923  1.0000
  Pd  Pd1       1.0  0.9999973917808229  7.966279763126696e-06  0.9999896983874096  1.0000
  F   F1        1.0  0.2718291538062082  0.27182990491451015  0.7281699235665243  1.0000
  F   F2        1.0  0.7281665707830801  0.7281673466940446  0.2718324870297593  1.0000
  F   F3        1.0  0.7281676756217916  0.27183265667481005  0.27183146472133524  1.0000
  F   F4        1.0  0.27183020715217016  0.728170165321368  0.728168817060233  1.0000
  F   F5        1.0  0.27183586803007925  0.7281645061258822  0.27183539501206816  1.0000
  F   F6        1.0  0.728173272110095  0.27182708997519134  0.7281726939415143  1.0000
