data_image0
_chemical_formula_structural       S2PF6
_chemical_formula_sum              "S2 P1 F6"
_cell_length_a       7.693269881556938
_cell_length_b       7.82135802737959
_cell_length_c       6.47200923335835
_cell_angle_alpha    50.284556165576625
_cell_angle_beta     41.60198267510471
_cell_angle_gamma    40.87737084096281

_space_group_name_H-M_alt    "P 1"
_space_group_IT_number       1

loop_
  _space_group_symop_operation_xyz
  'x, y, z'

loop_
  _atom_site_type_symbol
  _atom_site_label
  _atom_site_symmetry_multiplicity
  _atom_site_fract_x
  _atom_site_fract_y
  _atom_site_fract_z
  _atom_site_occupancy
  S   S1        1.0  0.4829803011118116  0.1740126038334868  0.8678820319221547  1.0000
  S   S2        1.0  0.6157654111987965  0.8014562106060763  0.9480095021690083  1.0000
  P   P1        1.0  0.757440168452676  0.10821326694343653  0.9488951591384054  1.0000
  F   F1        1.0  0.4817346820568462  0.40103143054331736  0.04417666628609407  1.0000
  F   F2        1.0  0.6195641982106441  0.6640604396870269  0.2669140009175586  1.0000
  F   F3        1.0  0.7323134948632729  0.9819452909525922  0.27325073926292626  1.0000
  F   F4        1.0  0.024337054067154175  0.8177834593510486  0.8464993039746809  1.0000
  F   F5        1.0  0.281505395643415  0.866711322603704  0.11070898017955645  1.0000
  F   F6        1.0  0.00450465335329886  0.1847845214555003  0.6935386821464269  1.0000
