data_image0
_chemical_formula_structural       S2PF6
_chemical_formula_sum              "S2 P1 F6"
_cell_length_a       4.837495404542281
_cell_length_b       4.837493127239411
_cell_length_c       4.837489692141554
_cell_angle_alpha    59.99997299655962
_cell_angle_beta     59.99997329407346
_cell_angle_gamma    60.000030443094026

_space_group_name_H-M_alt    "P 1"
_space_group_IT_number       1

loop_
  _space_group_symop_operation_xyz
  'x, y, z'

loop_
  _atom_site_type_symbol
  _atom_site_label
  _atom_site_symmetry_multiplicity
  _atom_site_fract_x
  _atom_site_fract_y
  _atom_site_fract_z
  _atom_site_occupancy
  S   S1        1.0  0.25000646306341007  0.2500158811342712  0.24991800217320487  1.0000
  S   S2        1.0  0.7500330325855594  0.7500183279274828  0.7499066821491344  1.0000
  P   P1        1.0  0.9999335239112834  0.9999586053596335  0.00022827997092352679  1.0000
  F   F1        1.0  0.26992243625308804  0.2699132499705004  0.7300653507713988  1.0000
  F   F2        1.0  0.7300743174518528  0.7300723666493556  0.2699076862738136  1.0000
  F   F3        1.0  0.7300650577395599  0.2699452242401332  0.26991710449316114  1.0000
  F   F4        1.0  0.26991418189764715  0.7301016208326174  0.730072959148596  1.0000
  F   F5        1.0  0.2699502897450121  0.730062362796946  0.2699118234816376  1.0000
  F   F6        1.0  0.7301014299872761  0.26991217985793153  0.7300723115073553  1.0000
