data_image0
_chemical_formula_structural       S2PI6
_chemical_formula_sum              "S2 P1 I6"
_cell_length_a       7.601983952511287
_cell_length_b       7.601984041718733
_cell_length_c       7.601983616713852
_cell_angle_alpha    59.999995705385835
_cell_angle_beta     59.999997887677324
_cell_angle_gamma    59.99999737167188

_space_group_name_H-M_alt    "P 1"
_space_group_IT_number       1

loop_
  _space_group_symop_operation_xyz
  'x, y, z'

loop_
  _atom_site_type_symbol
  _atom_site_label
  _atom_site_symmetry_multiplicity
  _atom_site_fract_x
  _atom_site_fract_y
  _atom_site_fract_z
  _atom_site_occupancy
  S   S1        1.0  0.25000064051768983  0.24999954672420363  0.2500000053098348  1.0000
  S   S2        1.0  0.7500001964324519  0.7499993361617209  0.7500005975830255  1.0000
  P   P1        1.0  0.9999998776076103  1.2566469933660316e-07  1.678008860481535e-08  1.0000
  I   I1        1.0  0.2597441776194973  0.2597445277098879  0.7402555958057324  1.0000
  I   I2        1.0  0.7402555687949051  0.7402557858203473  0.2597442858608727  1.0000
  I   I3        1.0  0.7402555718967031  0.2597444492188324  0.2597441427493437  1.0000
  I   I4        1.0  0.2597442191199837  0.740255835311867  0.7402555469534278  1.0000
  I   I5        1.0  0.25974420723864966  0.7402558590687183  0.2597442476252418  1.0000
  I   I6        1.0  0.7402555483341446  0.25974453179364265  0.7402555447554858  1.0000
