data_image0
_chemical_formula_structural       S2PI6
_chemical_formula_sum              "S2 P1 I6"
_cell_length_a       7.602375239717355
_cell_length_b       7.602374794727663
_cell_length_c       7.602375869455789
_cell_angle_alpha    59.99999577586759
_cell_angle_beta     59.99999570903298
_cell_angle_gamma    59.99999559797063

_space_group_name_H-M_alt    "P 1"
_space_group_IT_number       1

loop_
  _space_group_symop_operation_xyz
  'x, y, z'

loop_
  _atom_site_type_symbol
  _atom_site_label
  _atom_site_symmetry_multiplicity
  _atom_site_fract_x
  _atom_site_fract_y
  _atom_site_fract_z
  _atom_site_occupancy
  S   S1        1.0  0.24999988469603962  0.2499986544187049  0.2500007632603458  1.0000
  S   S2        1.0  0.7499997993266366  0.7499989677769029  0.7500016330354239  1.0000
  P   P1        1.0  7.71700682331568e-08  4.1886077723451545e-08  0.9999997300114034  1.0000
  I   I1        1.0  0.25970258222176146  0.2597027480520621  0.7402970460260615  1.0000
  I   I2        1.0  0.7402977387684263  0.7402979253833922  0.2597018764123587  1.0000
  I   I3        1.0  0.7402976450696493  0.25970278238170447  0.25970207276483737  1.0000
  I   I4        1.0  0.25970215499073485  0.7402981278712132  0.7402973705587009  1.0000
  I   I5        1.0  0.2597026887657271  0.740297884162372  0.2597021796164313  1.0000
  I   I6        1.0  0.7402974210543465  0.25970287143424775  0.7402973413700428  1.0000
