data_image0
_chemical_formula_structural       S2RhI6
_chemical_formula_sum              "S2 Rh1 I6"
_cell_length_a       7.470469561314559
_cell_length_b       7.470469192494153
_cell_length_c       7.470469344474464
_cell_angle_alpha    59.999997897337394
_cell_angle_beta     60.00000069308949
_cell_angle_gamma    60.00000027968567

_space_group_name_H-M_alt    "P 1"
_space_group_IT_number       1

loop_
  _space_group_symop_operation_xyz
  'x, y, z'

loop_
  _atom_site_type_symbol
  _atom_site_label
  _atom_site_symmetry_multiplicity
  _atom_site_fract_x
  _atom_site_fract_y
  _atom_site_fract_z
  _atom_site_occupancy
  S   S1        1.0  0.2500000301053426  0.24999983699921263  0.25000004821775784  1.0000
  S   S2        1.0  0.7499999680431484  0.7499999520092638  0.7499999424485683  1.0000
  Rh  Rh1       1.0  1.2614604072003917e-08  4.0986211009952695e-08  0.9999999772154039  1.0000
  I   I1        1.0  0.2508846140489102  0.2508846217049987  0.749115418465022  1.0000
  I   I2        1.0  0.7491153777720504  0.7491154181390848  0.2508846427062363  1.0000
  I   I3        1.0  0.7491154176838623  0.25088459598217594  0.2508846082818313  1.0000
  I   I4        1.0  0.25088456775074114  0.749115481569222  0.7491153930550167  1.0000
  I   I5        1.0  0.2508845851480641  0.7491154334000729  0.2508845746911079  1.0000
  I   I6        1.0  0.7491154264855382  0.25088462119904775  0.7491154076205279  1.0000
