data_image0
_chemical_formula_structural       S2RhF6
_chemical_formula_sum              "S2 Rh1 F6"
_cell_length_a       4.777001027695222
_cell_length_b       4.777000685913262
_cell_length_c       4.777000267034781
_cell_angle_alpha    59.99999706854814
_cell_angle_beta     59.99999286614698
_cell_angle_gamma    59.999997391403966

_space_group_name_H-M_alt    "P 1"
_space_group_IT_number       1

loop_
  _space_group_symop_operation_xyz
  'x, y, z'

loop_
  _atom_site_type_symbol
  _atom_site_label
  _atom_site_symmetry_multiplicity
  _atom_site_fract_x
  _atom_site_fract_y
  _atom_site_fract_z
  _atom_site_occupancy
  S   S1        1.0  0.25000027377110173  0.2500005773996445  0.24999977787209296  1.0000
  S   S2        1.0  0.7500003744403841  0.7500007015366384  0.7499993857606088  1.0000
  Rh  Rh1       1.0  3.2643134148169887e-06  5.268684187584733e-06  0.9999964389643013  1.0000
  F   F1        1.0  0.2717193137597706  0.27171949683956936  0.7282807693082659  1.0000
  F   F2        1.0  0.7282740495763245  0.7282743546620621  0.271725779787562  1.0000
  F   F3        1.0  0.728278427366694  0.2717222765415003  0.27172144010210725  1.0000
  F   F4        1.0  0.2717236221774569  0.7282769231233744  0.728276389902155  1.0000
  F   F5        1.0  0.2717230667358449  0.7282776728620867  0.27172247276529166  1.0000
  F   F6        1.0  0.7282776950010103  0.27172276513579396  0.7282774795268285  1.0000
