data_image0
_chemical_formula_structural       S2RhBr6
_chemical_formula_sum              "S2 Rh1 Br6"
_cell_length_a       7.102937111986586
_cell_length_b       7.1029369883305495
_cell_length_c       7.1029371780446
_cell_angle_alpha    60.0000004377492
_cell_angle_beta     60.00000154471567
_cell_angle_gamma    60.0000003712315

_space_group_name_H-M_alt    "P 1"
_space_group_IT_number       1

loop_
  _space_group_symop_operation_xyz
  'x, y, z'

loop_
  _atom_site_type_symbol
  _atom_site_label
  _atom_site_symmetry_multiplicity
  _atom_site_fract_x
  _atom_site_fract_y
  _atom_site_fract_z
  _atom_site_occupancy
  S   S1        1.0  0.25000000466279915  0.25000004526960695  0.2499999656810949  1.0000
  S   S2        1.0  0.7500000346995754  0.7499998737183355  0.7500000149171994  1.0000
  Rh  Rh1       1.0  7.2577316953563446e-09  1.7242795071965254e-08  0.9999999849340003  1.0000
  Br  Br1       1.0  0.24479948856194325  0.244799534314026  0.7552005101953296  1.0000
  Br  Br2       1.0  0.755200469170521  0.7552004881306875  0.24479953269868518  1.0000
  Br  Br3       1.0  0.75520048645236  0.2447995264386864  0.24479949689360475  1.0000
  Br  Br4       1.0  0.2447995075209084  0.7552004994545859  0.7552005092613095  1.0000
  Br  Br5       1.0  0.24479951867910962  0.7552004764151272  0.2447995093749322  1.0000
  Br  Br6       1.0  0.7552004815179032  0.24479953568390897  0.7552004766314673  1.0000
