data_image0
_chemical_formula_structural       S2RhCl6
_chemical_formula_sum              "S2 Rh1 Cl6"
_cell_length_a       6.764116657308358
_cell_length_b       6.764116405829284
_cell_length_c       6.764116811912772
_cell_angle_alpha    60.00000000335917
_cell_angle_beta     59.99999958832631
_cell_angle_gamma    59.99999980321068

_space_group_name_H-M_alt    "P 1"
_space_group_IT_number       1

loop_
  _space_group_symop_operation_xyz
  'x, y, z'

loop_
  _atom_site_type_symbol
  _atom_site_label
  _atom_site_symmetry_multiplicity
  _atom_site_fract_x
  _atom_site_fract_y
  _atom_site_fract_z
  _atom_site_occupancy
  S   S1        1.0  0.24999991225475757  0.2500000271236017  0.2500000486233916  1.0000
  S   S2        1.0  0.7500000994115417  0.7500000125660969  0.749999886591284  1.0000
  Rh  Rh1       1.0  5.3283977501112385e-09  0.9999999891360983  0.9999999791135181  1.0000
  Cl  Cl1       1.0  0.23955356551099602  0.2395535601510306  0.7604464854629094  1.0000
  Cl  Cl2       1.0  0.7604464158239955  0.7604464885919214  0.2395535742267935  1.0000
  Cl  Cl3       1.0  0.7604465131713423  0.23955350135077563  0.23955358958685985  1.0000
  Cl  Cl4       1.0  0.23955352294761775  0.7604464496170646  0.7604464413331669  1.0000
  Cl  Cl5       1.0  0.2395535307613906  0.7604464258736761  0.2395535229968315  1.0000
  Cl  Cl6       1.0  0.7604464482127021  0.23955353776871405  0.7604464636308215  1.0000
