data_image0
_chemical_formula_structural       S2RuF6
_chemical_formula_sum              "S2 Ru1 F6"
_cell_length_a       4.799587229477025
_cell_length_b       4.799587549629664
_cell_length_c       4.79959040948817
_cell_angle_alpha    60.00004882644901
_cell_angle_beta     60.00004572221159
_cell_angle_gamma    60.00002250525699

_space_group_name_H-M_alt    "P 1"
_space_group_IT_number       1

loop_
  _space_group_symop_operation_xyz
  'x, y, z'

loop_
  _atom_site_type_symbol
  _atom_site_label
  _atom_site_symmetry_multiplicity
  _atom_site_fract_x
  _atom_site_fract_y
  _atom_site_fract_z
  _atom_site_occupancy
  S   S1        1.0  0.24999700852107928  0.2500051833576635  0.2499999270941842  1.0000
  S   S2        1.0  0.749994130190576  0.750002367633366  0.7500125708448291  1.0000
  Ru  Ru1       1.0  4.420437611093304e-06  0.9999983949337934  0.9999939731715682  1.0000
  F   F1        1.0  0.28136805053671315  0.28136811363437136  0.7186317658882162  1.0000
  F   F2        1.0  0.7186318991321607  0.7186319070737186  0.28136300275603715  1.0000
  F   F3        1.0  0.7186344228911175  0.2813684215753616  0.28136376577013117  1.0000
  F   F4        1.0  0.28136895655897015  0.7186280725872151  0.7186327743198966  1.0000
  F   F5        1.0  0.2813711371896693  0.7186308710140541  0.2813674683975818  1.0000
  F   F6        1.0  0.7186299212222874  0.2813668122761761  0.7186346276562516  1.0000
