data_image0
_chemical_formula_structural       S2RuCl6
_chemical_formula_sum              "S2 Ru1 Cl6"
_cell_length_a       6.913267452939365
_cell_length_b       6.913266513854099
_cell_length_c       6.913266737362699
_cell_angle_alpha    59.999998999230044
_cell_angle_beta     59.99999998531643
_cell_angle_gamma    59.99999828909619

_space_group_name_H-M_alt    "P 1"
_space_group_IT_number       1

loop_
  _space_group_symop_operation_xyz
  'x, y, z'

loop_
  _atom_site_type_symbol
  _atom_site_label
  _atom_site_symmetry_multiplicity
  _atom_site_fract_x
  _atom_site_fract_y
  _atom_site_fract_z
  _atom_site_occupancy
  S   S1        1.0  0.24999998776352286  0.24999999149508714  0.24999996947842187  1.0000
  S   S2        1.0  0.7500001854043541  0.7499998593321475  0.7499998780988306  1.0000
  Ru  Ru1       1.0  0.9999999909741982  0.9999999769693773  6.376251999052978e-08  1.0000
  Cl  Cl1       1.0  0.23401008854253752  0.23401014820416016  0.7659899006386219  1.0000
  Cl  Cl2       1.0  0.7659899427683157  0.765989842578402  0.23401013159424158  1.0000
  Cl  Cl3       1.0  0.7659898822416303  0.23401015611935277  0.23401015083026871  1.0000
  Cl  Cl4       1.0  0.23401003947126783  0.7659899179277692  0.7659898728718828  1.0000
  Cl  Cl5       1.0  0.23401003579953117  0.7659898840270828  0.23401019671535403  1.0000
  Cl  Cl6       1.0  0.7659898499432651  0.23401020773590298  0.7659898491323648  1.0000
