data_image0
_chemical_formula_structural       S2RuI6
_chemical_formula_sum              "S2 Ru1 I6"
_cell_length_a       7.517747664395453
_cell_length_b       7.517748187495311
_cell_length_c       7.517747353776261
_cell_angle_alpha    59.999999976306654
_cell_angle_beta     60.00000156968378
_cell_angle_gamma    60.000000340455664

_space_group_name_H-M_alt    "P 1"
_space_group_IT_number       1

loop_
  _space_group_symop_operation_xyz
  'x, y, z'

loop_
  _atom_site_type_symbol
  _atom_site_label
  _atom_site_symmetry_multiplicity
  _atom_site_fract_x
  _atom_site_fract_y
  _atom_site_fract_z
  _atom_site_occupancy
  S   S1        1.0  0.25000005277577414  0.24999995505994468  0.25000006040323564  1.0000
  S   S2        1.0  0.7499999919131826  0.7500000003982935  0.7499999666854174  1.0000
  Ru  Ru1       1.0  1.073577658984565e-08  2.7695345278841345e-08  0.99999996482221  1.0000
  I   I1        1.0  0.25183287098647056  0.25183284911076  0.7481670822609975  1.0000
  I   I2        1.0  0.7481671199888882  0.7481671845461022  0.2518328647456698  1.0000
  I   I3        1.0  0.748167144790245  0.25183282114035627  0.2518328799676114  1.0000
  I   I4        1.0  0.25183285914103176  0.7481671506092632  0.7481671247693624  1.0000
  I   I5        1.0  0.25183281937831786  0.7481671424399364  0.2518329246109563  1.0000
  I   I6        1.0  0.7481671225393003  0.25183288632950923  0.748167122528503  1.0000
