data_image0
_chemical_formula_structural       S2RuBr6
_chemical_formula_sum              "S2 Ru1 Br6"
_cell_length_a       7.187324473509114
_cell_length_b       7.187324800279155
_cell_length_c       7.187324750966086
_cell_angle_alpha    59.99999975825685
_cell_angle_beta     59.99999946796149
_cell_angle_gamma    60.0000004581037

_space_group_name_H-M_alt    "P 1"
_space_group_IT_number       1

loop_
  _space_group_symop_operation_xyz
  'x, y, z'

loop_
  _atom_site_type_symbol
  _atom_site_label
  _atom_site_symmetry_multiplicity
  _atom_site_fract_x
  _atom_site_fract_y
  _atom_site_fract_z
  _atom_site_occupancy
  S   S1        1.0  0.24999992664450857  0.2499999758969305  0.25000012640329233  1.0000
  S   S2        1.0  0.7499999363229897  0.7499999549553436  0.7500000661600846  1.0000
  Ru  Ru1       1.0  1.549777945040308e-08  1.7040346298047133e-09  0.999999960789651  1.0000
  Br  Br1       1.0  0.24324276389936875  0.24324269671606716  0.7567572658916905  1.0000
  Br  Br2       1.0  0.7567573108274869  0.7567572784411015  0.24324272628997137  1.0000
  Br  Br3       1.0  0.7567573210782813  0.24324270172023194  0.24324266505157024  1.0000
  Br  Br4       1.0  0.24324268527843287  0.7567573484144507  0.7567572709555503  1.0000
  Br  Br5       1.0  0.24324272237134625  0.7567573508844662  0.24324263511281777  1.0000
  Br  Br6       1.0  0.7567573284990273  0.24324269584214747  0.7567572984289053  1.0000
