data_image0
_chemical_formula_structural       S2SeF6
_chemical_formula_sum              "S2 Se1 F6"
_cell_length_a       4.328840110571383
_cell_length_b       2.7093392754685635
_cell_length_c       3.8559772953613245
_cell_angle_alpha    59.84671510448742
_cell_angle_beta     78.30799539493485
_cell_angle_gamma    77.09940687222647

_space_group_name_H-M_alt    "P 1"
_space_group_IT_number       1

loop_
  _space_group_symop_operation_xyz
  'x, y, z'

loop_
  _atom_site_type_symbol
  _atom_site_label
  _atom_site_symmetry_multiplicity
  _atom_site_fract_x
  _atom_site_fract_y
  _atom_site_fract_z
  _atom_site_occupancy
  S   S1        1.0  0.548919240560771  0.7385269381462729  0.7523069060170927  1.0000
  S   S2        1.0  0.2123533938158273  0.1742057346361125  0.05499440766768604  1.0000
  Se  Se1       1.0  0.40334937080695404  0.8553916729608189  0.24305921664642172  1.0000
  F   F1        1.0  0.45361198829264016  0.6611306525351651  0.11749402684636889  1.0000
  F   F2        1.0  0.011312028872662028  0.794842696281167  0.3826766428093518  1.0000
  F   F3        1.0  0.644277780783139  0.4361718041132904  0.0538673705599321  1.0000
  F   F4        1.0  0.5281204938807268  0.3973285004792809  0.1292060308724543  1.0000
  F   F5        1.0  0.9431088253664989  0.32248315341880723  0.9216374944896527  1.0000
  F   F6        1.0  0.21219713448589386  0.17790527144682344  0.05385720645559866  1.0000
