data_image0
_chemical_formula_structural       S2SeCl6
_chemical_formula_sum              "S2 Se1 Cl6"
_cell_length_a       6.652574010347097
_cell_length_b       6.652573992549745
_cell_length_c       6.6525743779946795
_cell_angle_alpha    59.99999892628
_cell_angle_beta     59.99999912421722
_cell_angle_gamma    59.9999982498455

_space_group_name_H-M_alt    "P 1"
_space_group_IT_number       1

loop_
  _space_group_symop_operation_xyz
  'x, y, z'

loop_
  _atom_site_type_symbol
  _atom_site_label
  _atom_site_symmetry_multiplicity
  _atom_site_fract_x
  _atom_site_fract_y
  _atom_site_fract_z
  _atom_site_occupancy
  S   S1        1.0  0.25000005884145426  0.25000002233910656  0.2500000260857502  1.0000
  S   S2        1.0  0.7499999754094897  0.750000024674113  0.7500000917575101  1.0000
  Se  Se1       1.0  0.9999999771197727  1.6569081484348253e-08  0.9999999700856682  1.0000
  Cl  Cl1       1.0  0.24986353586680463  0.24986355684143066  0.7501364107388226  1.0000
  Cl  Cl2       1.0  0.7501364578850391  0.7501364294184897  0.24986355179532171  1.0000
  Cl  Cl3       1.0  0.7501364444573818  0.24986352929824124  0.24986352505923545  1.0000
  Cl  Cl4       1.0  0.2498635460336004  0.750136445915625  0.7501364596601415  1.0000
  Cl  Cl5       1.0  0.24986355835597768  0.7501364466177067  0.24986350903643134  1.0000
  Cl  Cl6       1.0  0.7501364465291447  0.24986353227817737  0.7501364486067369  1.0000
