data_image0
_chemical_formula_structural       S2SeI6
_chemical_formula_sum              "S2 Se1 I6"
_cell_length_a       7.6820955514534495
_cell_length_b       7.682095755679447
_cell_length_c       7.682095194279715
_cell_angle_alpha    60.00000236818786
_cell_angle_beta     60.00000087719755
_cell_angle_gamma    60.00000260519783

_space_group_name_H-M_alt    "P 1"
_space_group_IT_number       1

loop_
  _space_group_symop_operation_xyz
  'x, y, z'

loop_
  _atom_site_type_symbol
  _atom_site_label
  _atom_site_symmetry_multiplicity
  _atom_site_fract_x
  _atom_site_fract_y
  _atom_site_fract_z
  _atom_site_occupancy
  S   S1        1.0  0.25000007018803333  0.24999987734917778  0.25000005520187196  1.0000
  S   S2        1.0  0.7500000169445435  0.7500000640987057  0.7499998693547728  1.0000
  Se  Se1       1.0  5.996781479007871e-09  2.7102841294779794e-08  0.9999999977691989  1.0000
  I   I1        1.0  0.26757234882795583  0.267572327629149  0.7324276871147545  1.0000
  I   I2        1.0  0.7324276559359227  0.7324277030986813  0.26757231990032787  1.0000
  I   I3        1.0  0.7324276151639462  0.26757230766549156  0.26757238076683665  1.0000
  I   I4        1.0  0.2675723892066124  0.7324276385652456  0.7324276088139549  1.0000
  I   I5        1.0  0.26757222879248416  0.7324277412924814  0.26757239313256126  1.0000
  I   I6        1.0  0.7324276725149607  0.2675723021896263  0.7324276917768049  1.0000
