data_image0
_chemical_formula_structural       S2SeBr6
_chemical_formula_sum              "S2 Se1 Br6"
_cell_length_a       7.262343796443468
_cell_length_b       7.262342768845815
_cell_length_c       7.262343707857044
_cell_angle_alpha    59.99999924602723
_cell_angle_beta     59.99999971736477
_cell_angle_gamma    60.00000219038315

_space_group_name_H-M_alt    "P 1"
_space_group_IT_number       1

loop_
  _space_group_symop_operation_xyz
  'x, y, z'

loop_
  _atom_site_type_symbol
  _atom_site_label
  _atom_site_symmetry_multiplicity
  _atom_site_fract_x
  _atom_site_fract_y
  _atom_site_fract_z
  _atom_site_occupancy
  S   S1        1.0  0.2500000558493934  0.2500000994832089  0.249999950561426  1.0000
  S   S2        1.0  0.7500001481213573  0.7499999274345441  0.750000181847884  1.0000
  Se  Se1       1.0  5.702994936617207e-08  3.8787951058441605e-08  1.1457303257737286e-07  1.0000
  Br  Br1       1.0  0.2510832610839346  0.2510833195948643  0.7489166974385967  1.0000
  Br  Br2       1.0  0.748916668335054  0.7489166246876826  0.251083325778313  1.0000
  Br  Br3       1.0  0.7489165589551315  0.2510834297243649  0.2510833679703326  1.0000
  Br  Br4       1.0  0.251083459166773  0.7489164487873242  0.748916497822155  1.0000
  Br  Br5       1.0  0.2510833675358296  0.7489165861378347  0.251083311807552  1.0000
  Br  Br6       1.0  0.7489164358059494  0.25108352172862236  0.7489165177813368  1.0000
