data_image0
_chemical_formula_structural       S2SiI6
_chemical_formula_sum              "S2 Si1 I6"
_cell_length_a       7.622004418543396
_cell_length_b       7.622004112363262
_cell_length_c       7.622004102245529
_cell_angle_alpha    60.00000188667968
_cell_angle_beta     60.00000390815387
_cell_angle_gamma    60.00000407596634

_space_group_name_H-M_alt    "P 1"
_space_group_IT_number       1

loop_
  _space_group_symop_operation_xyz
  'x, y, z'

loop_
  _atom_site_type_symbol
  _atom_site_label
  _atom_site_symmetry_multiplicity
  _atom_site_fract_x
  _atom_site_fract_y
  _atom_site_fract_z
  _atom_site_occupancy
  S   S1        1.0  0.24999958252318555  0.2500003518983785  0.2500000474738844  1.0000
  S   S2        1.0  0.7500001793011595  0.7499998055627086  0.7499999282949307  1.0000
  Si  Si1       1.0  3.352860339838585e-08  0.9999999630423572  0.9999999885946109  1.0000
  I   I1        1.0  0.24951632963901044  0.2495164341465152  0.7504836286926262  1.0000
  I   I2        1.0  0.7504837171994152  0.7504835272783851  0.2495164088585075  1.0000
  I   I3        1.0  0.750483666476728  0.24951633669852638  0.2495164129219922  1.0000
  I   I4        1.0  0.24951639063033676  0.7504835893755847  0.7504836502901251  1.0000
  I   I5        1.0  0.24951642659168066  0.7504835885305116  0.24951637939830826  1.0000
  I   I6        1.0  0.7504836846546917  0.24951641145888845  0.7504835489390048  1.0000
