data_image0
_chemical_formula_structural       S2SiBr6
_chemical_formula_sum              "S2 Si1 Br6"
_cell_length_a       7.130373500355655
_cell_length_b       7.130373501390674
_cell_length_c       7.130373233549803
_cell_angle_alpha    60.00000183473306
_cell_angle_beta     60.00000312123338
_cell_angle_gamma    60.00000037033247

_space_group_name_H-M_alt    "P 1"
_space_group_IT_number       1

loop_
  _space_group_symop_operation_xyz
  'x, y, z'

loop_
  _atom_site_type_symbol
  _atom_site_label
  _atom_site_symmetry_multiplicity
  _atom_site_fract_x
  _atom_site_fract_y
  _atom_site_fract_z
  _atom_site_occupancy
  S   S1        1.0  0.2500000275323015  0.24999993066289422  0.25000009615458946  1.0000
  S   S2        1.0  0.750000127872991  0.7499999087885246  0.750000116266482  1.0000
  Si  Si1       1.0  0.9999999546227823  5.839992181681058e-08  0.9999999387930535  1.0000
  Br  Br1       1.0  0.23725603786585872  0.237256011448187  0.7627439161737295  1.0000
  Br  Br2       1.0  0.7627439150764522  0.7627440564499852  0.2372559648990477  1.0000
  Br  Br3       1.0  0.7627440057945457  0.237256037817766  0.23725600853045  1.0000
  Br  Br4       1.0  0.23725594716462173  0.7627440008804455  0.7627439782932024  1.0000
  Br  Br5       1.0  0.23725599972195524  0.762743973610614  0.23725598665138492  1.0000
  Br  Br6       1.0  0.7627439782160134  0.23725602901705767  0.7627439888887237  1.0000
