data_image0
_chemical_formula_structural       S2SiF6
_chemical_formula_sum              "S2 Si1 F6"
_cell_length_a       4.600443468712541
_cell_length_b       4.6004439263780945
_cell_length_c       4.600443594359743
_cell_angle_alpha    59.99999779811146
_cell_angle_beta     59.99999842914244
_cell_angle_gamma    60.00000029167406

_space_group_name_H-M_alt    "P 1"
_space_group_IT_number       1

loop_
  _space_group_symop_operation_xyz
  'x, y, z'

loop_
  _atom_site_type_symbol
  _atom_site_label
  _atom_site_symmetry_multiplicity
  _atom_site_fract_x
  _atom_site_fract_y
  _atom_site_fract_z
  _atom_site_occupancy
  S   S1        1.0  0.2500007952874551  0.2500025990933767  0.24999589806951247  1.0000
  S   S2        1.0  0.7500007241644828  0.750002842866269  0.7499947758137361  1.0000
  Si  Si1       1.0  0.9999999106110933  0.9999995980029528  6.804336764865564e-07  1.0000
  F   F1        1.0  0.27119730005565046  0.2711967041276842  0.7288036426451837  1.0000
  F   F2        1.0  0.7288017154000913  0.728801445978275  0.271199052389397  1.0000
  F   F3        1.0  0.7288021021063577  0.27119716009354344  0.2711990950765645  1.0000
  F   F4        1.0  0.271197361686608  0.7288016103124271  0.7288037720929883  1.0000
  F   F5        1.0  0.27119774750802755  0.7288012602529197  0.2711992369909185  1.0000
  F   F6        1.0  0.7288023189450163  0.271196794012643  0.7288039151576805  1.0000
