data_image0
_chemical_formula_structural       S2SiCl6
_chemical_formula_sum              "S2 Si1 Cl6"
_cell_length_a       6.616918655251138
_cell_length_b       6.616917293186169
_cell_length_c       6.616918220684312
_cell_angle_alpha    59.99999245430318
_cell_angle_beta     60.000000866672764
_cell_angle_gamma    60.000006009572715

_space_group_name_H-M_alt    "P 1"
_space_group_IT_number       1

loop_
  _space_group_symop_operation_xyz
  'x, y, z'

loop_
  _atom_site_type_symbol
  _atom_site_label
  _atom_site_symmetry_multiplicity
  _atom_site_fract_x
  _atom_site_fract_y
  _atom_site_fract_z
  _atom_site_occupancy
  S   S1        1.0  0.25000006821243215  0.2499999579114417  0.24999997136676633  1.0000
  S   S2        1.0  0.749999987858058  0.7500000162558872  0.7499999980787403  1.0000
  Si  Si1       1.0  0.9999999696986255  3.331673291209657e-08  0.9999999712893244  1.0000
  Cl  Cl1       1.0  0.23307800986047744  0.2330780173270278  0.7669220075929154  1.0000
  Cl  Cl2       1.0  0.7669220044522824  0.766921919821698  0.23307802390992258  1.0000
  Cl  Cl3       1.0  0.7669220204884603  0.23307800934575337  0.23307797157675939  1.0000
  Cl  Cl4       1.0  0.23307797067860703  0.7669220129457412  0.7669220017245426  1.0000
  Cl  Cl5       1.0  0.2330779393815272  0.7669219760894339  0.2330780827419707  1.0000
  Cl  Cl6       1.0  0.7669220397635816  0.2330780665622846  0.7669219604427984  1.0000
