data_image0
_chemical_formula_structural       S2TiI6
_chemical_formula_sum              "S2 Ti1 I6"
_cell_length_a       7.878429469786917
_cell_length_b       7.878429918274978
_cell_length_c       7.878430243069035
_cell_angle_alpha    60.00000358702669
_cell_angle_beta     59.99999873058099
_cell_angle_gamma    59.99999919860562

_space_group_name_H-M_alt    "P 1"
_space_group_IT_number       1

loop_
  _space_group_symop_operation_xyz
  'x, y, z'

loop_
  _atom_site_type_symbol
  _atom_site_label
  _atom_site_symmetry_multiplicity
  _atom_site_fract_x
  _atom_site_fract_y
  _atom_site_fract_z
  _atom_site_occupancy
  S   S1        1.0  0.2499997418925504  0.25000006744003617  0.2500000066857859  1.0000
  S   S2        1.0  0.7499999851653725  0.7500001619016612  0.7499995970583113  1.0000
  Ti  Ti1       1.0  3.878759745428094e-09  1.5545560296314806e-09  3.282341701016285e-08  1.0000
  I   I1        1.0  0.23697467508003817  0.23697454583821542  0.7630254396378952  1.0000
  I   I2        1.0  0.7630254842325309  0.7630252793193372  0.23697471871213924  1.0000
  I   I3        1.0  0.763025416931269  0.23697456762343233  0.23697469183550682  1.0000
  I   I4        1.0  0.23697468193409946  0.763025276188773  0.7630254290235355  1.0000
  I   I5        1.0  0.23697453812246166  0.7630254651244519  0.23697471842680096  1.0000
  I   I6        1.0  0.7630254835181067  0.23697463674379704  0.7630253615188751  1.0000
