data_image0
_chemical_formula_structural       S2TiF6
_chemical_formula_sum              "S2 Ti1 F6"
_cell_length_a       4.70440727000286
_cell_length_b       4.7044071635634115
_cell_length_c       4.704407339346358
_cell_angle_alpha    60.00000176352752
_cell_angle_beta     60.00000135812723
_cell_angle_gamma    60.000000534419044

_space_group_name_H-M_alt    "P 1"
_space_group_IT_number       1

loop_
  _space_group_symop_operation_xyz
  'x, y, z'

loop_
  _atom_site_type_symbol
  _atom_site_label
  _atom_site_symmetry_multiplicity
  _atom_site_fract_x
  _atom_site_fract_y
  _atom_site_fract_z
  _atom_site_occupancy
  S   S1        1.0  0.24999999431178382  0.24999996213081044  0.2499999757354307  1.0000
  S   S2        1.0  0.7499999773796808  0.7500000061487859  0.7500000252795905  1.0000
  Ti  Ti1       1.0  6.555280690105252e-08  0.9999999947932016  0.9999999549473326  1.0000
  F   F1        1.0  0.2824399735512335  0.282439916805382  0.717560029166785  1.0000
  F   F2        1.0  0.7175600340645056  0.7175600983353951  0.28243993895817526  1.0000
  F   F3        1.0  0.7175600638917565  0.2824399281647245  0.28243995903741903  1.0000
  F   F4        1.0  0.2824399001128567  0.717560099993048  0.7175600541439339  1.0000
  F   F5        1.0  0.28243992308897714  0.7175600804218414  0.28243996985857417  1.0000
  F   F6        1.0  0.7175600624617365  0.2824398904611556  0.7175600824437781  1.0000
