data_image0
_chemical_formula_structural       S2TiCl6
_chemical_formula_sum              "S2 Ti1 Cl6"
_cell_length_a       6.850211146907108
_cell_length_b       6.850210075431966
_cell_length_c       6.850211437592459
_cell_angle_alpha    59.99999425053971
_cell_angle_beta     59.99999913985954
_cell_angle_gamma    59.9999919327828

_space_group_name_H-M_alt    "P 1"
_space_group_IT_number       1

loop_
  _space_group_symop_operation_xyz
  'x, y, z'

loop_
  _atom_site_type_symbol
  _atom_site_label
  _atom_site_symmetry_multiplicity
  _atom_site_fract_x
  _atom_site_fract_y
  _atom_site_fract_z
  _atom_site_occupancy
  S   S1        1.0  0.25000002704974666  0.2499996719492829  0.2500003518024671  1.0000
  S   S2        1.0  0.7500000684639444  0.7500000349474563  0.7500002062255292  1.0000
  Ti  Ti1       1.0  0.9999999644817131  3.575788170948539e-08  0.999999954626125  1.0000
  Cl  Cl1       1.0  0.24042860454664977  0.24042888592937298  0.7595711568796205  1.0000
  Cl  Cl2       1.0  0.7595713135244408  0.7595712572135155  0.2404286454885617  1.0000
  Cl  Cl3       1.0  0.7595712715523318  0.2404286657154566  0.24042867621821068  1.0000
  Cl  Cl4       1.0  0.24042869724291968  0.7595713808811518  0.7595711651189294  1.0000
  Cl  Cl5       1.0  0.24042874535309736  0.7595713645568476  0.2404286070725994  1.0000
  Cl  Cl6       1.0  0.7595712802427325  0.24042870885817047  0.7595712450081694  1.0000
