data_image0
_chemical_formula_structural       S2TiBr6
_chemical_formula_sum              "S2 Ti1 Br6"
_cell_length_a       7.281927286577172
_cell_length_b       7.281926681618358
_cell_length_c       7.281926912522812
_cell_angle_alpha    60.00000007111955
_cell_angle_beta     60.00000025808985
_cell_angle_gamma    59.99999847941135

_space_group_name_H-M_alt    "P 1"
_space_group_IT_number       1

loop_
  _space_group_symop_operation_xyz
  'x, y, z'

loop_
  _atom_site_type_symbol
  _atom_site_label
  _atom_site_symmetry_multiplicity
  _atom_site_fract_x
  _atom_site_fract_y
  _atom_site_fract_z
  _atom_site_occupancy
  S   S1        1.0  0.25000008991483735  0.24999977573605078  0.25000006433479427  1.0000
  S   S2        1.0  0.7500002352021894  0.7499998637332158  0.7499998939488162  1.0000
  Ti  Ti1       1.0  0.9999999775912134  3.8683626087147703e-08  3.0313941738479826e-08  1.0000
  Br  Br1       1.0  0.24041767660944882  0.2404177112396888  0.7595823463434817  1.0000
  Br  Br2       1.0  0.7595822802797225  0.7595823621589431  0.24041767659104665  1.0000
  Br  Br3       1.0  0.7595822654397824  0.24041773379765202  0.2404177084064367  1.0000
  Br  Br4       1.0  0.2404175888263531  0.7595823715570174  0.7595822866914995  1.0000
  Br  Br5       1.0  0.2404176244121525  0.7595823587740829  0.2404177045088629  1.0000
  Br  Br6       1.0  0.7595822859775511  0.24041779703748956  0.7595822716304097  1.0000
