data_image0
_chemical_formula_structural       S2VBr6
_chemical_formula_sum              "S2 V1 Br6"
_cell_length_a       7.256239970020144
_cell_length_b       7.256240123876898
_cell_length_c       7.256239677299333
_cell_angle_alpha    59.999998703036155
_cell_angle_beta     59.99999747184572
_cell_angle_gamma    59.99999644967535

_space_group_name_H-M_alt    "P 1"
_space_group_IT_number       1

loop_
  _space_group_symop_operation_xyz
  'x, y, z'

loop_
  _atom_site_type_symbol
  _atom_site_label
  _atom_site_symmetry_multiplicity
  _atom_site_fract_x
  _atom_site_fract_y
  _atom_site_fract_z
  _atom_site_occupancy
  S   S1        1.0  0.24999998031456344  0.24999999997875091  0.2500000060914452  1.0000
  S   S2        1.0  0.7499998909398768  0.7499998682839084  0.7500002138398637  1.0000
  V   V1        1.0  9.997448800823203e-09  3.206915976800198e-08  2.394807186728828e-09  1.0000
  Br  Br1       1.0  0.23493820959808143  0.23493822147742344  0.7650617596555056  1.0000
  Br  Br2       1.0  0.7650617747972319  0.7650618611422564  0.2349381614706693  1.0000
  Br  Br3       1.0  0.7650618397646445  0.23493823930224222  0.23493814776039346  1.0000
  Br  Br4       1.0  0.23493824679791608  0.7650617707398599  0.7650617723521882  1.0000
  Br  Br5       1.0  0.2349382511498684  0.7650618100368328  0.2349381298824249  1.0000
  Br  Br6       1.0  0.765061809758499  0.23493821013237348  0.765061803506199  1.0000
