data_image0
_chemical_formula_structural       S2VCl6
_chemical_formula_sum              "S2 V1 Cl6"
_cell_length_a       6.882265262933858
_cell_length_b       6.88226522230452
_cell_length_c       6.882265195308348
_cell_angle_alpha    60.00000224071359
_cell_angle_beta     60.000002479261276
_cell_angle_gamma    60.00000211757731

_space_group_name_H-M_alt    "P 1"
_space_group_IT_number       1

loop_
  _space_group_symop_operation_xyz
  'x, y, z'

loop_
  _atom_site_type_symbol
  _atom_site_label
  _atom_site_symmetry_multiplicity
  _atom_site_fract_x
  _atom_site_fract_y
  _atom_site_fract_z
  _atom_site_occupancy
  S   S1        1.0  0.24999999589802527  0.25000005971848205  0.24999999802722772  1.0000
  S   S2        1.0  0.7499999596166413  0.7499999211183075  0.7500000920956558  1.0000
  V   V1        1.0  0.9999999915092683  5.338699409422569e-09  5.935046036394733e-09  1.0000
  Cl  Cl1       1.0  0.23330667866581134  0.23330645805863068  0.7666934718061136  1.0000
  Cl  Cl2       1.0  0.7666933128442887  0.7666935708264535  0.23330656467082733  1.0000
  Cl  Cl3       1.0  0.7666934530498121  0.23330667151718412  0.2333064811728836  1.0000
  Cl  Cl4       1.0  0.2333064880247707  0.766693362706597  0.7666934514405987  1.0000
  Cl  Cl5       1.0  0.23330651162322105  0.7666933578435158  0.23330664196784637  1.0000
  Cl  Cl6       1.0  0.7666936090274209  0.23330658562237735  0.7666932782027716  1.0000
