data_image0
_chemical_formula_structural       S2VF6
_chemical_formula_sum              "S2 V1 F6"
_cell_length_a       6.107339017358497
_cell_length_b       6.107337719605075
_cell_length_c       6.107338624736837
_cell_angle_alpha    59.99999972279621
_cell_angle_beta     60.00000368108647
_cell_angle_gamma    60.00000496242704

_space_group_name_H-M_alt    "P 1"
_space_group_IT_number       1

loop_
  _space_group_symop_operation_xyz
  'x, y, z'

loop_
  _atom_site_type_symbol
  _atom_site_label
  _atom_site_symmetry_multiplicity
  _atom_site_fract_x
  _atom_site_fract_y
  _atom_site_fract_z
  _atom_site_occupancy
  S   S1        1.0  0.2500000272736835  0.2500007405084423  0.24999945219813122  1.0000
  S   S2        1.0  0.7500005220682718  0.7499996245761544  0.7500003829850692  1.0000
  V   V1        1.0  0.9999998547422699  1.6042916516254147e-08  6.297003120622483e-08  1.0000
  F   F1        1.0  0.21130680910287572  0.21130656529161704  0.7886932105545856  1.0000
  F   F2        1.0  0.7886931857664765  0.7886931320059548  0.21130674618344905  1.0000
  F   F3        1.0  0.7886931358727031  0.21130679874739225  0.21130680780545516  1.0000
  F   F4        1.0  0.2113067074310348  0.7886932454785334  0.7886932919452591  1.0000
  F   F5        1.0  0.2113064526045561  0.788693126348552  0.211307067808616  1.0000
  F   F6        1.0  0.7886935156052978  0.21130651479876278  0.7886929188726736  1.0000
