data_image0
_chemical_formula_structural       S2VI6
_chemical_formula_sum              "S2 V1 I6"
_cell_length_a       7.678140998261857
_cell_length_b       7.678140567392133
_cell_length_c       7.67814162342129
_cell_angle_alpha    59.999996790102024
_cell_angle_beta     59.99999768455592
_cell_angle_gamma    59.99999633452174

_space_group_name_H-M_alt    "P 1"
_space_group_IT_number       1

loop_
  _space_group_symop_operation_xyz
  'x, y, z'

loop_
  _atom_site_type_symbol
  _atom_site_label
  _atom_site_symmetry_multiplicity
  _atom_site_fract_x
  _atom_site_fract_y
  _atom_site_fract_z
  _atom_site_occupancy
  S   S1        1.0  0.24999989931922723  0.24999975873299451  0.250000028127884  1.0000
  S   S2        1.0  0.7500000624020229  0.7499999333827185  0.7499998757260696  1.0000
  V   V1        1.0  0.9999999624029903  3.719130503848758e-16  2.2705700042291808e-08  1.0000
  I   I1        1.0  0.23967897068142263  0.23967896313493048  0.7603210956680028  1.0000
  I   I2        1.0  0.7603209974278328  0.7603211564692363  0.23967897806007527  1.0000
  I   I3        1.0  0.7603211557333287  0.23967897428843155  0.23967892293376647  1.0000
  I   I4        1.0  0.23967895316471385  0.7603210703457443  0.7603210696961693  1.0000
  I   I5        1.0  0.23967891238656516  0.7603211461271707  0.2396789507508833  1.0000
  I   I6        1.0  0.7603210833085867  0.23967899899869363  0.7603210469322556  1.0000
