data_image0
_chemical_formula_structural       Sb2AsO6
_chemical_formula_sum              "Sb2 As1 O6"
_cell_length_a       5.303259094862252
_cell_length_b       5.303259048216271
_cell_length_c       5.303259222562692
_cell_angle_alpha    59.999999830326296
_cell_angle_beta     60.00000009248896
_cell_angle_gamma    60.000000440937086

_space_group_name_H-M_alt    "P 1"
_space_group_IT_number       1

loop_
  _space_group_symop_operation_xyz
  'x, y, z'

loop_
  _atom_site_type_symbol
  _atom_site_label
  _atom_site_symmetry_multiplicity
  _atom_site_fract_x
  _atom_site_fract_y
  _atom_site_fract_z
  _atom_site_occupancy
  Sb  Sb1       1.0  0.24999987319610142  0.25000001705664665  0.2500000127906752  1.0000
  Sb  Sb2       1.0  0.7500001700406619  0.749999882582338  0.7500001189707859  1.0000
  As  As1       1.0  0.9999999913132954  0.9999999607398721  1.6430884410201244e-08  1.0000
  O   O1        1.0  0.24311146558028315  0.24311166019914673  0.7568884474893764  1.0000
  O   O2        1.0  0.756888490868415  0.7568883756955741  0.2431115049163525  1.0000
  O   O3        1.0  0.7568884427080487  0.24311160678302207  0.24311152996520058  1.0000
  O   O4        1.0  0.2431114952879567  0.7568884452776341  0.7568884726103623  1.0000
  O   O5        1.0  0.24311160394756556  0.7568884647520935  0.24311149030259713  1.0000
  O   O6        1.0  0.7568884360099105  0.24311156883320884  0.7568884347028831  1.0000
