data_image0
_chemical_formula_structural       Sb2AgF6
_chemical_formula_sum              "Sb2 Ag1 F6"
_cell_length_a       5.476039036106617
_cell_length_b       5.476038904209228
_cell_length_c       5.4760390741369775
_cell_angle_alpha    59.99999638203584
_cell_angle_beta     59.99999651110294
_cell_angle_gamma    59.99999776998565

_space_group_name_H-M_alt    "P 1"
_space_group_IT_number       1

loop_
  _space_group_symop_operation_xyz
  'x, y, z'

loop_
  _atom_site_type_symbol
  _atom_site_label
  _atom_site_symmetry_multiplicity
  _atom_site_fract_x
  _atom_site_fract_y
  _atom_site_fract_z
  _atom_site_occupancy
  Sb  Sb1       1.0  0.24999981021922912  0.2500000940017611  0.2499999332809873  1.0000
  Sb  Sb2       1.0  0.7499996084413262  0.7500004318542972  0.7500003883952552  1.0000
  Ag  Ag1       1.0  1.450467310562267e-08  1.3419316139889337e-08  0.9999999677766304  1.0000
  F   F1        1.0  0.2699603296236932  0.26996001608157  0.7300399295019768  1.0000
  F   F2        1.0  0.7300399069893277  0.7300397828948978  0.26995995401827166  1.0000
  F   F3        1.0  0.7300399043650065  0.2699600452866549  0.2699602748174456  1.0000
  F   F4        1.0  0.2699601709679357  0.7300398073670724  0.7300398067690735  1.0000
  F   F5        1.0  0.26996038501722713  0.7300398241631162  0.2699600012837322  1.0000
  F   F6        1.0  0.7300398718087893  0.2699599837595646  0.7300397306966032  1.0000
