data_image0
_chemical_formula_structural       Sb2AsI6
_chemical_formula_sum              "Sb2 As1 I6"
_cell_length_a       8.057150246430481
_cell_length_b       8.057150381329139
_cell_length_c       8.057150304874648
_cell_angle_alpha    60.0000006326367
_cell_angle_beta     59.99999954987209
_cell_angle_gamma    59.99999901965429

_space_group_name_H-M_alt    "P 1"
_space_group_IT_number       1

loop_
  _space_group_symop_operation_xyz
  'x, y, z'

loop_
  _atom_site_type_symbol
  _atom_site_label
  _atom_site_symmetry_multiplicity
  _atom_site_fract_x
  _atom_site_fract_y
  _atom_site_fract_z
  _atom_site_occupancy
  Sb  Sb1       1.0  0.2500000118330716  0.2500000053366582  0.24999992057313458  1.0000
  Sb  Sb2       1.0  0.75000011223792  0.7499999749680306  0.7499999722396062  1.0000
  As  As1       1.0  0.9999999764041535  0.9999999847992805  3.553301984042612e-08  1.0000
  I   I1        1.0  0.25020374499790865  0.25020385527193434  0.7497962056710246  1.0000
  I   I2        1.0  0.7497962211373048  0.7497961903958533  0.25020380541380555  1.0000
  I   I3        1.0  0.7497962115930976  0.2502037848809367  0.2502038041673154  1.0000
  I   I4        1.0  0.25020375752515694  0.749796204544187  0.7497962074835199  1.0000
  I   I5        1.0  0.2502037770215716  0.7497962008221368  0.2502038576780465  1.0000
  I   I6        1.0  0.7497961870297759  0.25020380380370705  0.7497961911044249  1.0000
