data_image0
_chemical_formula_structural       Sb2AsS6
_chemical_formula_sum              "Sb2 As1 S6"
_cell_length_a       6.364735579567187
_cell_length_b       6.36473532184357
_cell_length_c       6.36473551396228
_cell_angle_alpha    59.99999889034873
_cell_angle_beta     59.99999890038791
_cell_angle_gamma    59.99999658135742

_space_group_name_H-M_alt    "P 1"
_space_group_IT_number       1

loop_
  _space_group_symop_operation_xyz
  'x, y, z'

loop_
  _atom_site_type_symbol
  _atom_site_label
  _atom_site_symmetry_multiplicity
  _atom_site_fract_x
  _atom_site_fract_y
  _atom_site_fract_z
  _atom_site_occupancy
  Sb  Sb1       1.0  0.24999999045692034  0.25000025305031365  0.25000008161049175  1.0000
  Sb  Sb2       1.0  0.7500009909640507  0.7499994583465436  0.7499997114105823  1.0000
  As  As1       1.0  0.9999999918093267  0.9999999538175964  1.7759595335791787e-08  1.0000
  S   S1        1.0  0.2583688755464469  0.25836968800359045  0.7416306155896036  1.0000
  S   S2        1.0  0.7416308935282444  0.7416306179917417  0.25836936846859604  1.0000
  S   S3        1.0  0.7416305865970491  0.258369321911634  0.25836922489527986  1.0000
  S   S4        1.0  0.2583689472931082  0.7416307589444845  0.7416307426531165  1.0000
  S   S5        1.0  0.2583689707064815  0.7416306934218823  0.25836950591428887  1.0000
  S   S6        1.0  0.7416307459636549  0.25836925273555583  0.7416307376844805  1.0000
