data_image0
_chemical_formula_structural       Sb2AuI6
_chemical_formula_sum              "Sb2 Au1 I6"
_cell_length_a       7.802638529618033
_cell_length_b       7.802638489379457
_cell_length_c       7.802638450108517
_cell_angle_alpha    60.00000086116875
_cell_angle_beta     59.99999893421717
_cell_angle_gamma    60.0000002317405

_space_group_name_H-M_alt    "P 1"
_space_group_IT_number       1

loop_
  _space_group_symop_operation_xyz
  'x, y, z'

loop_
  _atom_site_type_symbol
  _atom_site_label
  _atom_site_symmetry_multiplicity
  _atom_site_fract_x
  _atom_site_fract_y
  _atom_site_fract_z
  _atom_site_occupancy
  Sb  Sb1       1.0  0.2499998918235024  0.24999999590074062  0.25000001954840007  1.0000
  Sb  Sb2       1.0  0.7499999312058483  0.7500000285132477  0.750000066729381  1.0000
  Au  Au1       1.0  1.3947352909518818e-08  0.99999996703725  0.9999999966915206  1.0000
  I   I1        1.0  0.2594488700358499  0.2594488280916854  0.7405511533785687  1.0000
  I   I2        1.0  0.7405511836324123  0.7405511303968033  0.25944884285279685  1.0000
  I   I3        1.0  0.7405511862282789  0.259448853525445  0.259448831592557  1.0000
  I   I4        1.0  0.259448879591935  0.7405511661795794  0.7405511446155959  1.0000
  I   I5        1.0  0.25944884949030533  0.7405511880943028  0.2594488185161398  1.0000
  I   I6        1.0  0.7405511943855466  0.259448844167959  0.7405511213738074  1.0000
