data_image0
_chemical_formula_structural       Sb2AsF6
_chemical_formula_sum              "Sb2 As1 F6"
_cell_length_a       7.05848418211914
_cell_length_b       7.058474903703647
_cell_length_c       7.058590730156278
_cell_angle_alpha    59.99951400637977
_cell_angle_beta     59.99959178897394
_cell_angle_gamma    59.99911309087236

_space_group_name_H-M_alt    "P 1"
_space_group_IT_number       1

loop_
  _space_group_symop_operation_xyz
  'x, y, z'

loop_
  _atom_site_type_symbol
  _atom_site_label
  _atom_site_symmetry_multiplicity
  _atom_site_fract_x
  _atom_site_fract_y
  _atom_site_fract_z
  _atom_site_occupancy
  Sb  Sb1       1.0  0.2500997035157804  0.25022667249782293  0.24979968834108493  1.0000
  Sb  Sb2       1.0  0.7498396026859705  0.749880949246811  0.7501253916179462  1.0000
  As  As1       1.0  7.975856232966843e-06  0.9999866635619914  9.426679814696084e-06  1.0000
  F   F1        1.0  0.1784644372367292  0.17844498481081986  0.821556798128943  1.0000
  F   F2        1.0  0.8215588368957591  0.8215206002303884  0.1784660438132188  1.0000
  F   F3        1.0  0.8215361757576366  0.17845472992396372  0.17845595591976712  1.0000
  F   F4        1.0  0.1784817975471205  0.8215116515862945  0.8215700944799649  1.0000
  F   F5        1.0  0.17847836968106656  0.8215141759874147  0.17845025725496783  1.0000
  F   F6        1.0  0.8215332414091379  0.17845918955287945  0.8215660299239043  1.0000
