data_image0
_chemical_formula_structural       Sb2AuCl6
_chemical_formula_sum              "Sb2 Au1 Cl6"
_cell_length_a       7.1934868942659955
_cell_length_b       7.193485805074383
_cell_length_c       7.1934868831868695
_cell_angle_alpha    60.00000363665493
_cell_angle_beta     60.000004484340536
_cell_angle_gamma    60.0000032343562

_space_group_name_H-M_alt    "P 1"
_space_group_IT_number       1

loop_
  _space_group_symop_operation_xyz
  'x, y, z'

loop_
  _atom_site_type_symbol
  _atom_site_label
  _atom_site_symmetry_multiplicity
  _atom_site_fract_x
  _atom_site_fract_y
  _atom_site_fract_z
  _atom_site_occupancy
  Sb  Sb1       1.0  0.24999826943371206  0.2500003075678426  0.25000242631014463  1.0000
  Sb  Sb2       1.0  0.749997655986524  0.7500004987620358  0.7500005565181659  1.0000
  Au  Au1       1.0  1.7357334266050688e-07  0.9999999608407741  0.999999816020646  1.0000
  Cl  Cl1       1.0  0.24858365907180707  0.24858255755190412  0.7514162039650693  1.0000
  Cl  Cl2       1.0  0.7514174187799721  0.7514169156618641  0.24858300779956155  1.0000
  Cl  Cl3       1.0  0.7514172768837185  0.24858295886578857  0.2485827675461215  1.0000
  Cl  Cl4       1.0  0.24858376963437906  0.7514169791509634  0.7514166931829362  1.0000
  Cl  Cl5       1.0  0.24858389590860835  0.751416609987413  0.24858253012304424  1.0000
  Cl  Cl6       1.0  0.7514178965280457  0.24858321395679628  0.7514159779959662  1.0000
