data_image0
_chemical_formula_structural       Sb2AuF6
_chemical_formula_sum              "Sb2 Au1 F6"
_cell_length_a       5.565973505210544
_cell_length_b       5.565974719459208
_cell_length_c       5.56597303682628
_cell_angle_alpha    60.00000713656307
_cell_angle_beta     60.00000494826257
_cell_angle_gamma    60.00000790489325

_space_group_name_H-M_alt    "P 1"
_space_group_IT_number       1

loop_
  _space_group_symop_operation_xyz
  'x, y, z'

loop_
  _atom_site_type_symbol
  _atom_site_label
  _atom_site_symmetry_multiplicity
  _atom_site_fract_x
  _atom_site_fract_y
  _atom_site_fract_z
  _atom_site_occupancy
  Sb  Sb1       1.0  0.25000020250310284  0.25000614553808953  0.24999550441966442  1.0000
  Sb  Sb2       1.0  0.7499998157442597  0.7499968879619645  0.7500016414463336  1.0000
  Au  Au1       1.0  3.857964649308909e-09  0.9999998701755859  8.99326933976681e-08  1.0000
  F   F1        1.0  0.2676977464798059  0.2676988690522606  0.7323022770914742  1.0000
  F   F2        1.0  0.7323027969698993  0.7323004105418067  0.2676984019284008  1.0000
  F   F3        1.0  0.7323012930109335  0.2676991728415656  0.2676974573354314  1.0000
  F   F4        1.0  0.2676986743268397  0.7322994576304347  0.7323038989801656  1.0000
  F   F5        1.0  0.267698759757607  0.7322997559657607  0.26769794762068444  1.0000
  F   F6        1.0  0.7323007197322409  0.26769943561177834  0.7323027719913138  1.0000
