data_image0
_chemical_formula_structural       Sb2AsBr6
_chemical_formula_sum              "Sb2 As1 Br6"
_cell_length_a       7.7658450404184824
_cell_length_b       7.765843484386029
_cell_length_c       7.7658443225508496
_cell_angle_alpha    59.99998831368596
_cell_angle_beta     59.99999190242531
_cell_angle_gamma    59.99997058988669

_space_group_name_H-M_alt    "P 1"
_space_group_IT_number       1

loop_
  _space_group_symop_operation_xyz
  'x, y, z'

loop_
  _atom_site_type_symbol
  _atom_site_label
  _atom_site_symmetry_multiplicity
  _atom_site_fract_x
  _atom_site_fract_y
  _atom_site_fract_z
  _atom_site_occupancy
  Sb  Sb1       1.0  0.2500037901237726  0.2500023160812756  0.24998747928028545  1.0000
  Sb  Sb2       1.0  0.7499977573874042  0.7500118072665043  0.749994702324443  1.0000
  As  As1       1.0  0.9999998227301645  0.9999990553217565  1.3168481366312159e-06  1.0000
  Br  Br1       1.0  0.23997791327841347  0.23997336827409954  0.7600281973156975  1.0000
  Br  Br2       1.0  0.7600239025644702  0.7600233518601885  0.23997684508986014  1.0000
  Br  Br3       1.0  0.7600244382917107  0.23997228726636063  0.23997976315453062  1.0000
  Br  Br4       1.0  0.23997546433578848  0.760020979036393  0.7600273215052443  1.0000
  Br  Br5       1.0  0.2399755738219997  0.760023698635207  0.23997725516657742  1.0000
  Br  Br6       1.0  0.7600213406229634  0.23997313031964823  0.7600271110997467  1.0000
