data_image0
_chemical_formula_structural       Sb2AgBr6
_chemical_formula_sum              "Sb2 Ag1 Br6"
_cell_length_a       7.357803841421577
_cell_length_b       7.357803805779874
_cell_length_c       7.35780340979634
_cell_angle_alpha    60.000001113424595
_cell_angle_beta     60.000001523482496
_cell_angle_gamma    60.000002844253935

_space_group_name_H-M_alt    "P 1"
_space_group_IT_number       1

loop_
  _space_group_symop_operation_xyz
  'x, y, z'

loop_
  _atom_site_type_symbol
  _atom_site_label
  _atom_site_symmetry_multiplicity
  _atom_site_fract_x
  _atom_site_fract_y
  _atom_site_fract_z
  _atom_site_occupancy
  Sb  Sb1       1.0  0.2499995310658671  0.24999969009589187  0.2500001733265913  1.0000
  Sb  Sb2       1.0  0.750000215039741  0.7499999391839581  0.7499998372784812  1.0000
  Ag  Ag1       1.0  8.940142815392748e-09  2.4968282897638993e-08  2.9255230360478932e-08  1.0000
  Br  Br1       1.0  0.25400148196064487  0.25400169347850243  0.745998475464266  1.0000
  Br  Br2       1.0  0.7459985828271294  0.7459983968823117  0.2540015108574813  1.0000
  Br  Br3       1.0  0.7459985330470076  0.25400151365167967  0.2540016214750378  1.0000
  Br  Br4       1.0  0.25400157424121006  0.7459985151207039  0.7459984165228427  1.0000
  Br  Br5       1.0  0.2540015315894559  0.745998644570698  0.2540015694064291  1.0000
  Br  Br6       1.0  0.7459985378247193  0.2540015872770529  0.7459983601678639  1.0000
