data_image0
_chemical_formula_structural       Sb2AgI6
_chemical_formula_sum              "Sb2 Ag1 I6"
_cell_length_a       7.7338808661948715
_cell_length_b       7.733880893762354
_cell_length_c       7.733880886758659
_cell_angle_alpha    59.999999781574715
_cell_angle_beta     60.0000010382635
_cell_angle_gamma    60.00000084579125

_space_group_name_H-M_alt    "P 1"
_space_group_IT_number       1

loop_
  _space_group_symop_operation_xyz
  'x, y, z'

loop_
  _atom_site_type_symbol
  _atom_site_label
  _atom_site_symmetry_multiplicity
  _atom_site_fract_x
  _atom_site_fract_y
  _atom_site_fract_z
  _atom_site_occupancy
  Sb  Sb1       1.0  0.25000009937305906  0.24999989307538006  0.24999996232800184  1.0000
  Sb  Sb2       1.0  0.7499998475904555  0.7500001036335326  0.7499999944345341  1.0000
  Ag  Ag1       1.0  0.9999999790974191  0.9999999999999997  3.5018516506372835e-08  1.0000
  I   I1        1.0  0.2580789052116741  0.25807883121458586  0.7419211403832008  1.0000
  I   I2        1.0  0.7419211201740362  0.7419211765795946  0.2580788698945084  1.0000
  I   I3        1.0  0.7419211372816338  0.2580788368909527  0.2580788650368529  1.0000
  I   I4        1.0  0.25807891324515514  0.741921131312986  0.7419211278982121  1.0000
  I   I5        1.0  0.25807887577222727  0.7419211600721916  0.25807884210463594  1.0000
  I   I6        1.0  0.7419211193903799  0.2580788667253049  0.7419211647318831  1.0000
