data_image0
_chemical_formula_structural       Sb2AuBr6
_chemical_formula_sum              "Sb2 Au1 Br6"
_cell_length_a       7.415664102487815
_cell_length_b       7.415664176534352
_cell_length_c       7.415664162642073
_cell_angle_alpha    59.999999172417326
_cell_angle_beta     59.999999173193494
_cell_angle_gamma    59.99999907459026

_space_group_name_H-M_alt    "P 1"
_space_group_IT_number       1

loop_
  _space_group_symop_operation_xyz
  'x, y, z'

loop_
  _atom_site_type_symbol
  _atom_site_label
  _atom_site_symmetry_multiplicity
  _atom_site_fract_x
  _atom_site_fract_y
  _atom_site_fract_z
  _atom_site_occupancy
  Sb  Sb1       1.0  0.2499998175003102  0.25000014022893335  0.250000043842818  1.0000
  Sb  Sb2       1.0  0.7500006708439827  0.7500000309175375  0.7499993585413861  1.0000
  Au  Au1       1.0  0.9999999614338598  8.25782348532269e-09  1.650265534896621e-08  1.0000
  Br  Br1       1.0  0.25280488412211605  0.25280505618764865  0.7471950752681671  1.0000
  Br  Br2       1.0  0.747195010698849  0.7471949382414048  0.25280512083096845  1.0000
  Br  Br3       1.0  0.7471949950451058  0.2528048949363051  0.2528051297231072  1.0000
  Br  Br4       1.0  0.2528048622028829  0.7471949739738357  0.7471950508301983  1.0000
  Br  Br5       1.0  0.2528047491680822  0.747194994431686  0.2528052286468273  1.0000
  Br  Br6       1.0  0.7471950440953198  0.252804963662946  0.7471949784129353  1.0000
