data_image0
_chemical_formula_structural       Sb2BiSe6
_chemical_formula_sum              "Sb2 Bi1 Se6"
_cell_length_a       6.76968035709342
_cell_length_b       6.769680144865831
_cell_length_c       6.769680944775566
_cell_angle_alpha    60.00000096848
_cell_angle_beta     60.000002836796305
_cell_angle_gamma    59.99999978791167

_space_group_name_H-M_alt    "P 1"
_space_group_IT_number       1

loop_
  _space_group_symop_operation_xyz
  'x, y, z'

loop_
  _atom_site_type_symbol
  _atom_site_label
  _atom_site_symmetry_multiplicity
  _atom_site_fract_x
  _atom_site_fract_y
  _atom_site_fract_z
  _atom_site_occupancy
  Sb  Sb1       1.0  0.24999998517204192  0.25000034889873357  0.2499997108034676  1.0000
  Sb  Sb2       1.0  0.7499997901530694  0.7499998490308771  0.7499992481667117  1.0000
  Bi  Bi1       1.0  0.9999999209172545  3.256491731489198e-08  0.9999999951925965  1.0000
  Se  Se1       1.0  0.2906919359486136  0.29069204830427536  0.7093079816770848  1.0000
  Se  Se2       1.0  0.7093081649278271  0.7093078637777674  0.2906922972384803  1.0000
  Se  Se3       1.0  0.709307953422854  0.29069184638811746  0.2906922690990383  1.0000
  Se  Se4       1.0  0.2906923637902172  0.7093076930065371  0.7093082209376054  1.0000
  Se  Se5       1.0  0.2906920746200094  0.7093078435252774  0.29069211276281975  1.0000
  Se  Se6       1.0  0.7093078161217806  0.29069247380907853  0.7093081498385169  1.0000
