data_image0
_chemical_formula_structural       Sb2BeCl6
_chemical_formula_sum              "Sb2 Be1 Cl6"
_cell_length_a       6.737117183263035
_cell_length_b       6.737116188822317
_cell_length_c       6.7371194695107
_cell_angle_alpha    59.999994951537865
_cell_angle_beta     60.00000541933923
_cell_angle_gamma    59.999992225168235

_space_group_name_H-M_alt    "P 1"
_space_group_IT_number       1

loop_
  _space_group_symop_operation_xyz
  'x, y, z'

loop_
  _atom_site_type_symbol
  _atom_site_label
  _atom_site_symmetry_multiplicity
  _atom_site_fract_x
  _atom_site_fract_y
  _atom_site_fract_z
  _atom_site_occupancy
  Sb  Sb1       1.0  0.25000040737522966  0.2500012967776405  0.24999011853050776  1.0000
  Sb  Sb2       1.0  0.750005689716196  0.7499903487458393  0.7499986223153833  1.0000
  Be  Be1       1.0  0.9999997596445022  3.5085608235907694e-07  6.438615485082893e-07  1.0000
  Cl  Cl1       1.0  0.2359250247491557  0.23593062207470977  0.764075493034019  1.0000
  Cl  Cl2       1.0  0.7640721376796311  0.7640725562514608  0.23592866805333124  1.0000
  Cl  Cl3       1.0  0.7640737139067425  0.2359285345667332  0.2359273156316256  1.0000
  Cl  Cl4       1.0  0.23592763572681225  0.7640705352895987  0.7640751184235516  1.0000
  Cl  Cl5       1.0  0.23592563631623026  0.7640745144110317  0.2359291006964565  1.0000
  Cl  Cl6       1.0  0.7640699821731264  0.23593125443253746  0.7640749215392292  1.0000
