data_image0
_chemical_formula_structural       Sb2BiBr6
_chemical_formula_sum              "Sb2 Bi1 Br6"
_cell_length_a       7.773196045949165
_cell_length_b       7.773196352257399
_cell_length_c       7.773196301482887
_cell_angle_alpha    59.99999904817365
_cell_angle_beta     59.9999988436868
_cell_angle_gamma    60.00000021318535

_space_group_name_H-M_alt    "P 1"
_space_group_IT_number       1

loop_
  _space_group_symop_operation_xyz
  'x, y, z'

loop_
  _atom_site_type_symbol
  _atom_site_label
  _atom_site_symmetry_multiplicity
  _atom_site_fract_x
  _atom_site_fract_y
  _atom_site_fract_z
  _atom_site_occupancy
  Sb  Sb1       1.0  0.25000025413580546  0.2500000232305497  0.2499998678900341  1.0000
  Sb  Sb2       1.0  0.7499998941294175  0.7500001610764525  0.7499999033501263  1.0000
  Bi  Bi1       1.0  0.9999999801788892  0.9999999747903984  5.4677158425441744e-08  1.0000
  Br  Br1       1.0  0.25913110078043033  0.259131032007719  0.7408689425713506  1.0000
  Br  Br2       1.0  0.740868912578177  0.7408689821344732  0.2591310918411228  1.0000
  Br  Br3       1.0  0.7408688741652034  0.25913099384919736  0.25913112101304303  1.0000
  Br  Br4       1.0  0.25913109461589134  0.7408688910937894  0.7408689449694913  1.0000
  Br  Br5       1.0  0.2591310535377691  0.740868908375675  0.25913107006219865  1.0000
  Br  Br6       1.0  0.7408688384020123  0.2591310332889142  0.7408690059801907  1.0000
