data_image0
_chemical_formula_structural       Sb2BiS6
_chemical_formula_sum              "Sb2 Bi1 S6"
_cell_length_a       6.5298920106742315
_cell_length_b       6.529891736702164
_cell_length_c       6.5298921901720295
_cell_angle_alpha    59.99999799977529
_cell_angle_beta     60.00000034042662
_cell_angle_gamma    59.99999819569827

_space_group_name_H-M_alt    "P 1"
_space_group_IT_number       1

loop_
  _space_group_symop_operation_xyz
  'x, y, z'

loop_
  _atom_site_type_symbol
  _atom_site_label
  _atom_site_symmetry_multiplicity
  _atom_site_fract_x
  _atom_site_fract_y
  _atom_site_fract_z
  _atom_site_occupancy
  Sb  Sb1       1.0  0.250000387900584  0.25000068333249464  0.24999997495803042  1.0000
  Sb  Sb2       1.0  0.7500004437905916  0.7499991540748405  0.7500002932572593  1.0000
  Bi  Bi1       1.0  0.9999999754211017  5.2516731977283146e-08  0.9999999921567584  1.0000
  S   S1        1.0  0.2727189223483305  0.2727194771164868  0.7272806058761775  1.0000
  S   S2        1.0  0.7272808211514163  0.7272807973050852  0.27271911348753447  1.0000
  S   S3        1.0  0.7272805546051015  0.27271931338718486  0.2727190821686447  1.0000
  S   S4        1.0  0.272719129687935  0.7272806346804103  0.727280877449394  1.0000
  S   S5        1.0  0.2727192608881309  0.7272803989712955  0.27271908648270254  1.0000
  S   S6        1.0  0.7272805012482464  0.27271948532598206  0.7272809778924013  1.0000
