data_image0
_chemical_formula_structural       Sb2BiI6
_chemical_formula_sum              "Sb2 Bi1 I6"
_cell_length_a       8.270224046061164
_cell_length_b       8.270224149365951
_cell_length_c       8.270224012614216
_cell_angle_alpha    59.99999875650288
_cell_angle_beta     59.9999998061867
_cell_angle_gamma    59.99999755786775

_space_group_name_H-M_alt    "P 1"
_space_group_IT_number       1

loop_
  _space_group_symop_operation_xyz
  'x, y, z'

loop_
  _atom_site_type_symbol
  _atom_site_label
  _atom_site_symmetry_multiplicity
  _atom_site_fract_x
  _atom_site_fract_y
  _atom_site_fract_z
  _atom_site_occupancy
  Sb  Sb1       1.0  0.24999991164405388  0.24999996232334434  0.24999995426431454  1.0000
  Sb  Sb2       1.0  0.7500001982623427  0.7499999713818232  0.7500000883038339  1.0000
  Bi  Bi1       1.0  0.999999984387558  1.3328181289873804e-08  0.9999999805864597  1.0000
  I   I1        1.0  0.26285602043077805  0.2628561199766871  0.7371439252725259  1.0000
  I   I2        1.0  0.7371439427448211  0.7371438936975687  0.26285606361716574  1.0000
  I   I3        1.0  0.7371439449820986  0.26285607378727766  0.2628560409312105  1.0000
  I   I4        1.0  0.26285600275044796  0.7371439443297049  0.737143977641786  1.0000
  I   I5        1.0  0.2628560256724893  0.7371439933539222  0.26285603555907167  1.0000
  I   I6        1.0  0.7371439576986046  0.26285603512942246  0.7371439442924276  1.0000
