data_image0
_chemical_formula_structural       Sb2BiTe6
_chemical_formula_sum              "Sb2 Bi1 Te6"
_cell_length_a       7.551063665290998
_cell_length_b       7.551063660021113
_cell_length_c       7.551063665995595
_cell_angle_alpha    59.99999989041604
_cell_angle_beta     60.000001310604254
_cell_angle_gamma    60.00000064625864

_space_group_name_H-M_alt    "P 1"
_space_group_IT_number       1

loop_
  _space_group_symop_operation_xyz
  'x, y, z'

loop_
  _atom_site_type_symbol
  _atom_site_label
  _atom_site_symmetry_multiplicity
  _atom_site_fract_x
  _atom_site_fract_y
  _atom_site_fract_z
  _atom_site_occupancy
  Sb  Sb1       1.0  0.2500000061714142  0.2500001341253134  0.24999998210312793  1.0000
  Sb  Sb2       1.0  0.7500000498774019  0.7499999871567072  0.7499998667524899  1.0000
  Bi  Bi1       1.0  0.999999975548888  0.9999999724268473  5.249846681651682e-08  1.0000
  Te  Te1       1.0  0.28396352934094443  0.2839635758107838  0.7160364214597241  1.0000
  Te  Te2       1.0  0.7160364507917926  0.7160363832762224  0.28396364047792827  1.0000
  Te  Te3       1.0  0.7160364114501551  0.28396356166647446  0.28396356800510014  1.0000
  Te  Te4       1.0  0.2839635979995441  0.7160364103961332  0.7160364436513025  1.0000
  Te  Te5       1.0  0.28396354953909925  0.7160363642910396  0.28396358911331426  1.0000
  Te  Te6       1.0  0.7160364338216221  0.28396361263741837  0.7160364252087513  1.0000
