data_image0
_chemical_formula_structural       Sb2BiO6
_chemical_formula_sum              "Sb2 Bi1 O6"
_cell_length_a       5.62493247787055
_cell_length_b       5.6249323730176615
_cell_length_c       5.6249323209720705
_cell_angle_alpha    59.99999843975801
_cell_angle_beta     59.99999940775799
_cell_angle_gamma    59.999998333495626

_space_group_name_H-M_alt    "P 1"
_space_group_IT_number       1

loop_
  _space_group_symop_operation_xyz
  'x, y, z'

loop_
  _atom_site_type_symbol
  _atom_site_label
  _atom_site_symmetry_multiplicity
  _atom_site_fract_x
  _atom_site_fract_y
  _atom_site_fract_z
  _atom_site_occupancy
  Sb  Sb1       1.0  0.2500003846918  0.24999923790542677  0.24999993511242435  1.0000
  Sb  Sb2       1.0  0.750000300084607  0.7499998322782448  0.7500003072875363  1.0000
  Bi  Bi1       1.0  0.9999999577623366  0.9999999542756418  0.9999999924248361  1.0000
  O   O1        1.0  0.2663455855475573  0.2663457712610181  0.7336543519505071  1.0000
  O   O2        1.0  0.7336540837412094  0.7336546641213866  0.2663455555919744  1.0000
  O   O3        1.0  0.7336543807269613  0.26634588337231596  0.2663454834431355  1.0000
  O   O4        1.0  0.26634539877406943  0.7336544061276117  0.7336542605989383  1.0000
  O   O5        1.0  0.26634571946814045  0.7336547094589706  0.26634563623557994  1.0000
  O   O6        1.0  0.7336542173960404  0.26634554520334275  0.7336544696599265  1.0000
