data_image0
_chemical_formula_structural       Sb2BeBr6
_chemical_formula_sum              "Sb2 Be1 Br6"
_cell_length_a       7.233103478462361
_cell_length_b       7.233108726457251
_cell_length_c       7.233097578881584
_cell_angle_alpha    59.99991061309584
_cell_angle_beta     59.999965689745125
_cell_angle_gamma    59.999928810149186

_space_group_name_H-M_alt    "P 1"
_space_group_IT_number       1

loop_
  _space_group_symop_operation_xyz
  'x, y, z'

loop_
  _atom_site_type_symbol
  _atom_site_label
  _atom_site_symmetry_multiplicity
  _atom_site_fract_x
  _atom_site_fract_y
  _atom_site_fract_z
  _atom_site_occupancy
  Sb  Sb1       1.0  0.2500019645534827  0.2500012854352471  0.2500018278346263  1.0000
  Sb  Sb2       1.0  0.7499999854379868  0.7499983244715707  0.7500029470504997  1.0000
  Be  Be1       1.0  0.9999998392798524  0.9999999170306693  2.2691745071709808e-07  1.0000
  Br  Br1       1.0  0.24111277152803653  0.24111353744312028  0.7588851191711504  1.0000
  Br  Br2       1.0  0.7588871144229359  0.758886680352064  0.24111239136395796  1.0000
  Br  Br3       1.0  0.7588851045776643  0.24111402383716382  0.2411135963500163  1.0000
  Br  Br4       1.0  0.2411135230770921  0.7588862667678092  0.7588848207639249  1.0000
  Br  Br5       1.0  0.2411153403835022  0.7588850404508692  0.24111391466191476  1.0000
  Br  Br6       1.0  0.7588843293297266  0.24111496399308197  0.7588851489604752  1.0000
