data_image0
_chemical_formula_structural       Sb2BF6
_chemical_formula_sum              "Sb2 B1 F6"
_cell_length_a       5.74681256168714
_cell_length_b       5.746812289922583
_cell_length_c       5.7468135866871135
_cell_angle_alpha    60.000086014220955
_cell_angle_beta     60.000090016279486
_cell_angle_gamma    60.000118324689815

_space_group_name_H-M_alt    "P 1"
_space_group_IT_number       1

loop_
  _space_group_symop_operation_xyz
  'x, y, z'

loop_
  _atom_site_type_symbol
  _atom_site_label
  _atom_site_symmetry_multiplicity
  _atom_site_fract_x
  _atom_site_fract_y
  _atom_site_fract_z
  _atom_site_occupancy
  Sb  Sb1       1.0  0.24996347802697838  0.2500249809236009  0.24998494385935377  1.0000
  Sb  Sb2       1.0  0.7499828908219871  0.7500348172095026  0.7499977912897561  1.0000
  B   B1        1.0  4.446306383411656e-06  0.9999801268395646  6.422265924400667e-06  1.0000
  F   F1        1.0  0.20571019829190057  0.20568948363009815  0.7943067497079224  1.0000
  F   F2        1.0  0.7943182646732514  0.7942947049152831  0.20569235579067907  1.0000
  F   F3        1.0  0.794312832672213  0.20569012938431375  0.20570510625832833  1.0000
  F   F4        1.0  0.20569830107625792  0.7942966485279638  0.7943114669241146  1.0000
  F   F5        1.0  0.20570122541841468  0.7943011781708321  0.20569475658944206  1.0000
  F   F6        1.0  0.7943083925643272  0.20568792270127906  0.7943003404493875  1.0000
