data_image0
_chemical_formula_structural       Sb2BI6
_chemical_formula_sum              "Sb2 B1 I6"
_cell_length_a       7.676466700999386
_cell_length_b       7.676466749280152
_cell_length_c       7.676466869989679
_cell_angle_alpha    60.000001169735086
_cell_angle_beta     60.00000453711841
_cell_angle_gamma    60.00000103577133

_space_group_name_H-M_alt    "P 1"
_space_group_IT_number       1

loop_
  _space_group_symop_operation_xyz
  'x, y, z'

loop_
  _atom_site_type_symbol
  _atom_site_label
  _atom_site_symmetry_multiplicity
  _atom_site_fract_x
  _atom_site_fract_y
  _atom_site_fract_z
  _atom_site_occupancy
  Sb  Sb1       1.0  0.25000007813272135  0.24999975209558958  0.2500004295602964  1.0000
  Sb  Sb2       1.0  0.7499998043139859  0.7500002757817977  0.7500009913700942  1.0000
  B   B1        1.0  0.9999999652963047  3.190907773069775e-08  0.9999999401712245  1.0000
  I   I1        1.0  0.23383529430016192  0.23383525449955705  0.766164614138003  1.0000
  I   I2        1.0  0.7661647253943822  0.7661647542323844  0.23383486536480688  1.0000
  I   I3        1.0  0.766164677523832  0.23383529370809603  0.2338351279030501  1.0000
  I   I4        1.0  0.2338351444180896  0.7661648570192412  0.7661644889037074  1.0000
  I   I5        1.0  0.23383550853724092  0.7661647313719139  0.23383493098093236  1.0000
  I   I6        1.0  0.7661648038132711  0.23383504921012196  0.7661646022459082  1.0000
