data_image0
_chemical_formula_structural       Sb2CoI6
_chemical_formula_sum              "Sb2 Co1 I6"
_cell_length_a       7.681453421614183
_cell_length_b       7.68145324421317
_cell_length_c       7.681453420927285
_cell_angle_alpha    59.99999940230614
_cell_angle_beta     59.99999966865095
_cell_angle_gamma    60.00000069494683

_space_group_name_H-M_alt    "P 1"
_space_group_IT_number       1

loop_
  _space_group_symop_operation_xyz
  'x, y, z'

loop_
  _atom_site_type_symbol
  _atom_site_label
  _atom_site_symmetry_multiplicity
  _atom_site_fract_x
  _atom_site_fract_y
  _atom_site_fract_z
  _atom_site_occupancy
  Sb  Sb1       1.0  0.25000013075923144  0.249999963903421  0.2499999679072913  1.0000
  Sb  Sb2       1.0  0.7499998449788287  0.749999950703727  0.7500000775753801  1.0000
  Co  Co1       1.0  0.9999999988458683  7.972090915968152e-09  0.9999999952891834  1.0000
  I   I1        1.0  0.2442789761853085  0.24427893620896143  0.7557210316499411  1.0000
  I   I2        1.0  0.7557210239978127  0.7557210629023509  0.24427895154709586  1.0000
  I   I3        1.0  0.7557210343689568  0.24427896603104737  0.24427893431435474  1.0000
  I   I4        1.0  0.24427899206730597  0.7557210490244474  0.7557210368968791  1.0000
  I   I5        1.0  0.24427897963797113  0.7557210554035778  0.24427893063353529  1.0000
  I   I6        1.0  0.7557210208629601  0.244279005890044  0.7557210759905942  1.0000
