data_image0
_chemical_formula_structural       Sb2CrTe6
_chemical_formula_sum              "Sb2 Cr1 Te6"
_cell_length_a       7.065763189817258
_cell_length_b       7.065763295096669
_cell_length_c       7.0657631691742475
_cell_angle_alpha    59.99999947451356
_cell_angle_beta     60.00000069108323
_cell_angle_gamma    59.999999662086324

_space_group_name_H-M_alt    "P 1"
_space_group_IT_number       1

loop_
  _space_group_symop_operation_xyz
  'x, y, z'

loop_
  _atom_site_type_symbol
  _atom_site_label
  _atom_site_symmetry_multiplicity
  _atom_site_fract_x
  _atom_site_fract_y
  _atom_site_fract_z
  _atom_site_occupancy
  Sb  Sb1       1.0  0.25000018295481496  0.24999996471525313  0.24999990471834216  1.0000
  Sb  Sb2       1.0  0.7499999034411847  0.7500002321492345  0.7499997659650927  1.0000
  Cr  Cr1       1.0  1.7282485420791156e-08  3.640037460162384e-08  0.9999999094711818  1.0000
  Te  Te1       1.0  0.2590321556692379  0.25903205129729867  0.7409678842922955  1.0000
  Te  Te2       1.0  0.7409678373328221  0.7409679011646769  0.25903215767373267  1.0000
  Te  Te3       1.0  0.7409678310596948  0.25903193809689656  0.25903227368805787  1.0000
  Te  Te4       1.0  0.25903215707372607  0.740967955431139  0.7409679091554573  1.0000
  Te  Te5       1.0  0.2590320753186439  0.7409678880712983  0.259032149116023  1.0000
  Te  Te6       1.0  0.740967840991259  0.2590320297236537  0.7409680447683151  1.0000
