data_image0
_chemical_formula_structural       Sb2CrS6
_chemical_formula_sum              "Sb2 Cr1 S6"
_cell_length_a       6.1883061807424795
_cell_length_b       6.188305541288193
_cell_length_c       6.188306147335427
_cell_angle_alpha    59.99999766303509
_cell_angle_beta     60.00000194252634
_cell_angle_gamma    59.999998060000415

_space_group_name_H-M_alt    "P 1"
_space_group_IT_number       1

loop_
  _space_group_symop_operation_xyz
  'x, y, z'

loop_
  _atom_site_type_symbol
  _atom_site_label
  _atom_site_symmetry_multiplicity
  _atom_site_fract_x
  _atom_site_fract_y
  _atom_site_fract_z
  _atom_site_occupancy
  Sb  Sb1       1.0  0.2499997958399655  0.250000579626172  0.24999954038486266  1.0000
  Sb  Sb2       1.0  0.7500001957120893  0.7499998013121433  0.7499996108368093  1.0000
  Cr  Cr1       1.0  0.9999999861849473  0.999999974271335  3.7547320293011e-08  1.0000
  S   S1        1.0  0.25872956946913334  0.25872966633835004  0.7412704879299843  1.0000
  S   S2        1.0  0.7412704523036389  0.7412702712752813  0.2587297844719795  1.0000
  S   S3        1.0  0.7412704009252274  0.25872958967032833  0.25872966032802647  1.0000
  S   S4        1.0  0.2587296763568959  0.7412702094043385  0.7412706390451839  1.0000
  S   S5        1.0  0.25872954859398367  0.7412702254950605  0.25872972180970993  1.0000
  S   S6        1.0  0.7412703812206503  0.25872967451513634  0.741270499024561  1.0000
