data_image0
_chemical_formula_structural       Sb2CuI6
_chemical_formula_sum              "Sb2 Cu1 I6"
_cell_length_a       7.639235963038713
_cell_length_b       7.639236026241917
_cell_length_c       7.63923608105595
_cell_angle_alpha    59.999998973855504
_cell_angle_beta     59.99999988227755
_cell_angle_gamma    60.000000047720825

_space_group_name_H-M_alt    "P 1"
_space_group_IT_number       1

loop_
  _space_group_symop_operation_xyz
  'x, y, z'

loop_
  _atom_site_type_symbol
  _atom_site_label
  _atom_site_symmetry_multiplicity
  _atom_site_fract_x
  _atom_site_fract_y
  _atom_site_fract_z
  _atom_site_occupancy
  Sb  Sb1       1.0  0.25000005466784725  0.24999981481400443  0.24999996757445334  1.0000
  Sb  Sb2       1.0  0.7499998719276709  0.7500002027695765  0.7500001801197593  1.0000
  Cu  Cu1       1.0  0.9999999924423036  0.9999999999999998  1.9487225223126574e-08  1.0000
  I   I1        1.0  0.25167780145967533  0.25167770154271746  0.7483222737890068  1.0000
  I   I2        1.0  0.7483222361200419  0.7483222823730457  0.2516776663819634  1.0000
  I   I3        1.0  0.7483223047244342  0.25167771304251707  0.25167774457295894  1.0000
  I   I4        1.0  0.25167771648769  0.748322283699082  0.7483222052230781  1.0000
  I   I5        1.0  0.25167778426228593  0.7483223193395184  0.2516776815102448  1.0000
  I   I6        1.0  0.748322237392558  0.2516776806085398  0.7483222612250772  1.0000
