data_image0
_chemical_formula_structural       Sb2CrBr6
_chemical_formula_sum              "Sb2 Cr1 Br6"
_cell_length_a       7.462582555386006
_cell_length_b       7.46258057169616
_cell_length_c       7.462583711170149
_cell_angle_alpha    59.99998163236715
_cell_angle_beta     59.99998501648301
_cell_angle_gamma    59.99997291566672

_space_group_name_H-M_alt    "P 1"
_space_group_IT_number       1

loop_
  _space_group_symop_operation_xyz
  'x, y, z'

loop_
  _atom_site_type_symbol
  _atom_site_label
  _atom_site_symmetry_multiplicity
  _atom_site_fract_x
  _atom_site_fract_y
  _atom_site_fract_z
  _atom_site_occupancy
  Sb  Sb1       1.0  0.2500005154389137  0.25000116059413846  0.24999900421369442  1.0000
  Sb  Sb2       1.0  0.7500004227007553  0.749997786881467  0.7499999810337493  1.0000
  Cr  Cr1       1.0  0.9999999057367251  1.0175328770950039e-07  2.95508951105045e-09  1.0000
  Br  Br1       1.0  0.2345905365533282  0.2345913066341059  0.7654090649367796  1.0000
  Br  Br2       1.0  0.765408881813401  0.7654089554283506  0.23459135890219104  1.0000
  Br  Br3       1.0  0.7654090578456838  0.23459133581114877  0.2345907622329342  1.0000
  Br  Br4       1.0  0.2345909894679763  0.7654089147629548  0.765409472138345  1.0000
  Br  Br5       1.0  0.23459088529697247  0.7654089677228023  0.23459101673035004  1.0000
  Br  Br6       1.0  0.7654088030193964  0.23459147322844262  0.7654093367915045  1.0000
