data_image0
_chemical_formula_structural       Sb2CoO6
_chemical_formula_sum              "Sb2 Co1 O6"
_cell_length_a       5.224723901753455
_cell_length_b       5.224723965112825
_cell_length_c       5.224723979494867
_cell_angle_alpha    59.999999491592945
_cell_angle_beta     59.99999945949445
_cell_angle_gamma    60.00000063751414

_space_group_name_H-M_alt    "P 1"
_space_group_IT_number       1

loop_
  _space_group_symop_operation_xyz
  'x, y, z'

loop_
  _atom_site_type_symbol
  _atom_site_label
  _atom_site_symmetry_multiplicity
  _atom_site_fract_x
  _atom_site_fract_y
  _atom_site_fract_z
  _atom_site_occupancy
  Sb  Sb1       1.0  0.2500002600866707  0.24999955155488607  0.24999989429421016  1.0000
  Sb  Sb2       1.0  0.7500001513127386  0.7499995337145877  0.7499999061750606  1.0000
  Co  Co1       1.0  1.924331521514672e-08  0.9999999953117337  2.1432126157546037e-08  1.0000
  O   O1        1.0  0.24366803209616478  0.24366832215514378  0.7563318623070439  1.0000
  O   O2        1.0  0.7563316727965127  0.7563320008166317  0.24366830800470524  1.0000
  O   O3        1.0  0.7563318782360942  0.24366833723788384  0.24366804579441498  1.0000
  O   O4        1.0  0.24366817044699834  0.7563318825920362  0.7563318281071975  1.0000
  O   O5        1.0  0.2436681163832989  0.7563320654222292  0.2436681549836157  1.0000
  O   O6        1.0  0.7563317235687721  0.24366828333501214  0.7563319636153543  1.0000
