data_image0
_chemical_formula_structural       Sb2CCl6
_chemical_formula_sum              "Sb2 C1 Cl6"
_cell_length_a       7.092135934620363
_cell_length_b       7.092134382587995
_cell_length_c       7.0921349730955745
_cell_angle_alpha    59.99999862299839
_cell_angle_beta     59.999994908195454
_cell_angle_gamma    59.99999688120946

_space_group_name_H-M_alt    "P 1"
_space_group_IT_number       1

loop_
  _space_group_symop_operation_xyz
  'x, y, z'

loop_
  _atom_site_type_symbol
  _atom_site_label
  _atom_site_symmetry_multiplicity
  _atom_site_fract_x
  _atom_site_fract_y
  _atom_site_fract_z
  _atom_site_occupancy
  Sb  Sb1       1.0  0.24999681193223808  0.250003133725862  0.24999983450477342  1.0000
  Sb  Sb2       1.0  0.7500037838577702  0.7500021412653577  0.7499979907125982  1.0000
  C   C1        1.0  0.9999999603349236  0.9999998601206156  6.016196628130908e-08  1.0000
  Cl  Cl1       1.0  0.24383931901147474  0.24383989431527706  0.7561599054360587  1.0000
  Cl  Cl2       1.0  0.7561610884059661  0.7561587217265313  0.24384014775152296  1.0000
  Cl  Cl3       1.0  0.7561607863864878  0.24383879456953345  0.24384050160314316  1.0000
  Cl  Cl4       1.0  0.24383846603226178  0.7561591151677467  0.7561611026416889  1.0000
  Cl  Cl5       1.0  0.24383902817209205  0.7561599313591826  0.24384086459776894  1.0000
  Cl  Cl6       1.0  0.7561607365779885  0.24383840492384468  0.7561596089125602  1.0000
