data_image0
_chemical_formula_structural       Sb2CuBr6
_chemical_formula_sum              "Sb2 Cu1 Br6"
_cell_length_a       7.280314654014401
_cell_length_b       7.280315589011201
_cell_length_c       7.280314654935187
_cell_angle_alpha    60.00000145014901
_cell_angle_beta     60.00000035310043
_cell_angle_gamma    59.999998908643775

_space_group_name_H-M_alt    "P 1"
_space_group_IT_number       1

loop_
  _space_group_symop_operation_xyz
  'x, y, z'

loop_
  _atom_site_type_symbol
  _atom_site_label
  _atom_site_symmetry_multiplicity
  _atom_site_fract_x
  _atom_site_fract_y
  _atom_site_fract_z
  _atom_site_occupancy
  Sb  Sb1       1.0  0.2500002813656335  0.24999849818417724  0.2500007405786063  1.0000
  Sb  Sb2       1.0  0.7499997990719592  0.749999533680236  0.7499999705960632  1.0000
  Cu  Cu1       1.0  2.428560781772657e-08  1.1271201423777166e-07  0.9999999630932278  1.0000
  Br  Br1       1.0  0.24624383639260344  0.24624419429877195  0.7537559739473979  1.0000
  Br  Br2       1.0  0.7537557583799723  0.7537563508753902  0.24624406817016958  1.0000
  Br  Br3       1.0  0.7537560571540475  0.24624411910706634  0.24624388818980492  1.0000
  Br  Br4       1.0  0.24624407689211847  0.7537565640131266  0.7537556546106107  1.0000
  Br  Br5       1.0  0.24624403745479823  0.7537564579675387  0.24624377695919006  1.0000
  Br  Br6       1.0  0.7537561299316146  0.24624416795550405  0.7537559618276575  1.0000
