data_image0
_chemical_formula_structural       Sb2CF6
_chemical_formula_sum              "Sb2 C1 F6"
_cell_length_a       5.6774133018228135
_cell_length_b       5.677417225358502
_cell_length_c       5.677410060347622
_cell_angle_alpha    59.99999658467973
_cell_angle_beta     59.99996756685692
_cell_angle_gamma    60.00001247715081

_space_group_name_H-M_alt    "P 1"
_space_group_IT_number       1

loop_
  _space_group_symop_operation_xyz
  'x, y, z'

loop_
  _atom_site_type_symbol
  _atom_site_label
  _atom_site_symmetry_multiplicity
  _atom_site_fract_x
  _atom_site_fract_y
  _atom_site_fract_z
  _atom_site_occupancy
  Sb  Sb1       1.0  0.2500072834601586  0.24993890821341083  0.2500782347845716  1.0000
  Sb  Sb2       1.0  0.7499888901786851  0.7500213393154012  0.7499941656703296  1.0000
  C   C1        1.0  2.820227574351081e-07  2.845376519924089e-06  0.999994784986485  1.0000
  F   F1        1.0  0.23384983714629337  0.23383717858239142  0.7661349790855387  1.0000
  F   F2        1.0  0.7661437227478106  0.7661720896735775  0.2338417939938708  1.0000
  F   F3        1.0  0.766151213544691  0.23383713773201206  0.23384739746252495  1.0000
  F   F4        1.0  0.23384455886535355  0.7661859453695856  0.7661273576221606  1.0000
  F   F5        1.0  0.23384335409861526  0.7661656253756953  0.23383992455147765  1.0000
  F   F6        1.0  0.7661709532174111  0.2338388711039829  0.7661413117986271  1.0000
