data_image0
_chemical_formula_structural       Sb2CoCl6
_chemical_formula_sum              "Sb2 Co1 Cl6"
_cell_length_a       7.040067327722108
_cell_length_b       7.040066971049398
_cell_length_c       7.040069814654672
_cell_angle_alpha    59.99999094319784
_cell_angle_beta     60.00001494745989
_cell_angle_gamma    59.99999602753965

_space_group_name_H-M_alt    "P 1"
_space_group_IT_number       1

loop_
  _space_group_symop_operation_xyz
  'x, y, z'

loop_
  _atom_site_type_symbol
  _atom_site_label
  _atom_site_symmetry_multiplicity
  _atom_site_fract_x
  _atom_site_fract_y
  _atom_site_fract_z
  _atom_site_occupancy
  Sb  Sb1       1.0  0.25000234222975304  0.24999791933542342  0.24999998344750193  1.0000
  Sb  Sb2       1.0  0.7499971763434012  0.7499985734352522  0.7500047987419113  1.0000
  Co  Co1       1.0  2.297955134292551e-08  0.9999999704254892  0.9999996723348564  1.0000
  Cl  Cl1       1.0  0.2323861552755983  0.23238530034950328  0.7676134267220104  1.0000
  Cl  Cl2       1.0  0.7676139814722  0.7676155033437445  0.23238409267118815  1.0000
  Cl  Cl3       1.0  0.7676135687233547  0.23238796405315468  0.2323845375490878  1.0000
  Cl  Cl4       1.0  0.23238553622046385  0.767614567140357  0.7676146013058531  1.0000
  Cl  Cl5       1.0  0.23238704462401977  0.7676144626714329  0.23238443866552236  1.0000
  Cl  Cl6       1.0  0.7676141797255999  0.23238573039470475  0.7676144544404409  1.0000
