data_image0
_chemical_formula_structural       Sb2CS6
_chemical_formula_sum              "Sb2 C1 S6"
_cell_length_a       6.115780663583086
_cell_length_b       6.115780522165159
_cell_length_c       6.11578023438669
_cell_angle_alpha    60.00000097734506
_cell_angle_beta     60.00000419830668
_cell_angle_gamma    59.999993711112694

_space_group_name_H-M_alt    "P 1"
_space_group_IT_number       1

loop_
  _space_group_symop_operation_xyz
  'x, y, z'

loop_
  _atom_site_type_symbol
  _atom_site_label
  _atom_site_symmetry_multiplicity
  _atom_site_fract_x
  _atom_site_fract_y
  _atom_site_fract_z
  _atom_site_occupancy
  Sb  Sb1       1.0  0.24999903464339873  0.250000457358847  0.25000007704684846  1.0000
  Sb  Sb2       1.0  0.7499997172843484  0.750000136473445  0.7499998545718997  1.0000
  C   C1        1.0  0.9999995009992995  2.108735557915812e-06  1.5660483571377872e-06  1.0000
  S   S1        1.0  0.23508912748014574  0.23508899388991167  0.7649110569962367  1.0000
  S   S2        1.0  0.7649106849796269  0.7649098797107223  0.2350897898432862  1.0000
  S   S3        1.0  0.764911802095962  0.23508854236007695  0.23508852255249582  1.0000
  S   S4        1.0  0.2350903173271525  0.7649096183155547  0.7649098708970604  1.0000
  S   S5        1.0  0.23508916828120174  0.764910582793856  0.23508915114755818  1.0000
  S   S6        1.0  0.764910624835666  0.23508966859412167  0.7649101269675346  1.0000
