data_image0
_chemical_formula_structural       Sb2CdI6
_chemical_formula_sum              "Sb2 Cd1 I6"
_cell_length_a       7.951077526942648
_cell_length_b       7.951077577501622
_cell_length_c       7.951077721320149
_cell_angle_alpha    59.99999959195302
_cell_angle_beta     59.999999179687414
_cell_angle_gamma    60.000001589059465

_space_group_name_H-M_alt    "P 1"
_space_group_IT_number       1

loop_
  _space_group_symop_operation_xyz
  'x, y, z'

loop_
  _atom_site_type_symbol
  _atom_site_label
  _atom_site_symmetry_multiplicity
  _atom_site_fract_x
  _atom_site_fract_y
  _atom_site_fract_z
  _atom_site_occupancy
  Sb  Sb1       1.0  0.24999990920328902  0.25000005235436057  0.24999997294116805  1.0000
  Sb  Sb2       1.0  0.7500000438671491  0.7499999968666058  0.7499999061930401  1.0000
  Cd  Cd1       1.0  0.9999999969041846  3.542806827065889e-08  1.1503078656701326e-08  1.0000
  I   I1        1.0  0.2624038672878451  0.26240384709134096  0.7375961480294688  1.0000
  I   I2        1.0  0.737596127518022  0.7375961204910344  0.2624039057523304  1.0000
  I   I3        1.0  0.7375961371689838  0.262403874881645  0.2624038560613148  1.0000
  I   I4        1.0  0.2624038988135206  0.7375960911603804  0.7375961552639002  1.0000
  I   I5        1.0  0.26240387761017286  0.7375960808722937  0.26240391627051085  1.0000
  I   I6        1.0  0.7375961387152624  0.26240390057323926  0.737596123592999  1.0000
