data_image0
_chemical_formula_structural       Sb2CrI6
_chemical_formula_sum              "Sb2 Cr1 I6"
_cell_length_a       7.887577679761241
_cell_length_b       7.887577668864032
_cell_length_c       7.887577665564963
_cell_angle_alpha    59.99999982519608
_cell_angle_beta     59.99999989386098
_cell_angle_gamma    59.999999664159034

_space_group_name_H-M_alt    "P 1"
_space_group_IT_number       1

loop_
  _space_group_symop_operation_xyz
  'x, y, z'

loop_
  _atom_site_type_symbol
  _atom_site_label
  _atom_site_symmetry_multiplicity
  _atom_site_fract_x
  _atom_site_fract_y
  _atom_site_fract_z
  _atom_site_occupancy
  Sb  Sb1       1.0  0.25000018187458317  0.24999961899298226  0.24999990963937674  1.0000
  Sb  Sb2       1.0  0.750000061774252  0.7500001504210195  0.7499999415484084  1.0000
  Cr  Cr1       1.0  0.9999999536281461  0.9999999239151723  2.6997299242711702e-08  1.0000
  I   I1        1.0  0.23903982669152846  0.23903988297207723  0.7609602249628217  1.0000
  I   I2        1.0  0.7609601547555951  0.7609603041321017  0.2390397779554915  1.0000
  I   I3        1.0  0.7609601649179527  0.23903981847389333  0.23903990330829666  1.0000
  I   I4        1.0  0.23903975296038793  0.7609602475156622  0.7609601513815963  1.0000
  I   I5        1.0  0.2390397530357784  0.7609602762545535  0.2390398701259472  1.0000
  I   I6        1.0  0.7609601441849164  0.23903977265473458  0.7609602034329026  1.0000
