data_image0
_chemical_formula_structural       Sb2CaBr6
_chemical_formula_sum              "Sb2 Ca1 Br6"
_cell_length_a       7.520267936069807
_cell_length_b       7.5202677843566015
_cell_length_c       7.520267587738965
_cell_angle_alpha    59.999997856332335
_cell_angle_beta     59.99999750095904
_cell_angle_gamma    59.9999965760555

_space_group_name_H-M_alt    "P 1"
_space_group_IT_number       1

loop_
  _space_group_symop_operation_xyz
  'x, y, z'

loop_
  _atom_site_type_symbol
  _atom_site_label
  _atom_site_symmetry_multiplicity
  _atom_site_fract_x
  _atom_site_fract_y
  _atom_site_fract_z
  _atom_site_occupancy
  Sb  Sb1       1.0  0.24999959320926154  0.25000073554072094  0.2499998138312115  1.0000
  Sb  Sb2       1.0  0.7499996584552925  0.7500000031369567  0.7500007141731291  1.0000
  Ca  Ca1       1.0  6.839812800556338e-08  0.9999999560280106  0.9999999957653691  1.0000
  Br  Br1       1.0  0.2611253285246991  0.2611251095853198  0.7388747567150188  1.0000
  Br  Br2       1.0  0.7388749461714947  0.7388745867933765  0.2611250867987481  1.0000
  Br  Br3       1.0  0.7388748752260726  0.26112527967695465  0.2611250685999416  1.0000
  Br  Br4       1.0  0.26112516510215694  0.7388745486177082  0.7388749245405823  1.0000
  Br  Br5       1.0  0.26112544978718744  0.7388746602353017  0.26112496441832733  1.0000
  Br  Br6       1.0  0.7388749145532516  0.26112511268722605  0.7388746829735038  1.0000
