data_image0
_chemical_formula_structural       Sb2CdBr6
_chemical_formula_sum              "Sb2 Cd1 Br6"
_cell_length_a       7.430346072589421
_cell_length_b       7.430346424571908
_cell_length_c       7.430346408698448
_cell_angle_alpha    60.000001858153865
_cell_angle_beta     59.99999961596283
_cell_angle_gamma    60.000002051895144

_space_group_name_H-M_alt    "P 1"
_space_group_IT_number       1

loop_
  _space_group_symop_operation_xyz
  'x, y, z'

loop_
  _atom_site_type_symbol
  _atom_site_label
  _atom_site_symmetry_multiplicity
  _atom_site_fract_x
  _atom_site_fract_y
  _atom_site_fract_z
  _atom_site_occupancy
  Sb  Sb1       1.0  0.25000030773160925  0.24999974269759231  0.2500002488453251  1.0000
  Sb  Sb2       1.0  0.7500003936784279  0.7500001033406541  0.749999515846077  1.0000
  Cd  Cd1       1.0  0.9999999802689056  0.9999999752754828  8.769482553670261e-09  1.0000
  Br  Br1       1.0  0.2577808110943684  0.25778102103716377  0.7422189995879644  1.0000
  Br  Br2       1.0  0.7422190194077656  0.7422191579579058  0.25778105022896214  1.0000
  Br  Br3       1.0  0.7422189231794991  0.25778081002771985  0.257781051341716  1.0000
  Br  Br4       1.0  0.25778080818242044  0.7422191349085875  0.742219038566461  1.0000
  Br  Br5       1.0  0.2577807537020416  0.7422191188868973  0.2577810043102453  1.0000
  Br  Br6       1.0  0.7422190052068885  0.25778092989238205  0.742219087194556  1.0000
