data_image0
_chemical_formula_structural       Sb2CuF6
_chemical_formula_sum              "Sb2 Cu1 F6"
_cell_length_a       5.405715773871442
_cell_length_b       5.405715711677686
_cell_length_c       5.4057160188323445
_cell_angle_alpha    59.99999761052254
_cell_angle_beta     59.99999742517305
_cell_angle_gamma    59.99999833563013

_space_group_name_H-M_alt    "P 1"
_space_group_IT_number       1

loop_
  _space_group_symop_operation_xyz
  'x, y, z'

loop_
  _atom_site_type_symbol
  _atom_site_label
  _atom_site_symmetry_multiplicity
  _atom_site_fract_x
  _atom_site_fract_y
  _atom_site_fract_z
  _atom_site_occupancy
  Sb  Sb1       1.0  0.24999971550291186  0.24999900681911325  0.24999988489419425  1.0000
  Sb  Sb2       1.0  0.7499998835003359  0.7500006409628476  0.750000395066265  1.0000
  Cu  Cu1       1.0  0.9999999918444301  0.999999979609168  2.537256334477867e-08  1.0000
  F   F1        1.0  0.2585011150826295  0.2585007685507776  0.7414993605339263  1.0000
  F   F2        1.0  0.741498839430426  0.7414992417348645  0.2585006399652132  1.0000
  F   F3        1.0  0.7414994794021366  0.258500907989657  0.2585010090571518  1.0000
  F   F4        1.0  0.2585007679454284  0.7414992042501454  0.741498899491591  1.0000
  F   F5        1.0  0.2585011034930105  0.7414996423484762  0.25850080414971766  1.0000
  F   F6        1.0  0.7414990984120208  0.2585006126271506  0.741498979906738  1.0000
