data_image0
_chemical_formula_structural       Sb2CO6
_chemical_formula_sum              "Sb2 C1 O6"
_cell_length_a       4.9916576067523355
_cell_length_b       4.9916578014149895
_cell_length_c       4.991657537519486
_cell_angle_alpha    59.999997019475806
_cell_angle_beta     59.99999700088846
_cell_angle_gamma    59.99999590100225

_space_group_name_H-M_alt    "P 1"
_space_group_IT_number       1

loop_
  _space_group_symop_operation_xyz
  'x, y, z'

loop_
  _atom_site_type_symbol
  _atom_site_label
  _atom_site_symmetry_multiplicity
  _atom_site_fract_x
  _atom_site_fract_y
  _atom_site_fract_z
  _atom_site_occupancy
  Sb  Sb1       1.0  0.24999990708795547  0.2500001029949116  0.24999993165797557  1.0000
  Sb  Sb2       1.0  0.7499999524778306  0.7500000317297869  0.7499999842718551  1.0000
  C   C1        1.0  0.9999996951145637  1.3740068903816718e-07  0.999999977565221  1.0000
  O   O1        1.0  0.23012821678612633  0.23012806413683753  0.7698719078998145  1.0000
  O   O2        1.0  0.7698720251933788  0.7698719920731715  0.2301280063311866  1.0000
  O   O3        1.0  0.76987203479438  0.23012798216794275  0.2301280964859737  1.0000
  O   O4        1.0  0.23012814526843497  0.7698718434052227  0.7698719039215269  1.0000
  O   O5        1.0  0.2301281079213654  0.7698718800114939  0.23012820197479067  1.0000
  O   O6        1.0  0.7698719990512085  0.2301279774582527  0.7698719853069735  1.0000
