data_image0
_chemical_formula_structural       Sb2CI6
_chemical_formula_sum              "Sb2 C1 I6"
_cell_length_a       7.629475480165957
_cell_length_b       7.6294755549969455
_cell_length_c       7.629475683814896
_cell_angle_alpha    59.99999987317665
_cell_angle_beta     59.999999165400325
_cell_angle_gamma    60.00000124800679

_space_group_name_H-M_alt    "P 1"
_space_group_IT_number       1

loop_
  _space_group_symop_operation_xyz
  'x, y, z'

loop_
  _atom_site_type_symbol
  _atom_site_label
  _atom_site_symmetry_multiplicity
  _atom_site_fract_x
  _atom_site_fract_y
  _atom_site_fract_z
  _atom_site_occupancy
  Sb  Sb1       1.0  0.24999992456296613  0.24999995863150482  0.2500000616812169  1.0000
  Sb  Sb2       1.0  0.750000099526188  0.7500000380278536  0.7499998912515066  1.0000
  C   C1        1.0  0.9999999989455641  0.9999999759207919  2.3052470365509882e-08  1.0000
  I   I1        1.0  0.2480691915755514  0.24806920497270807  0.7519308034366009  1.0000
  I   I2        1.0  0.7519308167519714  0.7519307981077726  0.24806920266250124  1.0000
  I   I3        1.0  0.7519308343568495  0.24806916298602494  0.2480692022541157  1.0000
  I   I4        1.0  0.24806916542492843  0.751930838489175  0.7519308036776748  1.0000
  I   I5        1.0  0.24806914576030298  0.7519308377207209  0.24806920015907266  1.0000
  I   I6        1.0  0.7519308252497363  0.2480691910442477  0.751930799960173  1.0000
