data_image0
_chemical_formula_structural       Sb2CrCl6
_chemical_formula_sum              "Sb2 Cr1 Cl6"
_cell_length_a       7.18510519660109
_cell_length_b       7.185107030091081
_cell_length_c       7.185103823594534
_cell_angle_alpha    59.99999156144726
_cell_angle_beta     59.99998321179004
_cell_angle_gamma    59.999972756907184

_space_group_name_H-M_alt    "P 1"
_space_group_IT_number       1

loop_
  _space_group_symop_operation_xyz
  'x, y, z'

loop_
  _atom_site_type_symbol
  _atom_site_label
  _atom_site_symmetry_multiplicity
  _atom_site_fract_x
  _atom_site_fract_y
  _atom_site_fract_z
  _atom_site_occupancy
  Sb  Sb1       1.0  0.25000189503171005  0.24999814463170766  0.24999950829226153  1.0000
  Sb  Sb2       1.0  0.7500000957268639  0.7499996021244483  0.7499985642588195  1.0000
  Cr  Cr1       1.0  0.9999997278330689  1.7045609018197196e-07  3.097243488037492e-07  1.0000
  Cl  Cl1       1.0  0.22965028175412516  0.22965085376839411  0.7703498162134047  1.0000
  Cl  Cl2       1.0  0.7703493784191116  0.7703497481268725  0.229651090745246  1.0000
  Cl  Cl3       1.0  0.7703491570246763  0.22965075312593858  0.22965074903381835  1.0000
  Cl  Cl4       1.0  0.2296506142042286  0.7703495589941347  0.7703494525849058  1.0000
  Cl  Cl5       1.0  0.22964989430554428  0.7703500136508464  0.22965098635722192  1.0000
  Cl  Cl6       1.0  0.7703489525478157  0.22965115756797794  0.7703495248618092  1.0000
