data_image0
_chemical_formula_structural       Sb2CrO6
_chemical_formula_sum              "Sb2 Cr1 O6"
_cell_length_a       5.319419911894666
_cell_length_b       5.3194199149487975
_cell_length_c       5.319419788393683
_cell_angle_alpha    60.00000011337743
_cell_angle_beta     59.999999627154345
_cell_angle_gamma    59.99999939465894

_space_group_name_H-M_alt    "P 1"
_space_group_IT_number       1

loop_
  _space_group_symop_operation_xyz
  'x, y, z'

loop_
  _atom_site_type_symbol
  _atom_site_label
  _atom_site_symmetry_multiplicity
  _atom_site_fract_x
  _atom_site_fract_y
  _atom_site_fract_z
  _atom_site_occupancy
  Sb  Sb1       1.0  0.2500000377084268  0.24999990848539053  0.25000004524473435  1.0000
  Sb  Sb2       1.0  0.7499999831637643  0.7499999004388062  0.7499999365126423  1.0000
  Cr  Cr1       1.0  1.760657227006879e-08  2.5326433513184288e-08  4.85215667573648e-09  1.0000
  O   O1        1.0  0.24498035367764937  0.2449803642570136  0.7550196398551369  1.0000
  O   O2        1.0  0.7550195722918983  0.755019716350745  0.24498038698498348  1.0000
  O   O3        1.0  0.7550196431075678  0.24498032474318207  0.24498036475547744  1.0000
  O   O4        1.0  0.24498043895870755  0.7550196522564376  0.7550196038819749  1.0000
  O   O5        1.0  0.24498036804059253  0.7550196286260847  0.24498037658726565  1.0000
  O   O6        1.0  0.7550196171743597  0.24498045658647952  0.7550196446464089  1.0000
