data_image0
_chemical_formula_structural       Sb2CdCl6
_chemical_formula_sum              "Sb2 Cd1 Cl6"
_cell_length_a       7.0964745984070925
_cell_length_b       7.096475886489329
_cell_length_c       7.096475946469806
_cell_angle_alpha    59.99999678508207
_cell_angle_beta     59.999994610623645
_cell_angle_gamma    59.99999420311139

_space_group_name_H-M_alt    "P 1"
_space_group_IT_number       1

loop_
  _space_group_symop_operation_xyz
  'x, y, z'

loop_
  _atom_site_type_symbol
  _atom_site_label
  _atom_site_symmetry_multiplicity
  _atom_site_fract_x
  _atom_site_fract_y
  _atom_site_fract_z
  _atom_site_occupancy
  Sb  Sb1       1.0  0.24999969285262857  0.2500004194698353  0.24999993811793142  1.0000
  Sb  Sb2       1.0  0.7500000635492818  0.7499997776306043  0.7499998663757185  1.0000
  Cd  Cd1       1.0  0.9999999816248034  0.9999999965483041  0.9999999658206421  1.0000
  Cl  Cl1       1.0  0.25386612558958976  0.2538665038594562  0.7461336254914639  1.0000
  Cl  Cl2       1.0  0.7461339077601735  0.7461334481703306  0.25386642234721724  1.0000
  Cl  Cl3       1.0  0.7461336824344433  0.2538663172578168  0.2538664581233074  1.0000
  Cl  Cl4       1.0  0.2538665105053802  0.7461337417746223  0.7461335381497235  1.0000
  Cl  Cl5       1.0  0.25386637180776206  0.7461335734273131  0.2538662879141598  1.0000
  Cl  Cl6       1.0  0.7461336601969346  0.25386622155017025  0.7461339039441158  1.0000
