data_image0
_chemical_formula_structural       Sb2CrF6
_chemical_formula_sum              "Sb2 Cr1 F6"
_cell_length_a       5.592405134869283
_cell_length_b       5.592404243984601
_cell_length_c       5.592404516595675
_cell_angle_alpha    59.99999969085858
_cell_angle_beta     60.000004389729625
_cell_angle_gamma    59.99999746482642

_space_group_name_H-M_alt    "P 1"
_space_group_IT_number       1

loop_
  _space_group_symop_operation_xyz
  'x, y, z'

loop_
  _atom_site_type_symbol
  _atom_site_label
  _atom_site_symmetry_multiplicity
  _atom_site_fract_x
  _atom_site_fract_y
  _atom_site_fract_z
  _atom_site_occupancy
  Sb  Sb1       1.0  0.24999983619257066  0.24999749686637948  0.2500014914015545  1.0000
  Sb  Sb2       1.0  0.7499995131890004  0.7500009133967778  0.7500011778158997  1.0000
  Cr  Cr1       1.0  0.9999999990194959  1.533010493577098e-08  0.999999996401479  1.0000
  F   F1        1.0  0.24696469237161897  0.24696415036246538  0.753035427473523  1.0000
  F   F2        1.0  0.7530350815275042  0.7530361082733078  0.24696375747156699  1.0000
  F   F3        1.0  0.7530358496907272  0.24696455849831978  0.24696434836648617  1.0000
  F   F4        1.0  0.2469642444004559  0.7530364863528347  0.7530345998756028  1.0000
  F   F5        1.0  0.246964803723175  0.753036438666006  0.24696409438215416  1.0000
  F   F6        1.0  0.7530359452247474  0.24696383091984345  0.7530351483105018  1.0000
