data_image0
_chemical_formula_structural       Sb2CoS6
_chemical_formula_sum              "Sb2 Co1 S6"
_cell_length_a       6.1562266236183145
_cell_length_b       6.156226264201908
_cell_length_c       6.156226613617611
_cell_angle_alpha    59.99999878045854
_cell_angle_beta     59.999999228401514
_cell_angle_gamma    59.999999346448845

_space_group_name_H-M_alt    "P 1"
_space_group_IT_number       1

loop_
  _space_group_symop_operation_xyz
  'x, y, z'

loop_
  _atom_site_type_symbol
  _atom_site_label
  _atom_site_symmetry_multiplicity
  _atom_site_fract_x
  _atom_site_fract_y
  _atom_site_fract_z
  _atom_site_occupancy
  Sb  Sb1       1.0  0.24999932937381072  0.25000032186157983  0.2499997083898565  1.0000
  Sb  Sb2       1.0  0.7500002520342187  0.7499994575885042  0.7499999703631268  1.0000
  Co  Co1       1.0  2.2722105393990714e-09  7.758819872555708e-08  0.9999999454504509  1.0000
  S   S1        1.0  0.2516880556701267  0.25168846931749556  0.7483119201542602  1.0000
  S   S2        1.0  0.7483119356139961  0.7483115210133485  0.2516883432490756  1.0000
  S   S3        1.0  0.7483120527576691  0.2516882577451561  0.2516881839553192  1.0000
  S   S4        1.0  0.25168828241972846  0.7483115674620889  0.7483119494538844  1.0000
  S   S5        1.0  0.25168824112001703  0.7483118725615966  0.25168826844077413  1.0000
  S   S6        1.0  0.7483118394513373  0.2516884519953351  0.7483117198554086  1.0000
