data_image0
_chemical_formula_structural       Sb2CoBr6
_chemical_formula_sum              "Sb2 Co1 Br6"
_cell_length_a       7.345753438199915
_cell_length_b       7.345753663839518
_cell_length_c       7.345754542042133
_cell_angle_alpha    59.999996369562076
_cell_angle_beta     60.000000343603396
_cell_angle_gamma    59.99999796773623

_space_group_name_H-M_alt    "P 1"
_space_group_IT_number       1

loop_
  _space_group_symop_operation_xyz
  'x, y, z'

loop_
  _atom_site_type_symbol
  _atom_site_label
  _atom_site_symmetry_multiplicity
  _atom_site_fract_x
  _atom_site_fract_y
  _atom_site_fract_z
  _atom_site_occupancy
  Sb  Sb1       1.0  0.2500001164423385  0.2500006070281243  0.24999897900495066  1.0000
  Sb  Sb2       1.0  0.7500003824339355  0.7499998920380806  0.7499989577130006  1.0000
  Co  Co1       1.0  0.9999999197988869  5.668761692940606e-08  8.390726364124162e-08  1.0000
  Br  Br1       1.0  0.24089080199459  0.24089130727401634  0.7591093419711826  1.0000
  Br  Br2       1.0  0.7591090367453714  0.7591085832339088  0.24089165362372908  1.0000
  Br  Br3       1.0  0.7591090134589001  0.2408908484258992  0.2408912255961139  1.0000
  Br  Br4       1.0  0.2408912761961878  0.7591084768731428  0.7591091056405065  1.0000
  Br  Br5       1.0  0.24089071825940347  0.75910899222873  0.24089142196789384  1.0000
  Br  Br6       1.0  0.7591087324780711  0.24089124173947477  0.7591092297001916  1.0000
