data_image0
_chemical_formula_structural       Sb2CBr6
_chemical_formula_sum              "Sb2 C1 Br6"
_cell_length_a       7.3958217888354385
_cell_length_b       7.395821807703381
_cell_length_c       7.395818085890095
_cell_angle_alpha    59.99999749337142
_cell_angle_beta     60.000002759490535
_cell_angle_gamma    59.999998250409284

_space_group_name_H-M_alt    "P 1"
_space_group_IT_number       1

loop_
  _space_group_symop_operation_xyz
  'x, y, z'

loop_
  _atom_site_type_symbol
  _atom_site_label
  _atom_site_symmetry_multiplicity
  _atom_site_fract_x
  _atom_site_fract_y
  _atom_site_fract_z
  _atom_site_occupancy
  Sb  Sb1       1.0  0.2499986848606297  0.25000265677786776  0.2500020329437511  1.0000
  Sb  Sb2       1.0  0.7499980780745317  0.7500014970481405  0.7499975933400702  1.0000
  C   C1        1.0  1.8169666801707912e-07  0.9999997780965942  0.9999998943566439  1.0000
  Br  Br1       1.0  0.24221308631958022  0.2422110218548663  0.757786993745262  1.0000
  Br  Br2       1.0  0.7577884369521583  0.7577874552178826  0.24221266212662365  1.0000
  Br  Br3       1.0  0.757787416109292  0.24221154375344603  0.24221270029249048  1.0000
  Br  Br4       1.0  0.24221325342723615  0.7577875460375724  0.7577879914700347  1.0000
  Br  Br5       1.0  0.24221166198860772  0.7577859452887108  0.24221263100344168  1.0000
  Br  Br6       1.0  0.757789207639346  0.24221255827994922  0.7577875061047625  1.0000
