data_image0
_chemical_formula_structural       Sb2CoTe6
_chemical_formula_sum              "Sb2 Co1 Te6"
_cell_length_a       7.0035162610932655
_cell_length_b       7.003516246184865
_cell_length_c       7.003516296932351
_cell_angle_alpha    59.999998553346806
_cell_angle_beta     59.99999974195283
_cell_angle_gamma    59.999998908611055

_space_group_name_H-M_alt    "P 1"
_space_group_IT_number       1

loop_
  _space_group_symop_operation_xyz
  'x, y, z'

loop_
  _atom_site_type_symbol
  _atom_site_label
  _atom_site_symmetry_multiplicity
  _atom_site_fract_x
  _atom_site_fract_y
  _atom_site_fract_z
  _atom_site_occupancy
  Sb  Sb1       1.0  0.2499999158236128  0.25000018269217533  0.24999994994085575  1.0000
  Sb  Sb2       1.0  0.7499998024711465  0.7500000269469025  0.7500001214392925  1.0000
  Co  Co1       1.0  0.9999999289868349  3.4975143339076735e-08  0.9999999708998228  1.0000
  Te  Te1       1.0  0.24738716803046767  0.24738704148351898  0.7526128975420615  1.0000
  Te  Te2       1.0  0.7526129257666028  0.7526128726156043  0.24738709244913973  1.0000
  Te  Te3       1.0  0.7526129117099342  0.24738712538665988  0.2473870736974603  1.0000
  Te  Te4       1.0  0.24738716150210327  0.7526128306826332  0.752612985561006  1.0000
  Te  Te5       1.0  0.24738716348667486  0.7526128409233672  0.24738700581138776  1.0000
  Te  Te6       1.0  0.7526130178110004  0.24738703820061392  0.7526129050864778  1.0000
