data_image0
_chemical_formula_structural       Sb2FeTe6
_chemical_formula_sum              "Sb2 Fe1 Te6"
_cell_length_a       7.048907190994199
_cell_length_b       7.048906249577258
_cell_length_c       7.04890637024627
_cell_angle_alpha    60.000004296308624
_cell_angle_beta     60.00000133125307
_cell_angle_gamma    60.00000029526699

_space_group_name_H-M_alt    "P 1"
_space_group_IT_number       1

loop_
  _space_group_symop_operation_xyz
  'x, y, z'

loop_
  _atom_site_type_symbol
  _atom_site_label
  _atom_site_symmetry_multiplicity
  _atom_site_fract_x
  _atom_site_fract_y
  _atom_site_fract_z
  _atom_site_occupancy
  Sb  Sb1       1.0  0.250000807485354  0.2499987300356078  0.24999996681119646  1.0000
  Sb  Sb2       1.0  0.7499992513916153  0.7500009265217396  0.7500003746911591  1.0000
  Fe  Fe1       1.0  0.9999999598247311  0.9999999878375229  0.9999999765157809  1.0000
  Te  Te1       1.0  0.2430528725292903  0.24305179007606106  0.7569477126870889  1.0000
  Te  Te2       1.0  0.7569472405164409  0.7569481757556027  0.24305213498858508  1.0000
  Te  Te3       1.0  0.7569477111872718  0.24305233198323567  0.24305249269340398  1.0000
  Te  Te4       1.0  0.24305231498364266  0.756947894472874  0.7569473461337548  1.0000
  Te  Te5       1.0  0.24305247897455837  0.7569481149252382  0.24305207860082037  1.0000
  Te  Te6       1.0  0.7569474604267733  0.24305202291856415  0.7569478904770756  1.0000
