data_image0
_chemical_formula_structural       Sb2FeBr6
_chemical_formula_sum              "Sb2 Fe1 Br6"
_cell_length_a       7.835315994837399
_cell_length_b       7.835313906209177
_cell_length_c       7.835320556616131
_cell_angle_alpha    59.9999529876763
_cell_angle_beta     59.99995924918576
_cell_angle_gamma    59.99993236758576

_space_group_name_H-M_alt    "P 1"
_space_group_IT_number       1

loop_
  _space_group_symop_operation_xyz
  'x, y, z'

loop_
  _atom_site_type_symbol
  _atom_site_label
  _atom_site_symmetry_multiplicity
  _atom_site_fract_x
  _atom_site_fract_y
  _atom_site_fract_z
  _atom_site_occupancy
  Sb  Sb1       1.0  0.24999971493073206  0.2500012715930418  0.25000033544965555  1.0000
  Sb  Sb2       1.0  0.749995977780684  0.7500005166190775  0.749999687749889  1.0000
  Fe  Fe1       1.0  5.969641436603775e-07  0.999999659241808  0.999999994419085  1.0000
  Br  Br1       1.0  0.20231921536075356  0.20231818389711081  0.7976811292302687  1.0000
  Br  Br2       1.0  0.7976819432926278  0.7976811596089073  0.20231900038739142  1.0000
  Br  Br3       1.0  0.7976821316120898  0.2023189455185225  0.2023181283268493  1.0000
  Br  Br4       1.0  0.2023194954673152  0.7976807700074876  0.7976814572692928  1.0000
  Br  Br5       1.0  0.20231926421854132  0.7976809088521054  0.20231827151515303  1.0000
  Br  Br6       1.0  0.7976816673014232  0.20231859878051767  0.7976820146805795  1.0000
