data_image0
_chemical_formula_structural       Sb2FeF6
_chemical_formula_sum              "Sb2 Fe1 F6"
_cell_length_a       5.4553750443141995
_cell_length_b       5.455375135576263
_cell_length_c       5.455375392207111
_cell_angle_alpha    60.000001460768964
_cell_angle_beta     60.000000771755
_cell_angle_gamma    60.000001864823005

_space_group_name_H-M_alt    "P 1"
_space_group_IT_number       1

loop_
  _space_group_symop_operation_xyz
  'x, y, z'

loop_
  _atom_site_type_symbol
  _atom_site_label
  _atom_site_symmetry_multiplicity
  _atom_site_fract_x
  _atom_site_fract_y
  _atom_site_fract_z
  _atom_site_occupancy
  Sb  Sb1       1.0  0.2499998386645924  0.2500009410919909  0.25000033320493703  1.0000
  Sb  Sb2       1.0  0.7500001892774806  0.750000111286836  0.7499989449352107  1.0000
  Fe  Fe1       1.0  0.9999999804147298  6.510569717121086e-08  0.9999999534100801  1.0000
  F   F1        1.0  0.2570822197942181  0.2570822817988768  0.7429173386559086  1.0000
  F   F2        1.0  0.742918044719388  0.7429174639759516  0.25708272012974004  1.0000
  F   F3        1.0  0.7429175427014942  0.2570819478879146  0.25708254387814705  1.0000
  F   F4        1.0  0.25708243232926303  0.7429175868546526  0.7429179063102361  1.0000
  F   F5        1.0  0.2570819277388236  0.7429172993905345  0.2570825624567798  1.0000
  F   F6        1.0  0.7429178187803295  0.25708230494777085  0.7429177123949678  1.0000
