data_image0
_chemical_formula_structural       Sb2FeO6
_chemical_formula_sum              "Sb2 Fe1 O6"
_cell_length_a       5.290525775802201
_cell_length_b       5.290525824945042
_cell_length_c       5.29052585303383
_cell_angle_alpha    60.00000046996442
_cell_angle_beta     60.000000698478864
_cell_angle_gamma    60.000001031373536

_space_group_name_H-M_alt    "P 1"
_space_group_IT_number       1

loop_
  _space_group_symop_operation_xyz
  'x, y, z'

loop_
  _atom_site_type_symbol
  _atom_site_label
  _atom_site_symmetry_multiplicity
  _atom_site_fract_x
  _atom_site_fract_y
  _atom_site_fract_z
  _atom_site_occupancy
  Sb  Sb1       1.0  0.2500005535516984  0.25000013486118894  0.2499994822276621  1.0000
  Sb  Sb2       1.0  0.7500004349559789  0.749999936958093  0.7500002270898785  1.0000
  Fe  Fe1       1.0  2.930033403099673e-08  0.9999999513854714  5.6911379233171545e-08  1.0000
  O   O1        1.0  0.24572767204696452  0.24572781969182927  0.7542723514585697  1.0000
  O   O2        1.0  0.7542720995256533  0.7542723933410762  0.24572754225765003  1.0000
  O   O3        1.0  0.7542720498290935  0.24572785209507916  0.2457277142205309  1.0000
  O   O4        1.0  0.24572754178469186  0.7542720692506513  0.7542724039776618  1.0000
  O   O5        1.0  0.2457276708046125  0.7542722205875491  0.24572778736367254  1.0000
  O   O6        1.0  0.7542719460091354  0.2457276382537875  0.7542724610068412  1.0000
