data_image0
_chemical_formula_structural       Sb2FeCl6
_chemical_formula_sum              "Sb2 Fe1 Cl6"
_cell_length_a       7.159641774823229
_cell_length_b       7.159642165749227
_cell_length_c       7.159644820249484
_cell_angle_alpha    60.00000580661184
_cell_angle_beta     60.00000856399122
_cell_angle_gamma    59.999999655081815

_space_group_name_H-M_alt    "P 1"
_space_group_IT_number       1

loop_
  _space_group_symop_operation_xyz
  'x, y, z'

loop_
  _atom_site_type_symbol
  _atom_site_label
  _atom_site_symmetry_multiplicity
  _atom_site_fract_x
  _atom_site_fract_y
  _atom_site_fract_z
  _atom_site_occupancy
  Sb  Sb1       1.0  0.2500037827487985  0.2500006550846445  0.2499983593969862  1.0000
  Sb  Sb2       1.0  0.7499990680778791  0.7500003213461314  0.7500026924937857  1.0000
  Fe  Fe1       1.0  0.9999998382820862  0.9999999384175656  0.9999999580112318  1.0000
  Cl  Cl1       1.0  0.21748361220592557  0.21748354156781674  0.7825162232109543  1.0000
  Cl  Cl2       1.0  0.7825158782660864  0.7825163828295949  0.21748317015626065  1.0000
  Cl  Cl3       1.0  0.7825149068528784  0.21748409821030287  0.21748316316046515  1.0000
  Cl  Cl4       1.0  0.21748353106756446  0.7825159356670149  0.7825164531267317  1.0000
  Cl  Cl5       1.0  0.21748365915703777  0.7825159195611433  0.21748349514538912  1.0000
  Cl  Cl6       1.0  0.7825157272303386  0.21748320426474985  0.7825164846346396  1.0000
