data_image0
_chemical_formula_structural       Sb2GeSe6
_chemical_formula_sum              "Sb2 Ge1 Se6"
_cell_length_a       6.56323848179215
_cell_length_b       6.56323818525869
_cell_length_c       6.56323832304937
_cell_angle_alpha    59.99999782503087
_cell_angle_beta     59.999998784513224
_cell_angle_gamma    59.999997972515324

_space_group_name_H-M_alt    "P 1"
_space_group_IT_number       1

loop_
  _space_group_symop_operation_xyz
  'x, y, z'

loop_
  _atom_site_type_symbol
  _atom_site_label
  _atom_site_symmetry_multiplicity
  _atom_site_fract_x
  _atom_site_fract_y
  _atom_site_fract_z
  _atom_site_occupancy
  Sb  Sb1       1.0  0.2500003139923736  0.24999968268740722  0.24999987293139037  1.0000
  Sb  Sb2       1.0  0.7500001068272356  0.7499997273109855  0.7500002726799405  1.0000
  Ge  Ge1       1.0  6.201915090112393e-09  1.3062476095978432e-08  1.62696519482364e-08  1.0000
  Se  Se1       1.0  0.26288656561091583  0.26288678882735045  0.7371133732686542  1.0000
  Se  Se2       1.0  0.7371132539785554  0.7371134273124396  0.2628865799923988  1.0000
  Se  Se3       1.0  0.737113265614782  0.262886761196876  0.26288654815898127  1.0000
  Se  Se4       1.0  0.2628866344259164  0.7371133877644652  0.7371132918110151  1.0000
  Se  Se5       1.0  0.26288669853250607  0.7371135040756726  0.26288654902584324  1.0000
  Se  Se6       1.0  0.7371131539692316  0.2628867083319804  0.73711349782345  1.0000
