data_image0
_chemical_formula_structural       Sb2GaBr6
_chemical_formula_sum              "Sb2 Ga1 Br6"
_cell_length_a       7.455966156116609
_cell_length_b       7.455963601054867
_cell_length_c       7.455962172051641
_cell_angle_alpha    59.999985920152625
_cell_angle_beta     60.00000257925037
_cell_angle_gamma    59.99998535887462

_space_group_name_H-M_alt    "P 1"
_space_group_IT_number       1

loop_
  _space_group_symop_operation_xyz
  'x, y, z'

loop_
  _atom_site_type_symbol
  _atom_site_label
  _atom_site_symmetry_multiplicity
  _atom_site_fract_x
  _atom_site_fract_y
  _atom_site_fract_z
  _atom_site_occupancy
  Sb  Sb1       1.0  0.2500000337964857  0.25000262624397646  0.25000052267753103  1.0000
  Sb  Sb2       1.0  0.7500006523116344  0.7500000745582003  0.7500004440989277  1.0000
  Ga  Ga1       1.0  0.9999999821216902  0.9999998817300837  0.9999998360450592  1.0000
  Br  Br1       1.0  0.24440385597813444  0.24440425538664534  0.7555948524157281  1.0000
  Br  Br2       1.0  0.7555961247309658  0.75559531619028  0.24440411534454726  1.0000
  Br  Br3       1.0  0.7555952578229774  0.24440395117980146  0.24440449894454944  1.0000
  Br  Br4       1.0  0.24440393285121048  0.7555954955564652  0.7555958972885902  1.0000
  Br  Br5       1.0  0.24440440194714602  0.7555948094024489  0.24440388305087873  1.0000
  Br  Br6       1.0  0.7555957641872512  0.24440359261594116  0.7555959429261017  1.0000
