data_image0
_chemical_formula_structural       Sb2GeI6
_chemical_formula_sum              "Sb2 Ge1 I6"
_cell_length_a       7.94048456434288
_cell_length_b       7.9404845481326
_cell_length_c       7.9404844067439155
_cell_angle_alpha    59.99999994605842
_cell_angle_beta     59.99999912605479
_cell_angle_gamma    59.99999806028735

_space_group_name_H-M_alt    "P 1"
_space_group_IT_number       1

loop_
  _space_group_symop_operation_xyz
  'x, y, z'

loop_
  _atom_site_type_symbol
  _atom_site_label
  _atom_site_symmetry_multiplicity
  _atom_site_fract_x
  _atom_site_fract_y
  _atom_site_fract_z
  _atom_site_occupancy
  Sb  Sb1       1.0  0.25000005086656213  0.2499997674658651  0.25000012408372957  1.0000
  Sb  Sb2       1.0  0.7500001198913245  0.7499999502079984  0.750000131446723  1.0000
  Ge  Ge1       1.0  0.9999999900852763  0.9999999861183486  3.8344936920367475e-08  1.0000
  I   I1        1.0  0.2602469700567231  0.2602470381432432  0.7397529995915024  1.0000
  I   I2        1.0  0.7397529417158074  0.7397530682168674  0.26024691906479935  1.0000
  I   I3        1.0  0.7397530133810937  0.26024705067587844  0.2602469205237611  1.0000
  I   I4        1.0  0.2602469238763716  0.7397530664810719  0.7397529472480586  1.0000
  I   I5        1.0  0.2602470133906292  0.7397530949662227  0.26024692677750744  1.0000
  I   I6        1.0  0.7397529732514923  0.2602469743761491  0.7397529981402479  1.0000
