data_image0
_chemical_formula_structural       Sb2GeF6
_chemical_formula_sum              "Sb2 Ge1 F6"
_cell_length_a       6.612314234025206
_cell_length_b       6.612309528445045
_cell_length_c       6.612334741472121
_cell_angle_alpha    60.000075668406694
_cell_angle_beta     60.00008621988737
_cell_angle_gamma    59.99998797441599

_space_group_name_H-M_alt    "P 1"
_space_group_IT_number       1

loop_
  _space_group_symop_operation_xyz
  'x, y, z'

loop_
  _atom_site_type_symbol
  _atom_site_label
  _atom_site_symmetry_multiplicity
  _atom_site_fract_x
  _atom_site_fract_y
  _atom_site_fract_z
  _atom_site_occupancy
  Sb  Sb1       1.0  0.24999850288343506  0.25002399597708247  0.24997217087789927  1.0000
  Sb  Sb2       1.0  0.7499781172822515  0.7499615329031051  0.7500876231944629  1.0000
  Ge  Ge1       1.0  1.8639325849863702e-06  1.187265844585263e-06  0.9999951684625207  1.0000
  F   F1        1.0  0.19725534198630204  0.19725630525349894  0.8027427637170258  1.0000
  F   F2        1.0  0.8027496617478973  0.8027453711632351  0.19723835514057245  1.0000
  F   F3        1.0  0.8027488761392834  0.1972665189093922  0.19723777989970323  1.0000
  F   F4        1.0  0.19725572803260255  0.8027432924596718  0.8027444029669735  1.0000
  F   F5        1.0  0.19726557003906972  0.8027451435302926  0.19723948288850732  1.0000
  F   F6        1.0  0.802746386001743  0.19725666810088474  0.8027422949702268  1.0000
