data_image0
_chemical_formula_structural       Sb2GaTe6
_chemical_formula_sum              "Sb2 Ga1 Te6"
_cell_length_a       7.1964183306836675
_cell_length_b       7.196418462681677
_cell_length_c       7.196418251570965
_cell_angle_alpha    59.99999906913604
_cell_angle_beta     60.000000159970824
_cell_angle_gamma    60.00000097917743

_space_group_name_H-M_alt    "P 1"
_space_group_IT_number       1

loop_
  _space_group_symop_operation_xyz
  'x, y, z'

loop_
  _atom_site_type_symbol
  _atom_site_label
  _atom_site_symmetry_multiplicity
  _atom_site_fract_x
  _atom_site_fract_y
  _atom_site_fract_z
  _atom_site_occupancy
  Sb  Sb1       1.0  0.2499999749345824  0.25000009808210594  0.24999991563366988  1.0000
  Sb  Sb2       1.0  0.7499999967889749  0.7499998568628664  0.7500000629998229  1.0000
  Ga  Ga1       1.0  0.9999999937597696  1.872069165746293e-08  2.5720112714471534e-08  1.0000
  Te  Te1       1.0  0.2679477699495467  0.2679479203581927  0.7320521448069314  1.0000
  Te  Te2       1.0  0.7320521863597491  0.7320520856432123  0.2679478604720401  1.0000
  Te  Te3       1.0  0.7320521735328054  0.2679479106224898  0.26794776487159183  1.0000
  Te  Te4       1.0  0.26794791879051993  0.7320520868695106  0.7320522072258303  1.0000
  Te  Te5       1.0  0.26794785052995207  0.7320521356585572  0.2679478329131912  1.0000
  Te  Te6       1.0  0.7320521429592663  0.2679478839578966  0.7320521803182178  1.0000
