data_image0
_chemical_formula_structural       Sb2GeO6
_chemical_formula_sum              "Sb2 Ge1 O6"
_cell_length_a       5.30510877215549
_cell_length_b       5.305108950979649
_cell_length_c       5.305108678523773
_cell_angle_alpha    60.00000015961223
_cell_angle_beta     60.00000042559265
_cell_angle_gamma    60.00000011890381

_space_group_name_H-M_alt    "P 1"
_space_group_IT_number       1

loop_
  _space_group_symop_operation_xyz
  'x, y, z'

loop_
  _atom_site_type_symbol
  _atom_site_label
  _atom_site_symmetry_multiplicity
  _atom_site_fract_x
  _atom_site_fract_y
  _atom_site_fract_z
  _atom_site_occupancy
  Sb  Sb1       1.0  0.25000022210462414  0.2499996889735423  0.2499999791886179  1.0000
  Sb  Sb2       1.0  0.7499997229670894  0.7499994940142165  0.7500003502604395  1.0000
  Ge  Ge1       1.0  2.4470531588190787e-08  0.999999972296632  1.2926271669598335e-08  1.0000
  O   O1        1.0  0.2501212142966684  0.2501212498503455  0.7498788366250303  1.0000
  O   O2        1.0  0.7498786240616702  0.7498789258414205  0.2501212703708358  1.0000
  O   O3        1.0  0.7498787272745443  0.2501214007821775  0.2501210665558305  1.0000
  O   O4        1.0  0.25012142481711497  0.7498789111178146  0.7498786024670262  1.0000
  O   O5        1.0  0.25012134878032205  0.7498789587859709  0.25012105452393507  1.0000
  O   O6        1.0  0.7498786924150243  0.2501213854346142  0.7498788573641377  1.0000
