data_image0
_chemical_formula_structural       Sb2GaI6
_chemical_formula_sum              "Sb2 Ga1 I6"
_cell_length_a       7.892125219849047
_cell_length_b       7.892125139836632
_cell_length_c       7.892125283318129
_cell_angle_alpha    59.99999973365727
_cell_angle_beta     59.99999989675396
_cell_angle_gamma    60.000000003695355

_space_group_name_H-M_alt    "P 1"
_space_group_IT_number       1

loop_
  _space_group_symop_operation_xyz
  'x, y, z'

loop_
  _atom_site_type_symbol
  _atom_site_label
  _atom_site_symmetry_multiplicity
  _atom_site_fract_x
  _atom_site_fract_y
  _atom_site_fract_z
  _atom_site_occupancy
  Sb  Sb1       1.0  0.24999983303999357  0.2500000283426417  0.25000004596444386  1.0000
  Sb  Sb2       1.0  0.7500002176971131  0.7500000493352195  0.7499999218926148  1.0000
  Ga  Ga1       1.0  0.9999999932017621  0.999999998448143  0.9999999915041892  1.0000
  I   I1        1.0  0.2508314152906807  0.25083146674966167  0.7491685557018741  1.0000
  I   I2        1.0  0.7491685817122438  0.7491685131612154  0.2508314473590213  1.0000
  I   I3        1.0  0.7491686000042378  0.2508314025962337  0.25083146038624127  1.0000
  I   I4        1.0  0.2508313930531335  0.7491685540367901  0.7491685638888723  1.0000
  I   I5        1.0  0.2508313970498032  0.7491685834876314  0.25083146953240426  1.0000
  I   I6        1.0  0.7491685700849897  0.2508314026306732  0.7491685428246715  1.0000
