data_image0
_chemical_formula_structural       Sb2GeS6
_chemical_formula_sum              "Sb2 Ge1 S6"
_cell_length_a       6.31724192534396
_cell_length_b       6.3172419040128505
_cell_length_c       6.3172414842356925
_cell_angle_alpha    59.99999999527831
_cell_angle_beta     60.00000217470203
_cell_angle_gamma    60.000001228441214

_space_group_name_H-M_alt    "P 1"
_space_group_IT_number       1

loop_
  _space_group_symop_operation_xyz
  'x, y, z'

loop_
  _atom_site_type_symbol
  _atom_site_label
  _atom_site_symmetry_multiplicity
  _atom_site_fract_x
  _atom_site_fract_y
  _atom_site_fract_z
  _atom_site_occupancy
  Sb  Sb1       1.0  0.24999971542454957  0.25000077475399274  0.24999986413195033  1.0000
  Sb  Sb2       1.0  0.7500001914787144  0.7499999124774754  0.750000269353731  1.0000
  Ge  Ge1       1.0  0.9999999772167578  0.9999999806126638  4.6412800004896316e-08  1.0000
  S   S1        1.0  0.25737174097935306  0.257371943814056  0.7426280399943993  1.0000
  S   S2        1.0  0.742628270308431  0.7426280299634889  0.25737176167229414  1.0000
  S   S3        1.0  0.7426281916884067  0.2573719354457755  0.2573716991050845  1.0000
  S   S4        1.0  0.25737180715931246  0.7426277959900718  0.7426284689808748  1.0000
  S   S5        1.0  0.25737185882565544  0.7426279610201048  0.25737177234969144  1.0000
  S   S6        1.0  0.742628238137082  0.25737167347907497  0.7426280738043044  1.0000
