data_image0
_chemical_formula_structural       Sb2GeBr6
_chemical_formula_sum              "Sb2 Ge1 Br6"
_cell_length_a       7.659269495475223
_cell_length_b       7.659271528024515
_cell_length_c       7.659266760373537
_cell_angle_alpha    59.9999744984042
_cell_angle_beta     59.999996610879535
_cell_angle_gamma    59.99998210173606

_space_group_name_H-M_alt    "P 1"
_space_group_IT_number       1

loop_
  _space_group_symop_operation_xyz
  'x, y, z'

loop_
  _atom_site_type_symbol
  _atom_site_label
  _atom_site_symmetry_multiplicity
  _atom_site_fract_x
  _atom_site_fract_y
  _atom_site_fract_z
  _atom_site_occupancy
  Sb  Sb1       1.0  0.2500001775196577  0.2500004828193872  0.25000129698441603  1.0000
  Sb  Sb2       1.0  0.7499975266947215  0.75000038030492  0.7500003060146396  1.0000
  Ge  Ge1       1.0  5.658804028551204e-08  0.9999999840096763  0.9999998856973644  1.0000
  Br  Br1       1.0  0.22810738360344665  0.2281066522239516  0.7718920394762988  1.0000
  Br  Br2       1.0  0.771893127263883  0.7718924167821981  0.22810752838868853  1.0000
  Br  Br3       1.0  0.7718927128192175  0.22810765720431161  0.228106929760034  1.0000
  Br  Br4       1.0  0.22810756654819142  0.7718924048026868  0.7718936256313598  1.0000
  Br  Br5       1.0  0.22810868532487927  0.7718931246226306  0.22810520156148845  1.0000
  Br  Br6       1.0  0.7718927563154443  0.22810691499849092  0.7718931766828059  1.0000
