data_image0
_chemical_formula_structural       Sb2GaCl6
_chemical_formula_sum              "Sb2 Ga1 Cl6"
_cell_length_a       7.166022910674527
_cell_length_b       7.166023783829244
_cell_length_c       7.166021682187773
_cell_angle_alpha    59.99998962813173
_cell_angle_beta     60.00000517691977
_cell_angle_gamma    60.00001079932294

_space_group_name_H-M_alt    "P 1"
_space_group_IT_number       1

loop_
  _space_group_symop_operation_xyz
  'x, y, z'

loop_
  _atom_site_type_symbol
  _atom_site_label
  _atom_site_symmetry_multiplicity
  _atom_site_fract_x
  _atom_site_fract_y
  _atom_site_fract_z
  _atom_site_occupancy
  Sb  Sb1       1.0  0.24999847535059522  0.25000251140195745  0.24999761302556092  1.0000
  Sb  Sb2       1.0  0.750000084420072  0.7499994228174843  0.7500019992802188  1.0000
  Ga  Ga1       1.0  8.761637074802779e-08  0.9999999401815602  0.9999998158531631  1.0000
  Cl  Cl1       1.0  0.23647609213638945  0.23647560524779726  0.7635249361796397  1.0000
  Cl  Cl2       1.0  0.7635246043304856  0.7635239601596988  0.23647484939881183  1.0000
  Cl  Cl3       1.0  0.7635244914691066  0.23647641641999878  0.23647522622428868  1.0000
  Cl  Cl4       1.0  0.2364756527612044  0.763523012259334  0.7635253531793147  1.0000
  Cl  Cl5       1.0  0.23647624130608508  0.7635236473576152  0.23647584344710018  1.0000
  Cl  Cl6       1.0  0.7635242804420825  0.23647547539299885  0.7635243457114749  1.0000
