data_image0
_chemical_formula_structural       Sb2GaSe6
_chemical_formula_sum              "Sb2 Ga1 Se6"
_cell_length_a       6.50651916470181
_cell_length_b       6.506519102834409
_cell_length_c       6.506519060249645
_cell_angle_alpha    59.999999902144694
_cell_angle_beta     60.000000030007755
_cell_angle_gamma    59.99999984513431

_space_group_name_H-M_alt    "P 1"
_space_group_IT_number       1

loop_
  _space_group_symop_operation_xyz
  'x, y, z'

loop_
  _atom_site_type_symbol
  _atom_site_label
  _atom_site_symmetry_multiplicity
  _atom_site_fract_x
  _atom_site_fract_y
  _atom_site_fract_z
  _atom_site_occupancy
  Sb  Sb1       1.0  0.250000046835018  0.24999990754513696  0.2499998690950572  1.0000
  Sb  Sb2       1.0  0.7499993940925014  0.7500000878084041  0.7499995658300165  1.0000
  Ga  Ga1       1.0  0.9999999867160022  4.517604032620846e-08  1.6329301022476827e-08  1.0000
  Se  Se1       1.0  0.2682572773044605  0.26825710133102415  0.7317428535614748  1.0000
  Se  Se2       1.0  0.7317428830707725  0.731742764141399  0.2682575007471866  1.0000
  Se  Se3       1.0  0.7317427955522521  0.2682570756088596  0.26825731711289647  1.0000
  Se  Se4       1.0  0.2682575404273619  0.7317427635108739  0.731742867280872  1.0000
  Se  Se5       1.0  0.26825730534463016  0.7317429167542036  0.26825709311647955  1.0000
  Se  Se6       1.0  0.7317427773503766  0.26825733083222836  0.7317429199341163  1.0000
