data_image0
_chemical_formula_structural       Sb2HfTe6
_chemical_formula_sum              "Sb2 Hf1 Te6"
_cell_length_a       7.341068424388676
_cell_length_b       7.341068618992219
_cell_length_c       7.341068474027219
_cell_angle_alpha    59.99999984916069
_cell_angle_beta     59.9999998929241
_cell_angle_gamma    59.99999903531519

_space_group_name_H-M_alt    "P 1"
_space_group_IT_number       1

loop_
  _space_group_symop_operation_xyz
  'x, y, z'

loop_
  _atom_site_type_symbol
  _atom_site_label
  _atom_site_symmetry_multiplicity
  _atom_site_fract_x
  _atom_site_fract_y
  _atom_site_fract_z
  _atom_site_occupancy
  Sb  Sb1       1.0  0.25000012706228136  0.2499999677978487  0.24999986313488853  1.0000
  Sb  Sb2       1.0  0.7500000201265629  0.7499999484389134  0.7500000825132056  1.0000
  Hf  Hf1       1.0  3.8480954620730365e-08  1.6683468552497438e-08  0.9999999138432087  1.0000
  Te  Te1       1.0  0.26877998571867895  0.2687799844076196  0.7312200375113992  1.0000
  Te  Te2       1.0  0.7312199509343352  0.7312200018997133  0.26877999744011727  1.0000
  Te  Te3       1.0  0.7312199948497371  0.26878000978055033  0.2687799542684829  1.0000
  Te  Te4       1.0  0.2687799227045167  0.7312200432606569  0.7312200922826639  1.0000
  Te  Te5       1.0  0.2687799708148297  0.731220086051587  0.26877994536577  1.0000
  Te  Te6       1.0  0.7312199907979059  0.2687799386277228  0.7312201124078783  1.0000
