data_image0
_chemical_formula_structural       Sb2HfO6
_chemical_formula_sum              "Sb2 Hf1 O6"
_cell_length_a       5.4142734209441405
_cell_length_b       5.41427356709444
_cell_length_c       5.414273494494837
_cell_angle_alpha    60.000000431825875
_cell_angle_beta     60.00000113361751
_cell_angle_gamma    60.00000140815803

_space_group_name_H-M_alt    "P 1"
_space_group_IT_number       1

loop_
  _space_group_symop_operation_xyz
  'x, y, z'

loop_
  _atom_site_type_symbol
  _atom_site_label
  _atom_site_symmetry_multiplicity
  _atom_site_fract_x
  _atom_site_fract_y
  _atom_site_fract_z
  _atom_site_occupancy
  Sb  Sb1       1.0  0.2500001180920614  0.24999952262219688  0.25000014987449654  1.0000
  Sb  Sb2       1.0  0.7500001181080406  0.7499997690240721  0.7499999560469988  1.0000
  Hf  Hf1       1.0  0.999999916048596  4.071720194850288e-08  7.517922620203978e-08  1.0000
  O   O1        1.0  0.2630268240582134  0.26302686653319013  0.7369731514565846  1.0000
  O   O2        1.0  0.7369729989009135  0.7369732937467344  0.26302697795646746  1.0000
  O   O3        1.0  0.7369731903859257  0.26302686871193776  0.263026812706184  1.0000
  O   O4        1.0  0.26302697811451886  0.7369732146577185  0.7369729459792042  1.0000
  O   O5        1.0  0.26302672837552066  0.7369733781625443  0.2630269051740122  1.0000
  O   O6        1.0  0.7369731141177918  0.2630270626136666  0.7369730409783463  1.0000
