data_image0
_chemical_formula_structural       Sb2HgCl6
_chemical_formula_sum              "Sb2 Hg1 Cl6"
_cell_length_a       7.2183601107665005
_cell_length_b       7.218360996518399
_cell_length_c       7.218361070364198
_cell_angle_alpha    60.000005664534704
_cell_angle_beta     59.99999150490911
_cell_angle_gamma    59.999992234367774

_space_group_name_H-M_alt    "P 1"
_space_group_IT_number       1

loop_
  _space_group_symop_operation_xyz
  'x, y, z'

loop_
  _atom_site_type_symbol
  _atom_site_label
  _atom_site_symmetry_multiplicity
  _atom_site_fract_x
  _atom_site_fract_y
  _atom_site_fract_z
  _atom_site_occupancy
  Sb  Sb1       1.0  0.250001149575225  0.24999932809440317  0.24999918773917562  1.0000
  Sb  Sb2       1.0  0.749999956007059  0.7499982693306829  0.7500009486210675  1.0000
  Hg  Hg1       1.0  2.0149775955027457e-08  0.9999999779427992  1.0651202997472666e-08  1.0000
  Cl  Cl1       1.0  0.2582193442604926  0.25822023623099694  0.7417804226110307  1.0000
  Cl  Cl2       1.0  0.7417800283072455  0.7417804678660178  0.25821963509201046  1.0000
  Cl  Cl3       1.0  0.7417800252852266  0.25822006125558783  0.25821946049213007  1.0000
  Cl  Cl4       1.0  0.25821982718691866  0.7417804748672914  0.7417802043498726  1.0000
  Cl  Cl5       1.0  0.2582197601539759  0.7417808654370966  0.25821957560361597  1.0000
  Cl  Cl6       1.0  0.7417798959351963  0.25822032222159214  0.7417805501839486  1.0000
