data_image0
_chemical_formula_structural       Sb2HgF6
_chemical_formula_sum              "Sb2 Hg1 F6"
_cell_length_a       5.681256172130367
_cell_length_b       5.681255782703124
_cell_length_c       5.681256602694319
_cell_angle_alpha    59.99999793556451
_cell_angle_beta     59.999995377096795
_cell_angle_gamma    59.999998274143906

_space_group_name_H-M_alt    "P 1"
_space_group_IT_number       1

loop_
  _space_group_symop_operation_xyz
  'x, y, z'

loop_
  _atom_site_type_symbol
  _atom_site_label
  _atom_site_symmetry_multiplicity
  _atom_site_fract_x
  _atom_site_fract_y
  _atom_site_fract_z
  _atom_site_occupancy
  Sb  Sb1       1.0  0.2500007845716149  0.25000051743617907  0.24999791709994684  1.0000
  Sb  Sb2       1.0  0.7500025852094974  0.7500004614918813  0.7499974953684054  1.0000
  Hg  Hg1       1.0  0.9999999361302707  4.5271053144488094e-08  4.9783341391674754e-08  1.0000
  F   F1        1.0  0.2713179426519109  0.27131881581251516  0.7286821566047528  1.0000
  F   F2        1.0  0.7286812570138556  0.7286816737571079  0.27131918691649437  1.0000
  F   F3        1.0  0.7286815282061099  0.2713179897332138  0.27131901992383517  1.0000
  F   F4        1.0  0.27131774100138717  0.7286809131937805  0.7286823182323238  1.0000
  F   F5        1.0  0.2713173211808597  0.7286815982651333  0.2713195435520525  1.0000
  F   F6        1.0  0.7286808957683122  0.27131798588340955  0.7286822863927964  1.0000
