data_image0
_chemical_formula_structural       Sb2HgI6
_chemical_formula_sum              "Sb2 Hg1 I6"
_cell_length_a       7.9429277388306545
_cell_length_b       7.942927775511123
_cell_length_c       7.9429279869564215
_cell_angle_alpha    59.999997854599975
_cell_angle_beta     59.99999921445317
_cell_angle_gamma    59.999999224578154

_space_group_name_H-M_alt    "P 1"
_space_group_IT_number       1

loop_
  _space_group_symop_operation_xyz
  'x, y, z'

loop_
  _atom_site_type_symbol
  _atom_site_label
  _atom_site_symmetry_multiplicity
  _atom_site_fract_x
  _atom_site_fract_y
  _atom_site_fract_z
  _atom_site_occupancy
  Sb  Sb1       1.0  0.2499999195407674  0.24999991810148128  0.2500000083165483  1.0000
  Sb  Sb2       1.0  0.7500001393803195  0.7500001166582961  0.7500000147214199  1.0000
  Hg  Hg1       1.0  0.9999999961376068  2.4670900778498477e-08  0.9999999933726907  1.0000
  I   I1        1.0  0.2651092279563982  0.26510922289401584  0.7348907754383507  1.0000
  I   I2        1.0  0.7348907482044373  0.7348907810271367  0.2651092112344191  1.0000
  I   I3        1.0  0.7348907824085734  0.2651091944330143  0.26510924847319345  1.0000
  I   I4        1.0  0.26510917392891453  0.7348907817333746  0.7348907607296504  1.0000
  I   I5        1.0  0.2651091954882543  0.7348908182057492  0.2651092271945991  1.0000
  I   I6        1.0  0.7348908217453588  0.2651091409993956  0.7348907688536759  1.0000
