data_image0
_chemical_formula_structural       Sb2HfSe6
_chemical_formula_sum              "Sb2 Hf1 Se6"
_cell_length_a       6.66997336067574
_cell_length_b       6.6699731769373285
_cell_length_c       6.669973149219433
_cell_angle_alpha    59.999999239519894
_cell_angle_beta     59.999998283292186
_cell_angle_gamma    59.99999977701336

_space_group_name_H-M_alt    "P 1"
_space_group_IT_number       1

loop_
  _space_group_symop_operation_xyz
  'x, y, z'

loop_
  _atom_site_type_symbol
  _atom_site_label
  _atom_site_symmetry_multiplicity
  _atom_site_fract_x
  _atom_site_fract_y
  _atom_site_fract_z
  _atom_site_occupancy
  Sb  Sb1       1.0  0.24999950004860255  0.25000008630285386  0.2500005440406602  1.0000
  Sb  Sb2       1.0  0.750000289385706  0.7499997264086643  0.7499996709129975  1.0000
  Hf  Hf1       1.0  0.999999977389489  5.508619567509128e-09  0.999999960574741  1.0000
  Se  Se1       1.0  0.2684083822297777  0.2684085334047008  0.7315914973872425  1.0000
  Se  Se2       1.0  0.7315915877704925  0.7315914335481739  0.26840868209731555  1.0000
  Se  Se3       1.0  0.7315916492561917  0.26840835444181005  0.2684084326686705  1.0000
  Se  Se4       1.0  0.26840847438211074  0.7315916657610576  0.731591437973743  1.0000
  Se  Se5       1.0  0.26840824543826375  0.7315915499547485  0.2684085538530826  1.0000
  Se  Se6       1.0  0.7315918956138839  0.2684086465239533  0.7315912124482075  1.0000
