data_image0
_chemical_formula_structural       Sb2HgBr6
_chemical_formula_sum              "Sb2 Hg1 Br6"
_cell_length_a       7.515275649645155
_cell_length_b       7.515275678627519
_cell_length_c       7.515275846540581
_cell_angle_alpha    60.00000179729763
_cell_angle_beta     59.99999935480556
_cell_angle_gamma    59.999999328571405

_space_group_name_H-M_alt    "P 1"
_space_group_IT_number       1

loop_
  _space_group_symop_operation_xyz
  'x, y, z'

loop_
  _atom_site_type_symbol
  _atom_site_label
  _atom_site_symmetry_multiplicity
  _atom_site_fract_x
  _atom_site_fract_y
  _atom_site_fract_z
  _atom_site_occupancy
  Sb  Sb1       1.0  0.2499999745474458  0.24999977520773073  0.25000017913095696  1.0000
  Sb  Sb2       1.0  0.7499999163990269  0.7499999742333874  0.7499998042162653  1.0000
  Hg  Hg1       1.0  0.9999999703570229  0.9999999967406525  9.79804643033123e-09  1.0000
  Br  Br1       1.0  0.2604282610810482  0.26042821559292595  0.7395717635594585  1.0000
  Br  Br2       1.0  0.7395716922188298  0.7395718630423248  0.2604283340491945  1.0000
  Br  Br3       1.0  0.7395718338963669  0.26042823972658913  0.260428235352432  1.0000
  Br  Br4       1.0  0.26042829747976215  0.7395717932777887  0.739571756114837  1.0000
  Br  Br5       1.0  0.2604281913908242  0.7395718271624165  0.2604282553024347  1.0000
  Br  Br6       1.0  0.7395718565018669  0.2604283134004371  0.7395716602574062  1.0000
