data_image0
_chemical_formula_structural       Sb2IrI6
_chemical_formula_sum              "Sb2 Ir1 I6"
_cell_length_a       7.72992686991014
_cell_length_b       7.729926813729636
_cell_length_c       7.729926943380957
_cell_angle_alpha    59.99999859270454
_cell_angle_beta     59.999999548344796
_cell_angle_gamma    59.99999992538773

_space_group_name_H-M_alt    "P 1"
_space_group_IT_number       1

loop_
  _space_group_symop_operation_xyz
  'x, y, z'

loop_
  _atom_site_type_symbol
  _atom_site_label
  _atom_site_symmetry_multiplicity
  _atom_site_fract_x
  _atom_site_fract_y
  _atom_site_fract_z
  _atom_site_occupancy
  Sb  Sb1       1.0  0.24999994486067462  0.24999990542962228  0.25000013615623246  1.0000
  Sb  Sb2       1.0  0.7500000287869201  0.750000003068849  0.749999990743016  1.0000
  Ir  Ir1       1.0  0.9999999671362843  0.0  0.9999999879710456  1.0000
  I   I1        1.0  0.24472363652454357  0.24472364987766207  0.7552763377133064  1.0000
  I   I2        1.0  0.7552763767593041  0.75527639963417  0.24472360830400405  1.0000
  I   I3        1.0  0.7552763352316799  0.24472366332199824  0.24472363574881056  1.0000
  I   I4        1.0  0.24472365819517392  0.7552763830209941  0.7552763166067237  1.0000
  I   I5        1.0  0.24472367670483028  0.7552763385730397  0.24472365438152702  1.0000
  I   I6        1.0  0.7552763739552427  0.24472365706852017  0.7552763322246394  1.0000
