data_image0
_chemical_formula_structural       Sb2IrF6
_chemical_formula_sum              "Sb2 Ir1 F6"
_cell_length_a       5.558375829075636
_cell_length_b       5.558375686833341
_cell_length_c       5.5583762273963355
_cell_angle_alpha    59.99999974293675
_cell_angle_beta     59.999998442389455
_cell_angle_gamma    60.00000306082486

_space_group_name_H-M_alt    "P 1"
_space_group_IT_number       1

loop_
  _space_group_symop_operation_xyz
  'x, y, z'

loop_
  _atom_site_type_symbol
  _atom_site_label
  _atom_site_symmetry_multiplicity
  _atom_site_fract_x
  _atom_site_fract_y
  _atom_site_fract_z
  _atom_site_occupancy
  Sb  Sb1       1.0  0.24999898116484162  0.2499984953122874  0.2500014877131088  1.0000
  Sb  Sb2       1.0  0.7500037203351649  0.7499976474943775  0.7500001252736582  1.0000
  Ir  Ir1       1.0  0.9999998946786517  1.850874623953289e-07  0.9999999331306479  1.0000
  F   F1        1.0  0.2601388098109451  0.2601417955999862  0.7398594551075723  1.0000
  F   F2        1.0  0.7398597806434309  0.7398596067753285  0.2601400238097246  1.0000
  F   F3        1.0  0.7398599933242922  0.2601408618747352  0.2601397185077091  1.0000
  F   F4        1.0  0.2601391669695104  0.7398605074492539  0.7398589342987048  1.0000
  F   F5        1.0  0.2601395367494162  0.7398604333333898  0.26014101801886125  1.0000
  F   F6        1.0  0.7398601255712738  0.26014046445831435  0.7398593088825293  1.0000
