data_image0
_chemical_formula_structural       Sb2IrCl6
_chemical_formula_sum              "Sb2 Ir1 Cl6"
_cell_length_a       7.349761069786559
_cell_length_b       7.349761202616145
_cell_length_c       7.349759157591792
_cell_angle_alpha    60.000001397869404
_cell_angle_beta     60.00000150657698
_cell_angle_gamma    60.00000821319391

_space_group_name_H-M_alt    "P 1"
_space_group_IT_number       1

loop_
  _space_group_symop_operation_xyz
  'x, y, z'

loop_
  _atom_site_type_symbol
  _atom_site_label
  _atom_site_symmetry_multiplicity
  _atom_site_fract_x
  _atom_site_fract_y
  _atom_site_fract_z
  _atom_site_occupancy
  Sb  Sb1       1.0  0.25000041593827643  0.24999985777029446  0.2499998841273939  1.0000
  Sb  Sb2       1.0  0.7500003255169249  0.749998588483999  0.750000623632338  1.0000
  Ir  Ir1       1.0  0.999999920221035  2.0163120065672508e-07  0.9999999594827066  1.0000
  Cl  Cl1       1.0  0.2256544015861991  0.2256547829511475  0.7743452819546729  1.0000
  Cl  Cl2       1.0  0.774345328222963  0.7743456896134082  0.22565442322511253  1.0000
  Cl  Cl3       1.0  0.7743450856244078  0.22565510980706024  0.22565419685666938  1.0000
  Cl  Cl4       1.0  0.22565463210622919  0.7743454744045142  0.7743456707907164  1.0000
  Cl  Cl5       1.0  0.2256545555801016  0.7743456332183251  0.22565436459576063  1.0000
  Cl  Cl6       1.0  0.7743453172947061  0.2256546693761177  0.7743455948604787  1.0000
