data_image0
_chemical_formula_structural       Sb2IrO6
_chemical_formula_sum              "Sb2 Ir1 O6"
_cell_length_a       5.4278237509552305
_cell_length_b       5.427823776275757
_cell_length_c       5.4278238572511635
_cell_angle_alpha    59.999999667045756
_cell_angle_beta     60.00000020588726
_cell_angle_gamma    60.0000001742497

_space_group_name_H-M_alt    "P 1"
_space_group_IT_number       1

loop_
  _space_group_symop_operation_xyz
  'x, y, z'

loop_
  _atom_site_type_symbol
  _atom_site_label
  _atom_site_symmetry_multiplicity
  _atom_site_fract_x
  _atom_site_fract_y
  _atom_site_fract_z
  _atom_site_occupancy
  Sb  Sb1       1.0  0.25000018935489354  0.2500001836332081  0.2499997935671642  1.0000
  Sb  Sb2       1.0  0.7500002208828657  0.7499999777690078  0.7499999495568849  1.0000
  Ir  Ir1       1.0  0.9999999961323942  0.9999999796922223  0.9999999789252302  1.0000
  O   O1        1.0  0.248738555523638  0.2487387630579497  0.751261322856327  1.0000
  O   O2        1.0  0.7512613768959135  0.7512612426513026  0.24873870570320192  1.0000
  O   O3        1.0  0.7512612302886692  0.24873867897325336  0.24873866048047288  1.0000
  O   O4        1.0  0.24873857238327382  0.7512612883768629  0.7512614152852478  1.0000
  O   O5        1.0  0.248738617141538  0.7512612687755927  0.24873871742172182  1.0000
  O   O6        1.0  0.7512612431428035  0.248738615086993  0.7512614468182832  1.0000
