data_image0
_chemical_formula_structural       Sb2MnTe6
_chemical_formula_sum              "Sb2 Mn1 Te6"
_cell_length_a       7.024636522839397
_cell_length_b       7.024636293429619
_cell_length_c       7.024636443150914
_cell_angle_alpha    59.99999972173019
_cell_angle_beta     60.000000213975554
_cell_angle_gamma    60.0000020291126

_space_group_name_H-M_alt    "P 1"
_space_group_IT_number       1

loop_
  _space_group_symop_operation_xyz
  'x, y, z'

loop_
  _atom_site_type_symbol
  _atom_site_label
  _atom_site_symmetry_multiplicity
  _atom_site_fract_x
  _atom_site_fract_y
  _atom_site_fract_z
  _atom_site_occupancy
  Sb  Sb1       1.0  0.24999992713370275  0.24999970471884359  0.25000024129352316  1.0000
  Sb  Sb2       1.0  0.7499996661874391  0.7500000416981707  0.7500001169944559  1.0000
  Mn  Mn1       1.0  0.9999999382824755  4.7074479787874345e-08  0.9999999532261964  1.0000
  Te  Te1       1.0  0.25157019217210363  0.2515699221667173  0.7484299243805159  1.0000
  Te  Te2       1.0  0.7484298262060247  0.7484300038307409  0.2515701130824519  1.0000
  Te  Te3       1.0  0.7484299560184384  0.25157014160058316  0.2515700419727811  1.0000
  Te  Te4       1.0  0.251570221752761  0.7484300459217796  0.7484298035374954  1.0000
  Te  Te5       1.0  0.2515702226335146  0.7484299717316261  0.25157000577285876  1.0000
  Te  Te6       1.0  0.7484300307034907  0.25157013210277107  0.7484298010916608  1.0000
