data_image0
_chemical_formula_structural       Sb2MoI6
_chemical_formula_sum              "Sb2 Mo1 I6"
_cell_length_a       7.971970980652033
_cell_length_b       7.97197074648212
_cell_length_c       7.971970817418775
_cell_angle_alpha    60.000000779507204
_cell_angle_beta     60.00000065724845
_cell_angle_gamma    59.99999965929864

_space_group_name_H-M_alt    "P 1"
_space_group_IT_number       1

loop_
  _space_group_symop_operation_xyz
  'x, y, z'

loop_
  _atom_site_type_symbol
  _atom_site_label
  _atom_site_symmetry_multiplicity
  _atom_site_fract_x
  _atom_site_fract_y
  _atom_site_fract_z
  _atom_site_occupancy
  Sb  Sb1       1.0  0.25000000231912806  0.24999998525349879  0.25000001589291704  1.0000
  Sb  Sb2       1.0  0.7500000010606437  0.7499999864867721  0.7500000164480592  1.0000
  Mo  Mo1       1.0  0.9999999948940295  0.9999999892458027  0.9999999527367056  1.0000
  I   I1        1.0  0.245176003900931  0.2451760428788449  0.7548239726144745  1.0000
  I   I2        1.0  0.7548239933335855  0.7548239472971914  0.2451760247301629  1.0000
  I   I3        1.0  0.7548239332965676  0.245176077655443  0.24517604333350365  1.0000
  I   I4        1.0  0.24517602436031813  0.75482398779997  0.7548239637569503  1.0000
  I   I5        1.0  0.24517605672847276  0.7548239431492232  0.24517603803144136  1.0000
  I   I6        1.0  0.7548239890806047  0.24517603166367516  0.7548239740673583  1.0000
