data_image0
_chemical_formula_structural       Sb2MgBr6
_chemical_formula_sum              "Sb2 Mg1 Br6"
_cell_length_a       7.347709112430403
_cell_length_b       7.3477092506785855
_cell_length_c       7.34770871059369
_cell_angle_alpha    60.000001529036034
_cell_angle_beta     59.99999908330292
_cell_angle_gamma    60.00000361453919

_space_group_name_H-M_alt    "P 1"
_space_group_IT_number       1

loop_
  _space_group_symop_operation_xyz
  'x, y, z'

loop_
  _atom_site_type_symbol
  _atom_site_label
  _atom_site_symmetry_multiplicity
  _atom_site_fract_x
  _atom_site_fract_y
  _atom_site_fract_z
  _atom_site_occupancy
  Sb  Sb1       1.0  0.25000000471818545  0.2500000982191598  0.249999600713224  1.0000
  Sb  Sb2       1.0  0.7500000926618587  0.7500005730195949  0.7499996879823156  1.0000
  Mg  Mg1       1.0  3.165358208380415e-08  0.999999933326441  7.603163316197609e-08  1.0000
  Br  Br1       1.0  0.25124384725173404  0.25124365352835043  0.7487564263707015  1.0000
  Br  Br2       1.0  0.7487562697466901  0.7487561809572272  0.2512437377044327  1.0000
  Br  Br3       1.0  0.7487563035302504  0.25124352200963634  0.2512439908045701  1.0000
  Br  Br4       1.0  0.2512436434618041  0.7487561624604262  0.7487563741105656  1.0000
  Br  Br5       1.0  0.25124369094905613  0.7487562024299165  0.2512437908976723  1.0000
  Br  Br6       1.0  0.7487561130163547  0.25124367539346554  0.7487563202114214  1.0000
