data_image0
_chemical_formula_structural       Sb2MnO6
_chemical_formula_sum              "Sb2 Mn1 O6"
_cell_length_a       5.367217923676273
_cell_length_b       5.367217891484128
_cell_length_c       5.367217908992899
_cell_angle_alpha    59.99999967206124
_cell_angle_beta     59.99999985517604
_cell_angle_gamma    60.00000039121775

_space_group_name_H-M_alt    "P 1"
_space_group_IT_number       1

loop_
  _space_group_symop_operation_xyz
  'x, y, z'

loop_
  _atom_site_type_symbol
  _atom_site_label
  _atom_site_symmetry_multiplicity
  _atom_site_fract_x
  _atom_site_fract_y
  _atom_site_fract_z
  _atom_site_occupancy
  Sb  Sb1       1.0  0.25000001807050287  0.24999992525021875  0.25000003036787816  1.0000
  Sb  Sb2       1.0  0.7500000129620434  0.7499999834034581  0.7500000116282912  1.0000
  Mn  Mn1       1.0  0.9999999845487236  2.0537090182154577e-08  1.0499231685618052e-08  1.0000
  O   O1        1.0  0.24478797231407406  0.24478795773252685  0.7552120641325528  1.0000
  O   O2        1.0  0.7552120548705259  0.755212039915208  0.2447879501958618  1.0000
  O   O3        1.0  0.7552120523570183  0.24478797347782075  0.2447879421064975  1.0000
  O   O4        1.0  0.24478793988324712  0.7552120515527011  0.7552120368762749  1.0000
  O   O5        1.0  0.24478794612254795  0.755212075190951  0.24478792579454123  1.0000
  O   O6        1.0  0.7552120334479652  0.2447879749404589  0.7552120059830849  1.0000
