data_image0
_chemical_formula_structural       Sb2MgI6
_chemical_formula_sum              "Sb2 Mg1 I6"
_cell_length_a       7.8717717421136095
_cell_length_b       7.871771728193192
_cell_length_c       7.871771926085539
_cell_angle_alpha    60.000000051461114
_cell_angle_beta     59.99999886610719
_cell_angle_gamma    60.00000109679452

_space_group_name_H-M_alt    "P 1"
_space_group_IT_number       1

loop_
  _space_group_symop_operation_xyz
  'x, y, z'

loop_
  _atom_site_type_symbol
  _atom_site_label
  _atom_site_symmetry_multiplicity
  _atom_site_fract_x
  _atom_site_fract_y
  _atom_site_fract_z
  _atom_site_occupancy
  Sb  Sb1       1.0  0.2500000217854213  0.24999996481449166  0.2500000936849107  1.0000
  Sb  Sb2       1.0  0.7499999717245129  0.750000060921494  0.7499999130671151  1.0000
  Mg  Mg1       1.0  2.1380445441522425e-08  3.267325680542407e-08  0.9999999221586686  1.0000
  I   I1        1.0  0.2570741666515449  0.25707411972807653  0.7429258430778388  1.0000
  I   I2        1.0  0.742925804900872  0.7429258266585701  0.25707420924616675  1.0000
  I   I3        1.0  0.7429258030860093  0.2570741816333016  0.2570741763940062  1.0000
  I   I4        1.0  0.2570741667604914  0.7429258798876797  0.7429258230268767  1.0000
  I   I5        1.0  0.2570741982854905  0.7429257950122674  0.2570741690498147  1.0000
  I   I6        1.0  0.7429258454113706  0.2570741373715558  0.7429258554737421  1.0000
