data_image0
_chemical_formula_structural       Sb2MnF6
_chemical_formula_sum              "Sb2 Mn1 F6"
_cell_length_a       5.535776740202646
_cell_length_b       5.535776292310981
_cell_length_c       5.535776592550608
_cell_angle_alpha    60.00000303704062
_cell_angle_beta     60.00000152773374
_cell_angle_gamma    60.00000123843171

_space_group_name_H-M_alt    "P 1"
_space_group_IT_number       1

loop_
  _space_group_symop_operation_xyz
  'x, y, z'

loop_
  _atom_site_type_symbol
  _atom_site_label
  _atom_site_symmetry_multiplicity
  _atom_site_fract_x
  _atom_site_fract_y
  _atom_site_fract_z
  _atom_site_occupancy
  Sb  Sb1       1.0  0.25000431813934937  0.24999771810324825  0.24999756401164722  1.0000
  Sb  Sb2       1.0  0.7499965423510694  0.7500075040495214  0.7499928416605215  1.0000
  Mn  Mn1       1.0  4.965999032372703e-08  5.7522849482670985e-08  0.999999827184118  1.0000
  F   F1        1.0  0.2609910540523343  0.26098567610925816  0.7390123822844425  1.0000
  F   F2        1.0  0.7390101645415053  0.7390130525986374  0.26099094152799124  1.0000
  F   F3        1.0  0.7390106472355027  0.260985052904286  0.26099170980034375  1.0000
  F   F4        1.0  0.26098985524603785  0.7390111934710963  0.7390120697634015  1.0000
  F   F5        1.0  0.26098727523984794  0.7390123786492842  0.2609895095985443  1.0000
  F   F6        1.0  0.7390100948123133  0.2609873390090943  0.7390131593878065  1.0000
