data_image0
_chemical_formula_structural       Sb2MnBr6
_chemical_formula_sum              "Sb2 Mn1 Br6"
_cell_length_a       8.058502088439106
_cell_length_b       8.058509288667882
_cell_length_c       8.058504526570006
_cell_angle_alpha    59.999968923208584
_cell_angle_beta     59.999937647076386
_cell_angle_gamma    60.00000353223091

_space_group_name_H-M_alt    "P 1"
_space_group_IT_number       1

loop_
  _space_group_symop_operation_xyz
  'x, y, z'

loop_
  _atom_site_type_symbol
  _atom_site_label
  _atom_site_symmetry_multiplicity
  _atom_site_fract_x
  _atom_site_fract_y
  _atom_site_fract_z
  _atom_site_occupancy
  Sb  Sb1       1.0  0.250003438949684  0.24999772353261251  0.2500026562014818  1.0000
  Sb  Sb2       1.0  0.7499934361397881  0.7500074887849368  0.7499961345300481  1.0000
  Mn  Mn1       1.0  9.587329825674822e-07  0.9999994923817399  0.9999995907855487  1.0000
  Br  Br1       1.0  0.20230336534195434  0.2023005347242107  0.7976974164477518  1.0000
  Br  Br2       1.0  0.7976980669632524  0.7976989585267529  0.2023029094809399  1.0000
  Br  Br3       1.0  0.7976969146323799  0.20230069412803744  0.20230263562530681  1.0000
  Br  Br4       1.0  0.20230359057317385  0.797697071092633  0.7976977819080525  1.0000
  Br  Br5       1.0  0.20230249314511853  0.797697041211628  0.20230242511884985  1.0000
  Br  Br6       1.0  0.7976977839215514  0.20230096565954947  0.797698444800958  1.0000
