data_image0
_chemical_formula_structural       Sb2MoS6
_chemical_formula_sum              "Sb2 Mo1 S6"
_cell_length_a       6.362502618313792
_cell_length_b       6.362503018880589
_cell_length_c       6.3625029326239355
_cell_angle_alpha    59.99999815376328
_cell_angle_beta     59.99999829649159
_cell_angle_gamma    59.99999877005821

_space_group_name_H-M_alt    "P 1"
_space_group_IT_number       1

loop_
  _space_group_symop_operation_xyz
  'x, y, z'

loop_
  _atom_site_type_symbol
  _atom_site_label
  _atom_site_symmetry_multiplicity
  _atom_site_fract_x
  _atom_site_fract_y
  _atom_site_fract_z
  _atom_site_occupancy
  Sb  Sb1       1.0  0.250000225934315  0.25000007633859755  0.24999992670544877  1.0000
  Sb  Sb2       1.0  0.7500000487662132  0.7500000961948484  0.7499985437571312  1.0000
  Mo  Mo1       1.0  2.9109957637329765e-08  5.967320064227789e-08  0.9999999210308326  1.0000
  S   S1        1.0  0.2598060261634156  0.2598060294215836  0.7401939310040136  1.0000
  S   S2        1.0  0.7401937821577369  0.740194077663792  0.25980674800400805  1.0000
  S   S3        1.0  0.7401938885302286  0.2598057564696225  0.2598063261270096  1.0000
  S   S4        1.0  0.2598062274071226  0.7401938905546321  0.7401941917754961  1.0000
  S   S5        1.0  0.2598057875608812  0.7401938336272975  0.2598063723897973  1.0000
  S   S6        1.0  0.7401939854729043  0.2598061887606411  0.7401940585557601  1.0000
