data_image0
_chemical_formula_structural       Sb2MnS6
_chemical_formula_sum              "Sb2 Mn1 S6"
_cell_length_a       6.228023236329848
_cell_length_b       6.228022895383918
_cell_length_c       6.228022957000832
_cell_angle_alpha    60.00000127221953
_cell_angle_beta     60.0000005065166
_cell_angle_gamma    60.00000038599711

_space_group_name_H-M_alt    "P 1"
_space_group_IT_number       1

loop_
  _space_group_symop_operation_xyz
  'x, y, z'

loop_
  _atom_site_type_symbol
  _atom_site_label
  _atom_site_symmetry_multiplicity
  _atom_site_fract_x
  _atom_site_fract_y
  _atom_site_fract_z
  _atom_site_occupancy
  Sb  Sb1       1.0  0.24999994396617037  0.250000138077584  0.24999998929642764  1.0000
  Sb  Sb2       1.0  0.7499998905982214  0.7499999934003179  0.7499998824184073  1.0000
  Mn  Mn1       1.0  4.417886000422836e-08  0.9999999842679487  6.766453993056863e-08  1.0000
  S   S1        1.0  0.25383553260018094  0.2538353601237924  0.7461645199892959  1.0000
  S   S2        1.0  0.7461645556915146  0.7461644940766743  0.2538355690232844  1.0000
  S   S3        1.0  0.7461645378534681  0.25383542676551507  0.2538354944071578  1.0000
  S   S4        1.0  0.2538355866000036  0.7461645080617245  0.7461644944643533  1.0000
  S   S5        1.0  0.25383542176157753  0.746164444221181  0.253835484269497  1.0000
  S   S6        1.0  0.746164493651205  0.2538356282615228  0.746164463223623  1.0000
