data_image0
_chemical_formula_structural       Sb2NiTe6
_chemical_formula_sum              "Sb2 Ni1 Te6"
_cell_length_a       6.993564957069775
_cell_length_b       6.993564970317783
_cell_length_c       6.993565011223076
_cell_angle_alpha    59.999999316768125
_cell_angle_beta     60.00000017257702
_cell_angle_gamma    59.99999951215345

_space_group_name_H-M_alt    "P 1"
_space_group_IT_number       1

loop_
  _space_group_symop_operation_xyz
  'x, y, z'

loop_
  _atom_site_type_symbol
  _atom_site_label
  _atom_site_symmetry_multiplicity
  _atom_site_fract_x
  _atom_site_fract_y
  _atom_site_fract_z
  _atom_site_occupancy
  Sb  Sb1       1.0  0.2500000492055755  0.2499997192116639  0.25000019780707766  1.0000
  Sb  Sb2       1.0  0.7499999550882163  0.7500002206409806  0.7499999179616578  1.0000
  Ni  Ni1       1.0  0.999999974266464  0.9999999929950176  1.12171614406541e-07  1.0000
  Te  Te1       1.0  0.25465574786599693  0.2546555680060652  0.7453443203233477  1.0000
  Te  Te2       1.0  0.7453442757229132  0.7453444278864342  0.2546556476766866  1.0000
  Te  Te3       1.0  0.7453443496619624  0.2546555633642297  0.25465572364829786  1.0000
  Te  Te4       1.0  0.2546556523626215  0.7453444377820068  0.7453441824426219  1.0000
  Te  Te5       1.0  0.2546556361442942  0.7453444553111638  0.254655642466708  1.0000
  Te  Te6       1.0  0.7453443617596822  0.2546556176361356  0.7453442569518159  1.0000
