data_image0
_chemical_formula_structural       Sb2NO6
_chemical_formula_sum              "Sb2 N1 O6"
_cell_length_a       5.090236619022416
_cell_length_b       5.090236687804076
_cell_length_c       5.090236638012749
_cell_angle_alpha    60.00000195026016
_cell_angle_beta     60.00000147356949
_cell_angle_gamma    60.00000265916828

_space_group_name_H-M_alt    "P 1"
_space_group_IT_number       1

loop_
  _space_group_symop_operation_xyz
  'x, y, z'

loop_
  _atom_site_type_symbol
  _atom_site_label
  _atom_site_symmetry_multiplicity
  _atom_site_fract_x
  _atom_site_fract_y
  _atom_site_fract_z
  _atom_site_occupancy
  Sb  Sb1       1.0  0.24999997630888612  0.2500000071210969  0.24999993402456655  1.0000
  Sb  Sb2       1.0  0.7500000467490469  0.7500000285814942  0.7499999124333836  1.0000
  N   N1        1.0  3.959790420685459e-08  0.9999998267632062  3.538671977443723e-08  1.0000
  O   O1        1.0  0.24069775289153972  0.24069782775274826  0.7593022296841583  1.0000
  O   O2        1.0  0.7593022314649466  0.7593022151680435  0.2406977739626693  1.0000
  O   O3        1.0  0.7593022241136442  0.24069778355726285  0.24069792434219842  1.0000
  O   O4        1.0  0.24069772181660554  0.7593022521453306  0.7593022533968271  1.0000
  O   O5        1.0  0.24069775376670743  0.7593022673661839  0.2406977900321815  1.0000
  O   O6        1.0  0.7593022335226566  0.24069778036674072  0.7593021566994204  1.0000
