data_image0
_chemical_formula_structural       Sb2NbO6
_chemical_formula_sum              "Sb2 Nb1 O6"
_cell_length_a       5.405818360246038
_cell_length_b       5.405818328627966
_cell_length_c       5.405818427422528
_cell_angle_alpha    59.99999956486284
_cell_angle_beta     59.99999803929237
_cell_angle_gamma    59.999999624532705

_space_group_name_H-M_alt    "P 1"
_space_group_IT_number       1

loop_
  _space_group_symop_operation_xyz
  'x, y, z'

loop_
  _atom_site_type_symbol
  _atom_site_label
  _atom_site_symmetry_multiplicity
  _atom_site_fract_x
  _atom_site_fract_y
  _atom_site_fract_z
  _atom_site_occupancy
  Sb  Sb1       1.0  0.24999990171635325  0.2499999518085555  0.2500004713625894  1.0000
  Sb  Sb2       1.0  0.7500000697520363  0.7499992550403518  0.7500008715793928  1.0000
  Nb  Nb1       1.0  4.6607807127892e-09  0.999999979609556  7.445974309702458e-08  1.0000
  O   O1        1.0  0.25747901808420864  0.25747941545116426  0.742520601587053  1.0000
  O   O2        1.0  0.7425207902085632  0.742520806388748  0.2574789909484423  1.0000
  O   O3        1.0  0.7425207651546785  0.2574795736181746  0.25747878773160776  1.0000
  O   O4        1.0  0.257479110839471  0.7425209065007018  0.7425206769610306  1.0000
  O   O5        1.0  0.25747945097432196  0.7425207418709654  0.2574789132433772  1.0000
  O   O6        1.0  0.7425209142640834  0.25747935989188775  0.7425206402941137  1.0000
