data_image0
_chemical_formula_structural       Sb2NiCl6
_chemical_formula_sum              "Sb2 Ni1 Cl6"
_cell_length_a       7.015350310553178
_cell_length_b       7.015351806172551
_cell_length_c       7.015351298359233
_cell_angle_alpha    60.000031368471106
_cell_angle_beta     60.00000742472599
_cell_angle_gamma    60.00001056118014

_space_group_name_H-M_alt    "P 1"
_space_group_IT_number       1

loop_
  _space_group_symop_operation_xyz
  'x, y, z'

loop_
  _atom_site_type_symbol
  _atom_site_label
  _atom_site_symmetry_multiplicity
  _atom_site_fract_x
  _atom_site_fract_y
  _atom_site_fract_z
  _atom_site_occupancy
  Sb  Sb1       1.0  0.25000100391997376  0.24999775454653544  0.2500010761974644  1.0000
  Sb  Sb2       1.0  0.7500005483037576  0.75000103422353  0.7500016298595609  1.0000
  Ni  Ni1       1.0  0.9999999313173977  6.284900391267209e-08  0.9999999088374125  1.0000
  Cl  Cl1       1.0  0.23475662751138054  0.23475685075203467  0.7652430331746403  1.0000
  Cl  Cl2       1.0  0.7652428993701392  0.7652435057511541  0.23475614706399314  1.0000
  Cl  Cl3       1.0  0.765243022615376  0.23475716321206344  0.23475610411998182  1.0000
  Cl  Cl4       1.0  0.23475595536721447  0.7652438968509813  0.7652426452778416  1.0000
  Cl  Cl5       1.0  0.23475687368222856  0.7652437084222453  0.2347561461805617  1.0000
  Cl  Cl6       1.0  0.7652431436736404  0.23475601609910635  0.7652433115013002  1.0000
