data_image0
_chemical_formula_structural       Sb2NbTe6
_chemical_formula_sum              "Sb2 Nb1 Te6"
_cell_length_a       7.270308981491329
_cell_length_b       7.270309059490487
_cell_length_c       7.27030896240879
_cell_angle_alpha    60.00000018191219
_cell_angle_beta     59.99999980626482
_cell_angle_gamma    60.00000065105107

_space_group_name_H-M_alt    "P 1"
_space_group_IT_number       1

loop_
  _space_group_symop_operation_xyz
  'x, y, z'

loop_
  _atom_site_type_symbol
  _atom_site_label
  _atom_site_symmetry_multiplicity
  _atom_site_fract_x
  _atom_site_fract_y
  _atom_site_fract_z
  _atom_site_occupancy
  Sb  Sb1       1.0  0.24999992027689227  0.2500000238041058  0.24999999238645162  1.0000
  Sb  Sb2       1.0  0.750000000578142  0.74999988105429  0.7500000982631163  1.0000
  Nb  Nb1       1.0  5.6455533850825616e-08  0.9999999545162236  1.9272353817276033e-08  1.0000
  Te  Te1       1.0  0.2630860122702981  0.26308608281667945  0.7369139510507954  1.0000
  Te  Te2       1.0  0.7369139695131309  0.7369139584930466  0.2630859845151578  1.0000
  Te  Te3       1.0  0.7369139692237247  0.2630860939150069  0.26308603170110056  1.0000
  Te  Te4       1.0  0.2630860494746269  0.7369139271797076  0.7369139807932535  1.0000
  Te  Te5       1.0  0.2630860728151198  0.7369139802950234  0.2630860024032781  1.0000
  Te  Te6       1.0  0.7369139506148972  0.263086098075558  0.7369139364481317  1.0000
