data_image0
_chemical_formula_structural       Sb2NF6
_chemical_formula_sum              "Sb2 N1 F6"
_cell_length_a       13.179984808004274
_cell_length_b       13.397648102149516
_cell_length_c       11.219738570372682
_cell_angle_alpha    57.04258711408014
_cell_angle_beta     57.16739708797086
_cell_angle_gamma    64.13594498286041

_space_group_name_H-M_alt    "P 1"
_space_group_IT_number       1

loop_
  _space_group_symop_operation_xyz
  'x, y, z'

loop_
  _atom_site_type_symbol
  _atom_site_label
  _atom_site_symmetry_multiplicity
  _atom_site_fract_x
  _atom_site_fract_y
  _atom_site_fract_z
  _atom_site_occupancy
  Sb  Sb1       1.0  0.07096543658707974  0.061846065892885514  0.9686895529596458  1.0000
  Sb  Sb2       1.0  0.9378500729285351  0.8599311409707538  0.07959035344243826  1.0000
  N   N1        1.0  0.0799099448606318  0.8901560877645665  0.07384770138706565  1.0000
  F   F1        1.0  0.12632287288230828  0.13229341693436855  0.7489134593786791  1.0000
  F   F2        1.0  0.7703490141071884  0.8951959704485838  0.2268960229730662  1.0000
  F   F3        1.0  0.9464588943449115  0.15807391002802976  0.08096386111699252  1.0000
  F   F4        1.0  0.9516893576261193  0.8692393796146745  0.8916688026811422  1.0000
  F   F5        1.0  0.20368707643311781  0.0868975853502425  0.9653165707065904  1.0000
  F   F6        1.0  0.9128974216453806  0.046339070144717366  0.9640199669882014  1.0000
