data_image0
_chemical_formula_structural       Sb2NbS6
_chemical_formula_sum              "Sb2 Nb1 S6"
_cell_length_a       6.410850992768413
_cell_length_b       6.410850928440216
_cell_length_c       6.4108509701536915
_cell_angle_alpha    59.99999950066534
_cell_angle_beta     60.00000107011482
_cell_angle_gamma    59.999999963448566

_space_group_name_H-M_alt    "P 1"
_space_group_IT_number       1

loop_
  _space_group_symop_operation_xyz
  'x, y, z'

loop_
  _atom_site_type_symbol
  _atom_site_label
  _atom_site_symmetry_multiplicity
  _atom_site_fract_x
  _atom_site_fract_y
  _atom_site_fract_z
  _atom_site_occupancy
  Sb  Sb1       1.0  0.250000358665305  0.2499992948550477  0.250000229867318  1.0000
  Sb  Sb2       1.0  0.7500004723980549  0.7500004464448443  0.7499992284657294  1.0000
  Nb  Nb1       1.0  1.1553062037755571e-08  0.9999999923583006  1.3642871997411701e-08  1.0000
  S   S1        1.0  0.2624211399444774  0.2624210150986052  0.7375789097432325  1.0000
  S   S2        1.0  0.737578665830848  0.7375790949132748  0.2624212200460007  1.0000
  S   S3        1.0  0.7375788065693845  0.26242089935456875  0.26242134715866994  1.0000
  S   S4        1.0  0.2624209417341325  0.7375791074943713  0.7375787085222604  1.0000
  S   S5        1.0  0.26242081730199485  0.7375791374824693  0.2624213493123259  1.0000
  S   S6        1.0  0.7375787921275189  0.2624210050066316  0.7375789887594824  1.0000
