data_image0
_chemical_formula_structural       Sb2NiI6
_chemical_formula_sum              "Sb2 Ni1 I6"
_cell_length_a       7.64352159002611
_cell_length_b       7.6435215136086665
_cell_length_c       7.643521429261541
_cell_angle_alpha    60.000001264141055
_cell_angle_beta     60.000000450226224
_cell_angle_gamma    60.00000005684927

_space_group_name_H-M_alt    "P 1"
_space_group_IT_number       1

loop_
  _space_group_symop_operation_xyz
  'x, y, z'

loop_
  _atom_site_type_symbol
  _atom_site_label
  _atom_site_symmetry_multiplicity
  _atom_site_fract_x
  _atom_site_fract_y
  _atom_site_fract_z
  _atom_site_occupancy
  Sb  Sb1       1.0  0.24999995122616644  0.24999990609236722  0.2500001714003381  1.0000
  Sb  Sb2       1.0  0.7500000469971848  0.7499999586266886  0.7499998224548857  1.0000
  Ni  Ni1       1.0  1.2970477248930067e-08  6.40932212673698e-09  0.9999999641441503  1.0000
  I   I1        1.0  0.2474821750911395  0.24748224326679738  0.7525177725155832  1.0000
  I   I2        1.0  0.7525177877578523  0.7525177864923137  0.247482248087619  1.0000
  I   I3        1.0  0.7525178046511716  0.2474822136476309  0.24748220373585864  1.0000
  I   I4        1.0  0.24748219843666544  0.7525178449534314  0.7525177927933254  1.0000
  I   I5        1.0  0.24748218700115684  0.7525178104953563  0.24748223551372037  1.0000
  I   I6        1.0  0.7525178366263391  0.24748222727540803  0.7525177899433281  1.0000
