data_image0
_chemical_formula_structural       Sb2NbCl6
_chemical_formula_sum              "Sb2 Nb1 Cl6"
_cell_length_a       7.690451994291103
_cell_length_b       7.690449728273814
_cell_length_c       7.690453034093125
_cell_angle_alpha    59.999972789015985
_cell_angle_beta     60.000001789229685
_cell_angle_gamma    59.99997522192399

_space_group_name_H-M_alt    "P 1"
_space_group_IT_number       1

loop_
  _space_group_symop_operation_xyz
  'x, y, z'

loop_
  _atom_site_type_symbol
  _atom_site_label
  _atom_site_symmetry_multiplicity
  _atom_site_fract_x
  _atom_site_fract_y
  _atom_site_fract_z
  _atom_site_occupancy
  Sb  Sb1       1.0  0.25000074370015857  0.2499982981058133  0.24999929128334247  1.0000
  Sb  Sb2       1.0  0.7500027834754808  0.7499993136529927  0.7499989040420796  1.0000
  Nb  Nb1       1.0  0.999999536224296  1.4810752375874878e-07  1.2402590229899786e-07  1.0000
  Cl  Cl1       1.0  0.21898277140610095  0.21898428818369703  0.7810162842936892  1.0000
  Cl  Cl2       1.0  0.7810162384131611  0.7810159974727766  0.2189836363543622  1.0000
  Cl  Cl3       1.0  0.7810161981588734  0.21898418907703343  0.2189840449418718  1.0000
  Cl  Cl4       1.0  0.21898346182410783  0.7810163577579977  0.7810164823911862  1.0000
  Cl  Cl5       1.0  0.2189828094050237  0.7810170239630233  0.2189846496955785  1.0000
  Cl  Cl6       1.0  0.7810154558156482  0.21898440992438034  0.7810165879023377  1.0000
