data_image0
_chemical_formula_structural       Sb2NbBr6
_chemical_formula_sum              "Sb2 Nb1 Br6"
_cell_length_a       8.026689531441896
_cell_length_b       8.026689659031126
_cell_length_c       8.026689108798847
_cell_angle_alpha    59.9999988312807
_cell_angle_beta     59.99999920466781
_cell_angle_gamma    59.99999721337578

_space_group_name_H-M_alt    "P 1"
_space_group_IT_number       1

loop_
  _space_group_symop_operation_xyz
  'x, y, z'

loop_
  _atom_site_type_symbol
  _atom_site_label
  _atom_site_symmetry_multiplicity
  _atom_site_fract_x
  _atom_site_fract_y
  _atom_site_fract_z
  _atom_site_occupancy
  Sb  Sb1       1.0  0.2499995563363733  0.2500004281508115  0.25000006568940814  1.0000
  Sb  Sb2       1.0  0.7500000931056329  0.7499999813845372  0.7499997752592523  1.0000
  Nb  Nb1       1.0  1.2206725357491774e-08  0.9999999633798246  3.71235995942054e-08  1.0000
  Br  Br1       1.0  0.22379500698451565  0.22379504333649025  0.7762049374774493  1.0000
  Br  Br2       1.0  0.7762050552643198  0.7762048916624167  0.2237950975415455  1.0000
  Br  Br3       1.0  0.7762050776620794  0.22379495749691478  0.22379506095631033  1.0000
  Br  Br4       1.0  0.22379500789571533  0.776204911890845  0.7762050288515593  1.0000
  Br  Br5       1.0  0.22379510815868747  0.7762048045209665  0.22379505490389978  1.0000
  Br  Br6       1.0  0.7762050887803364  0.22379503282413948  0.7762049316966523  1.0000
