data_image0
_chemical_formula_structural       Sb2NbI6
_chemical_formula_sum              "Sb2 Nb1 I6"
_cell_length_a       8.22512735120939
_cell_length_b       8.225127220522463
_cell_length_c       8.225127165434463
_cell_angle_alpha    60.00000111595467
_cell_angle_beta     59.999999355480284
_cell_angle_gamma    59.99999881387903

_space_group_name_H-M_alt    "P 1"
_space_group_IT_number       1

loop_
  _space_group_symop_operation_xyz
  'x, y, z'

loop_
  _atom_site_type_symbol
  _atom_site_label
  _atom_site_symmetry_multiplicity
  _atom_site_fract_x
  _atom_site_fract_y
  _atom_site_fract_z
  _atom_site_occupancy
  Sb  Sb1       1.0  0.2500001392839621  0.24999984985984214  0.24999998105827143  1.0000
  Sb  Sb2       1.0  0.7499998691137976  0.7500001049871582  0.7500000905975999  1.0000
  Nb  Nb1       1.0  5.2057554030653486e-08  0.9999999449059453  0.9999999820656627  1.0000
  I   I1        1.0  0.23768772536466495  0.23768764563752368  0.7623123165923011  1.0000
  I   I2        1.0  0.7623123037358911  0.7623123523913012  0.23768765868456607  1.0000
  I   I3        1.0  0.7623122954952606  0.23768766767526828  0.2376876474604328  1.0000
  I   I4        1.0  0.23768762794522263  0.7623123988488685  0.7623123767934833  1.0000
  I   I5        1.0  0.23768768219616498  0.7623123550340514  0.23768761827872475  1.0000
  I   I6        1.0  0.7623123069999321  0.2376876742643715  0.7623123345682666  1.0000
