data_image0
_chemical_formula_structural       Sb2NbF6
_chemical_formula_sum              "Sb2 Nb1 F6"
_cell_length_a       6.963881439731112
_cell_length_b       6.963887976547958
_cell_length_c       6.963889386206532
_cell_angle_alpha    60.00003181734108
_cell_angle_beta     60.00000761454694
_cell_angle_gamma    59.999995037650024

_space_group_name_H-M_alt    "P 1"
_space_group_IT_number       1

loop_
  _space_group_symop_operation_xyz
  'x, y, z'

loop_
  _atom_site_type_symbol
  _atom_site_label
  _atom_site_symmetry_multiplicity
  _atom_site_fract_x
  _atom_site_fract_y
  _atom_site_fract_z
  _atom_site_occupancy
  Sb  Sb1       1.0  0.25002247949747974  0.24997881331269511  0.2499996379887457  1.0000
  Sb  Sb2       1.0  0.7499605636742743  0.7500180651439668  0.7500481906914637  1.0000
  Nb  Nb1       1.0  8.591249951989702e-07  1.3366091290501645e-07  0.999997543495832  1.0000
  F   F1        1.0  0.1969880478296508  0.1969751181379531  0.8030151879780861  1.0000
  F   F2        1.0  0.8030156136391347  0.8030238162253501  0.19696822120249058  1.0000
  F   F3        1.0  0.8030173348425674  0.19698488103211853  0.19697419525911716  1.0000
  F   F4        1.0  0.19698331658505813  0.8030222577064552  0.8030129695275443  1.0000
  F   F5        1.0  0.1969920401868174  0.8030206003276793  0.19696784156499444  1.0000
  F   F6        1.0  0.803019765925253  0.19697627986230976  0.8030162085412833  1.0000
