data_image0
_chemical_formula_structural       Sb2OsO6
_chemical_formula_sum              "Sb2 Os1 O6"
_cell_length_a       5.446072707189417
_cell_length_b       5.446072700188377
_cell_length_c       5.4460727423531425
_cell_angle_alpha    59.99999965718532
_cell_angle_beta     59.99999928801875
_cell_angle_gamma    60.00000003848028

_space_group_name_H-M_alt    "P 1"
_space_group_IT_number       1

loop_
  _space_group_symop_operation_xyz
  'x, y, z'

loop_
  _atom_site_type_symbol
  _atom_site_label
  _atom_site_symmetry_multiplicity
  _atom_site_fract_x
  _atom_site_fract_y
  _atom_site_fract_z
  _atom_site_occupancy
  Sb  Sb1       1.0  0.24999985319706544  0.24999999632219036  0.2500000941169031  1.0000
  Sb  Sb2       1.0  0.7499999987831605  0.7499998990122192  0.75000003428448  1.0000
  Os  Os1       1.0  0.999999977169702  1.1244294098998912e-08  0.9999999929397033  1.0000
  O   O1        1.0  0.24306604949882443  0.24306604530566908  0.7569339308928226  1.0000
  O   O2        1.0  0.75693400321742  0.7569339602228244  0.24306602735402413  1.0000
  O   O3        1.0  0.7569339837915858  0.24306612357330262  0.24306596747702586  1.0000
  O   O4        1.0  0.24306607027321658  0.7569339224346501  0.7569339845452965  1.0000
  O   O5        1.0  0.24306607024485702  0.7569339557048388  0.24306605201571618  1.0000
  O   O6        1.0  0.7569339965414121  0.2430660903031138  0.7569339175162848  1.0000
