data_image0
_chemical_formula_structural       Sb2OsS6
_chemical_formula_sum              "Sb2 Os1 S6"
_cell_length_a       6.249900515002089
_cell_length_b       6.249900250657813
_cell_length_c       6.249900182509526
_cell_angle_alpha    60.00000113881183
_cell_angle_beta     60.00000206030071
_cell_angle_gamma    60.00000253150228

_space_group_name_H-M_alt    "P 1"
_space_group_IT_number       1

loop_
  _space_group_symop_operation_xyz
  'x, y, z'

loop_
  _atom_site_type_symbol
  _atom_site_label
  _atom_site_symmetry_multiplicity
  _atom_site_fract_x
  _atom_site_fract_y
  _atom_site_fract_z
  _atom_site_occupancy
  Sb  Sb1       1.0  0.25000010830388125  0.250000556355949  0.24999968070735107  1.0000
  Sb  Sb2       1.0  0.7499994903128475  0.7500000602173076  0.7500003246476807  1.0000
  Os  Os1       1.0  0.9999999876082835  3.919245845587875e-09  1.5436414220958394e-08  1.0000
  S   S1        1.0  0.2647510447958127  0.2647507157339462  0.7352490590906822  1.0000
  S   S2        1.0  0.7352492105373991  0.7352490170493335  0.2647508101971064  1.0000
  S   S3        1.0  0.7352490951606466  0.26475085954527194  0.26475092115597126  1.0000
  S   S4        1.0  0.2647511121554881  0.7352488399244168  0.7352492416011884  1.0000
  S   S5        1.0  0.2647510658019104  0.7352489303703127  0.26475078371932775  1.0000
  S   S6        1.0  0.7352488913071389  0.2647510042541327  0.735249172160573  1.0000
