data_image0
_chemical_formula_structural       Sb2PdF6
_chemical_formula_sum              "Sb2 Pd1 F6"
_cell_length_a       5.524061398524039
_cell_length_b       5.524061211132359
_cell_length_c       5.524061182762116
_cell_angle_alpha    59.99999942575352
_cell_angle_beta     59.99999838283435
_cell_angle_gamma    60.000000796861634

_space_group_name_H-M_alt    "P 1"
_space_group_IT_number       1

loop_
  _space_group_symop_operation_xyz
  'x, y, z'

loop_
  _atom_site_type_symbol
  _atom_site_label
  _atom_site_symmetry_multiplicity
  _atom_site_fract_x
  _atom_site_fract_y
  _atom_site_fract_z
  _atom_site_occupancy
  Sb  Sb1       1.0  0.2499988066484355  0.2500004077213213  0.24999979370680506  1.0000
  Sb  Sb2       1.0  0.7499998295865863  0.7500008396040955  0.7500000403944616  1.0000
  Pd  Pd1       1.0  0.9999999616353688  2.2171086467755036e-09  0.9999999999711386  1.0000
  F   F1        1.0  0.2639187957716703  0.26391824561968047  0.7360818009852175  1.0000
  F   F2        1.0  0.7360818186047423  0.7360811371166693  0.26391848864410034  1.0000
  F   F3        1.0  0.7360820249966858  0.26391841711286457  0.2639185594919103  1.0000
  F   F4        1.0  0.26391841201470695  0.7360812782359244  0.7360816353597645  1.0000
  F   F5        1.0  0.2639186437741523  0.7360814898708979  0.2639184209464125  1.0000
  F   F6        1.0  0.7360816883630745  0.26391818774101117  0.7360812559268345  1.0000
