data_image0
_chemical_formula_structural       Sb2PbTe6
_chemical_formula_sum              "Sb2 Pb1 Te6"
_cell_length_a       7.579770852635243
_cell_length_b       7.579771115427775
_cell_length_c       7.579770779795882
_cell_angle_alpha    60.00000056199434
_cell_angle_beta     60.00000153608993
_cell_angle_gamma    60.00000047144491

_space_group_name_H-M_alt    "P 1"
_space_group_IT_number       1

loop_
  _space_group_symop_operation_xyz
  'x, y, z'

loop_
  _atom_site_type_symbol
  _atom_site_label
  _atom_site_symmetry_multiplicity
  _atom_site_fract_x
  _atom_site_fract_y
  _atom_site_fract_z
  _atom_site_occupancy
  Sb  Sb1       1.0  0.24999981999871215  0.2500001491479964  0.2500000661695123  1.0000
  Sb  Sb2       1.0  0.749999959924243  0.7500000079444371  0.7499997632688266  1.0000
  Pb  Pb1       1.0  2.695911005289014e-08  2.4237107750393574e-08  0.9999999638474824  1.0000
  Te  Te1       1.0  0.28891398738745194  0.28891399107881655  0.7110860048860171  1.0000
  Te  Te2       1.0  0.7110860672435664  0.7110859268741465  0.2889141313161025  1.0000
  Te  Te3       1.0  0.7110860930275898  0.2889139022831836  0.2889140194571663  1.0000
  Te  Te4       1.0  0.28891407925883167  0.7110860237488149  0.7110860340882184  1.0000
  Te  Te5       1.0  0.2889138715627441  0.7110859686120634  0.28891405859480535  1.0000
  Te  Te6       1.0  0.7110860925250877  0.2889140107415757  0.7110859523326508  1.0000
