data_image0
_chemical_formula_structural       Sb2PO6
_chemical_formula_sum              "Sb2 P1 O6"
_cell_length_a       5.211360646390785
_cell_length_b       5.211361200071606
_cell_length_c       5.211360964035247
_cell_angle_alpha    60.000000266107946
_cell_angle_beta     59.999999700530275
_cell_angle_gamma    60.00000087860979

_space_group_name_H-M_alt    "P 1"
_space_group_IT_number       1

loop_
  _space_group_symop_operation_xyz
  'x, y, z'

loop_
  _atom_site_type_symbol
  _atom_site_label
  _atom_site_symmetry_multiplicity
  _atom_site_fract_x
  _atom_site_fract_y
  _atom_site_fract_z
  _atom_site_occupancy
  Sb  Sb1       1.0  0.24999991574806  0.25000007768418947  0.24999975243853517  1.0000
  Sb  Sb2       1.0  0.749999722114711  0.7499999627860137  0.7499999173557924  1.0000
  P   P1        1.0  0.9999999826542643  1.8801150561998266e-08  2.613667575874806e-08  1.0000
  O   O1        1.0  0.23201680475859612  0.23201680439753883  0.7679833087116303  1.0000
  O   O2        1.0  0.7679833116381901  0.7679831232657395  0.23201686517982545  1.0000
  O   O3        1.0  0.7679832946953816  0.2320167734835893  0.23201682810750338  1.0000
  O   O4        1.0  0.23201688906824786  0.767983184731559  0.7679832776357511  1.0000
  O   O5        1.0  0.2320169242158393  0.7679832309471779  0.23201671510392216  1.0000
  O   O6        1.0  0.7679831754150048  0.23201684007487836  0.7679833053035408  1.0000
