data_image0
_chemical_formula_structural       Sb2PbSe6
_chemical_formula_sum              "Sb2 Pb1 Se6"
_cell_length_a       6.661026784821069
_cell_length_b       6.661025074162202
_cell_length_c       6.661025838700413
_cell_angle_alpha    59.99998647067565
_cell_angle_beta     59.999994139812586
_cell_angle_gamma    59.99998829976241

_space_group_name_H-M_alt    "P 1"
_space_group_IT_number       1

loop_
  _space_group_symop_operation_xyz
  'x, y, z'

loop_
  _atom_site_type_symbol
  _atom_site_label
  _atom_site_symmetry_multiplicity
  _atom_site_fract_x
  _atom_site_fract_y
  _atom_site_fract_z
  _atom_site_occupancy
  Sb  Sb1       1.0  0.24999977048536523  0.24999693749745214  0.25000079558135657  1.0000
  Sb  Sb2       1.0  0.749996878168208  0.7500004214002997  0.7500020161556987  1.0000
  Pb  Pb1       1.0  2.957103202464093e-07  1.8938338426423668e-07  0.9999997064099213  1.0000
  Se  Se1       1.0  0.2942283755793478  0.29422659644880655  0.7057729524698869  1.0000
  Se  Se2       1.0  0.7057725676438726  0.7057738808393369  0.29422657764606086  1.0000
  Se  Se3       1.0  0.7057732810434381  0.2942272558248775  0.2942269780607035  1.0000
  Se  Se4       1.0  0.2942276846551511  0.7057736792930018  0.7057721392565764  1.0000
  Se  Se5       1.0  0.2942283877260784  0.7057736880532196  0.2942258899031796  1.0000
  Se  Se6       1.0  0.7057727728774961  0.2942273592237596  0.7057729297600889  1.0000
