data_image0
_chemical_formula_structural       Sb2PS6
_chemical_formula_sum              "Sb2 P1 S6"
_cell_length_a       6.281268017657493
_cell_length_b       6.281268159581442
_cell_length_c       6.281267943788038
_cell_angle_alpha    60.00000025325968
_cell_angle_beta     59.999997948321955
_cell_angle_gamma    59.99999866030155

_space_group_name_H-M_alt    "P 1"
_space_group_IT_number       1

loop_
  _space_group_symop_operation_xyz
  'x, y, z'

loop_
  _atom_site_type_symbol
  _atom_site_label
  _atom_site_symmetry_multiplicity
  _atom_site_fract_x
  _atom_site_fract_y
  _atom_site_fract_z
  _atom_site_occupancy
  Sb  Sb1       1.0  0.25000020867330813  0.24999988667481224  0.2499998725106853  1.0000
  Sb  Sb2       1.0  0.7499999814848245  0.7500001045872695  0.7500000215969319  1.0000
  P   P1        1.0  2.2171401631631293e-08  0.9999999941504888  0.9999999631824198  1.0000
  S   S1        1.0  0.24565522889972632  0.24565525968627405  0.7543447744055419  1.0000
  S   S2        1.0  0.7543446935480335  0.7543448563653765  0.24565513066514186  1.0000
  S   S3        1.0  0.7543447792050688  0.24565515570605423  0.24565526875082364  1.0000
  S   S4        1.0  0.24565512408213847  0.7543448082583153  0.754344877963233  1.0000
  S   S5        1.0  0.24565521406063606  0.7543446916696175  0.24565535619445256  1.0000
  S   S6        1.0  0.7543447474221266  0.2456552410973601  0.7543447435877811  1.0000
