data_image0
_chemical_formula_structural       Sb2PdI6
_chemical_formula_sum              "Sb2 Pd1 I6"
_cell_length_a       7.736400979659473
_cell_length_b       7.736401104778174
_cell_length_c       7.736401138676606
_cell_angle_alpha    59.9999995054542
_cell_angle_beta     60.00000017911066
_cell_angle_gamma    60.000001349097786

_space_group_name_H-M_alt    "P 1"
_space_group_IT_number       1

loop_
  _space_group_symop_operation_xyz
  'x, y, z'

loop_
  _atom_site_type_symbol
  _atom_site_label
  _atom_site_symmetry_multiplicity
  _atom_site_fract_x
  _atom_site_fract_y
  _atom_site_fract_z
  _atom_site_occupancy
  Sb  Sb1       1.0  0.24999993895111314  0.2499999202226529  0.2499999861501924  1.0000
  Sb  Sb2       1.0  0.7499999488266418  0.7500000408755637  0.7499999281524558  1.0000
  Pd  Pd1       1.0  9.904654614822116e-09  2.8495688855880275e-08  0.9999999627035587  1.0000
  I   I1        1.0  0.24946013440688355  0.2494600911194248  0.7505399206831251  1.0000
  I   I2        1.0  0.7505398855745145  0.7505399032237621  0.24946013709858628  1.0000
  I   I3        1.0  0.7505399233030925  0.2494600908060029  0.24946015389953485  1.0000
  I   I4        1.0  0.24946013442934425  0.7505399067033721  0.7505398756680192  1.0000
  I   I5        1.0  0.24946014066260017  0.7505398929017638  0.24946013054673405  1.0000
  I   I6        1.0  0.7505398863288809  0.2494601251878304  0.7505399053937786  1.0000
