data_image0
_chemical_formula_structural       Sb2PdSe6
_chemical_formula_sum              "Sb2 Pd1 Se6"
_cell_length_a       6.6054270553967624
_cell_length_b       6.605427256856364
_cell_length_c       6.605426960109509
_cell_angle_alpha    60.00000006193052
_cell_angle_beta     60.000000501286976
_cell_angle_gamma    60.000000054657434

_space_group_name_H-M_alt    "P 1"
_space_group_IT_number       1

loop_
  _space_group_symop_operation_xyz
  'x, y, z'

loop_
  _atom_site_type_symbol
  _atom_site_label
  _atom_site_symmetry_multiplicity
  _atom_site_fract_x
  _atom_site_fract_y
  _atom_site_fract_z
  _atom_site_occupancy
  Sb  Sb1       1.0  0.24999982325551334  0.2500003564666023  0.24999972581658153  1.0000
  Sb  Sb2       1.0  0.7499999732769994  0.7499999049939965  0.7500002391143591  1.0000
  Pd  Pd1       1.0  0.999999993201452  2.0395643349546875e-08  0.9999999689789452  1.0000
  Se  Se1       1.0  0.26432444954638423  0.26432449937619046  0.735675578739847  1.0000
  Se  Se2       1.0  0.7356756430408119  0.7356753931086852  0.264324383290044  1.0000
  Se  Se3       1.0  0.7356755843184217  0.2643245706449419  0.26432439731485624  1.0000
  Se  Se4       1.0  0.2643244860371762  0.7356753570687694  0.7356756914402033  1.0000
  Se  Se5       1.0  0.2643245078786255  0.7356754852412126  0.2643244140352229  1.0000
  Se  Se6       1.0  0.7356755320532249  0.2643244183685589  0.7356756050936532  1.0000
