data_image0
_chemical_formula_structural       Sb2PBr6
_chemical_formula_sum              "Sb2 P1 Br6"
_cell_length_a       7.572630121254122
_cell_length_b       7.572629926352034
_cell_length_c       7.5726296921258
_cell_angle_alpha    60.00001960437413
_cell_angle_beta     60.00000989902149
_cell_angle_gamma    60.00000399311756

_space_group_name_H-M_alt    "P 1"
_space_group_IT_number       1

loop_
  _space_group_symop_operation_xyz
  'x, y, z'

loop_
  _atom_site_type_symbol
  _atom_site_label
  _atom_site_symmetry_multiplicity
  _atom_site_fract_x
  _atom_site_fract_y
  _atom_site_fract_z
  _atom_site_occupancy
  Sb  Sb1       1.0  0.24999956644015456  0.24999983748050367  0.24999925277502305  1.0000
  Sb  Sb2       1.0  0.7500029887509883  0.7499979889160533  0.7499983720369661  1.0000
  P   P1        1.0  0.9999999003149332  5.660659821302907e-08  1.1793903779059396e-07  1.0000
  Br  Br1       1.0  0.24570206180752036  0.24570375434320407  0.7542977207673486  1.0000
  Br  Br2       1.0  0.7542971449598012  0.7542974522752838  0.24570320139383356  1.0000
  Br  Br3       1.0  0.7542972726366457  0.24570323125896684  0.24570279933929917  1.0000
  Br  Br4       1.0  0.24570240985039335  0.7542969370330052  0.7542973054315358  1.0000
  Br  Br5       1.0  0.24570169601078873  0.7542975828269716  0.24570388162233409  1.0000
  Br  Br6       1.0  0.7542969534761764  0.24570315476563404  0.7542973490073572  1.0000
