data_image0
_chemical_formula_structural       Sb2PtI6
_chemical_formula_sum              "Sb2 Pt1 I6"
_cell_length_a       7.766445858973279
_cell_length_b       7.766445819446873
_cell_length_c       7.76644597741925
_cell_angle_alpha    59.99999981974787
_cell_angle_beta     59.99999903208728
_cell_angle_gamma    60.0000014599804

_space_group_name_H-M_alt    "P 1"
_space_group_IT_number       1

loop_
  _space_group_symop_operation_xyz
  'x, y, z'

loop_
  _atom_site_type_symbol
  _atom_site_label
  _atom_site_symmetry_multiplicity
  _atom_site_fract_x
  _atom_site_fract_y
  _atom_site_fract_z
  _atom_site_occupancy
  Sb  Sb1       1.0  0.25000000820861606  0.24999992315451447  0.2500000306769576  1.0000
  Sb  Sb2       1.0  0.7499999459268046  0.750000050164124  0.7500000335205834  1.0000
  Pt  Pt1       1.0  2.8429218687424305e-08  0.9999999905381832  0.9999999956666599  1.0000
  I   I1        1.0  0.2465802595858252  0.2465802382987426  0.7534197514444031  1.0000
  I   I2        1.0  0.7534197348421172  0.753419779175044  0.2465802241760546  1.0000
  I   I3        1.0  0.7534197523335345  0.2465802436027928  0.24658023879582303  1.0000
  I   I4        1.0  0.24658025478487836  0.7534197581012986  0.7534197654036416  1.0000
  I   I5        1.0  0.2465802733334641  0.7534197764610113  0.24658021552870904  1.0000
  I   I6        1.0  0.7534197389358522  0.24658024101277554  0.7534197473082904  1.0000
