data_image0
_chemical_formula_structural       Sb2PF6
_chemical_formula_sum              "Sb2 P1 F6"
_cell_length_a       8.941754687947467
_cell_length_b       7.458176036831572
_cell_length_c       7.846046882941001
_cell_angle_alpha    49.495698376982816
_cell_angle_beta     31.12843595934605
_cell_angle_gamma    41.032511709630654

_space_group_name_H-M_alt    "P 1"
_space_group_IT_number       1

loop_
  _space_group_symop_operation_xyz
  'x, y, z'

loop_
  _atom_site_type_symbol
  _atom_site_label
  _atom_site_symmetry_multiplicity
  _atom_site_fract_x
  _atom_site_fract_y
  _atom_site_fract_z
  _atom_site_occupancy
  Sb  Sb1       1.0  0.15073971669351927  0.15778327795164324  0.2218684623786843  1.0000
  Sb  Sb2       1.0  0.8478869339633568  0.8422530095240076  0.7796169190546552  1.0000
  P   P1        1.0  0.00021816282771318715  4.280120651526089e-06  0.9997835752646564  1.0000
  F   F1        1.0  0.0715291182381976  0.21515142863498143  0.6995175729462062  1.0000
  F   F2        1.0  0.9289034538372672  0.7848289641962207  0.3000317907237666  1.0000
  F   F3        1.0  0.6536910323627524  0.24794716084775273  0.25597209605428434  1.0000
  F   F4        1.0  0.3466373867593995  0.7521238393701491  0.7435740195362615  1.0000
  F   F5        1.0  0.20776466254463571  0.020151004041029985  0.9639090002613209  1.0000
  F   F6        1.0  0.7926222894047494  0.9797597293993415  0.035726786813628175  1.0000
