data_image0
_chemical_formula_structural       Sb2PSe6
_chemical_formula_sum              "Sb2 P1 Se6"
_cell_length_a       6.474468177146427
_cell_length_b       6.474469053819093
_cell_length_c       6.474469543302918
_cell_angle_alpha    59.99999810338718
_cell_angle_beta     59.9999958053588
_cell_angle_gamma    59.99999507495681

_space_group_name_H-M_alt    "P 1"
_space_group_IT_number       1

loop_
  _space_group_symop_operation_xyz
  'x, y, z'

loop_
  _atom_site_type_symbol
  _atom_site_label
  _atom_site_symmetry_multiplicity
  _atom_site_fract_x
  _atom_site_fract_y
  _atom_site_fract_z
  _atom_site_occupancy
  Sb  Sb1       1.0  0.2500006654356428  0.2500001424041222  0.24999940916344765  1.0000
  Sb  Sb2       1.0  0.7499996235097746  0.7499999694324823  0.7499999424172572  1.0000
  P   P1        1.0  0.9999999487307384  0.999999945142065  1.750813150759383e-07  1.0000
  Se  Se1       1.0  0.2539011392767384  0.2539011223207456  0.7460987701675393  1.0000
  Se  Se2       1.0  0.7460987431461991  0.7460989838409235  0.25390126786009687  1.0000
  Se  Se3       1.0  0.7460987649874622  0.25390113973229234  0.25390128951772284  1.0000
  Se  Se4       1.0  0.25390125577648437  0.746098663764884  0.7460989372440939  1.0000
  Se  Se5       1.0  0.25390113559001326  0.7460988812221679  0.25390122999180537  1.0000
  Se  Se6       1.0  0.7460987209649551  0.2539011473817283  0.7460989848554752  1.0000
