data_image0
_chemical_formula_structural       Sb2PtS6
_chemical_formula_sum              "Sb2 Pt1 S6"
_cell_length_a       6.316258966564075
_cell_length_b       6.316258824433079
_cell_length_c       6.316258879208384
_cell_angle_alpha    59.99999862309607
_cell_angle_beta     59.999998567897606
_cell_angle_gamma    59.99999975551352

_space_group_name_H-M_alt    "P 1"
_space_group_IT_number       1

loop_
  _space_group_symop_operation_xyz
  'x, y, z'

loop_
  _atom_site_type_symbol
  _atom_site_label
  _atom_site_symmetry_multiplicity
  _atom_site_fract_x
  _atom_site_fract_y
  _atom_site_fract_z
  _atom_site_occupancy
  Sb  Sb1       1.0  0.25000067020039346  0.2499995258382431  0.25000031279941026  1.0000
  Sb  Sb2       1.0  0.7500007372677118  0.7500000337302339  0.7499999999368384  1.0000
  Pt  Pt1       1.0  0.9999999208925864  0.9999999301947287  0.999999952548738  1.0000
  S   S1        1.0  0.25939348967058284  0.2593938294638067  0.7406061494807209  1.0000
  S   S2        1.0  0.7406060997261905  0.7406065444994834  0.25939353626103745  1.0000
  S   S3        1.0  0.7406060441422068  0.25939372207013756  0.2593936172915078  1.0000
  S   S4        1.0  0.259393312066971  0.7406065452462083  0.7406061512906629  1.0000
  S   S5        1.0  0.25939350200937694  0.7406063868165427  0.25939382012315737  1.0000
  S   S6        1.0  0.7406062274795605  0.2593934791194965  0.7406064596390036  1.0000
