data_image0
_chemical_formula_structural       Sb2PtBr6
_chemical_formula_sum              "Sb2 Pt1 Br6"
_cell_length_a       7.48674466175803
_cell_length_b       7.486744475459501
_cell_length_c       7.486744083201043
_cell_angle_alpha    60.00000286944633
_cell_angle_beta     60.0000043762607
_cell_angle_gamma    60.00000550681416

_space_group_name_H-M_alt    "P 1"
_space_group_IT_number       1

loop_
  _space_group_symop_operation_xyz
  'x, y, z'

loop_
  _atom_site_type_symbol
  _atom_site_label
  _atom_site_symmetry_multiplicity
  _atom_site_fract_x
  _atom_site_fract_y
  _atom_site_fract_z
  _atom_site_occupancy
  Sb  Sb1       1.0  0.2499998916416511  0.24999977564736478  0.2500000381576978  1.0000
  Sb  Sb2       1.0  0.7500001789098469  0.7500001007154226  0.7499996906407483  1.0000
  Pt  Pt1       1.0  0.9999999759295252  4.907652971391761e-08  0.9999999420833728  1.0000
  Br  Br1       1.0  0.23644517907189855  0.2364451870147277  0.7635548111261373  1.0000
  Br  Br2       1.0  0.763554819797426  0.7635548627518016  0.23644519405658287  1.0000
  Br  Br3       1.0  0.7635547397162237  0.236445235675919  0.23644528044116966  1.0000
  Br  Br4       1.0  0.23644514963186966  0.7635548419006406  0.7635548657742082  1.0000
  Br  Br5       1.0  0.23644520419409448  0.7635547880234619  0.23644525728374666  1.0000
  Br  Br6       1.0  0.7635548635052776  0.23644515704647162  0.7635549140942942  1.0000
