data_image0
_chemical_formula_structural       Sb2PI6
_chemical_formula_sum              "Sb2 P1 I6"
_cell_length_a       7.869698127779134
_cell_length_b       7.8696977977061975
_cell_length_c       7.8696980017433695
_cell_angle_alpha    60.00000046221864
_cell_angle_beta     59.99999952845877
_cell_angle_gamma    60.00000110597599

_space_group_name_H-M_alt    "P 1"
_space_group_IT_number       1

loop_
  _space_group_symop_operation_xyz
  'x, y, z'

loop_
  _atom_site_type_symbol
  _atom_site_label
  _atom_site_symmetry_multiplicity
  _atom_site_fract_x
  _atom_site_fract_y
  _atom_site_fract_z
  _atom_site_occupancy
  Sb  Sb1       1.0  0.24999996003962924  0.24999992110987015  0.2500000777061021  1.0000
  Sb  Sb2       1.0  0.7500000647537329  0.7500000325659487  0.7499998473456172  1.0000
  P   P1        1.0  0.9999999912268959  0.9999999470865  3.084330159742135e-08  1.0000
  I   I1        1.0  0.2523969578371679  0.2523970334618472  0.7476030085486868  1.0000
  I   I2        1.0  0.7476030231438973  0.7476030120344582  0.2523970271927989  1.0000
  I   I3        1.0  0.7476030111402993  0.2523969758159445  0.25239702022922655  1.0000
  I   I4        1.0  0.25239699886077327  0.7476030354422131  0.7476029456916118  1.0000
  I   I5        1.0  0.2523969971259127  0.7476030028148051  0.2523970427552679  1.0000
  I   I6        1.0  0.7476030030187227  0.2523970380126627  0.7476029997165159  1.0000
