data_image0
_chemical_formula_structural       Sb2PtCl6
_chemical_formula_sum              "Sb2 Pt1 Cl6"
_cell_length_a       7.335089806577602
_cell_length_b       7.335089309804338
_cell_length_c       7.3350899949086905
_cell_angle_alpha    59.99998636987056
_cell_angle_beta     59.99999808556795
_cell_angle_gamma    60.000006957877545

_space_group_name_H-M_alt    "P 1"
_space_group_IT_number       1

loop_
  _space_group_symop_operation_xyz
  'x, y, z'

loop_
  _atom_site_type_symbol
  _atom_site_label
  _atom_site_symmetry_multiplicity
  _atom_site_fract_x
  _atom_site_fract_y
  _atom_site_fract_z
  _atom_site_occupancy
  Sb  Sb1       1.0  0.25000049783891826  0.25000115731144534  0.24999835739825185  1.0000
  Sb  Sb2       1.0  0.7500011515453748  0.7499997752028954  0.7499977881977657  1.0000
  Pt  Pt1       1.0  0.9999998636326731  0.9999999415602042  3.3325616073605204e-07  1.0000
  Cl  Cl1       1.0  0.22806729598470576  0.22806806840361118  0.7719326515935906  1.0000
  Cl  Cl2       1.0  0.7719324377555932  0.7719319190558136  0.22806858756537854  1.0000
  Cl  Cl3       1.0  0.7719321626656043  0.22806745725037675  0.2280680058243991  1.0000
  Cl  Cl4       1.0  0.22806753320921563  0.7719318740142516  0.7719330459473225  1.0000
  Cl  Cl5       1.0  0.22806711767416626  0.7719319952509549  0.22806840851047833  1.0000
  Cl  Cl6       1.0  0.771931942957157  0.22806782022858219  0.7719328223870477  1.0000
