data_image0
_chemical_formula_structural       Sb2RhO6
_chemical_formula_sum              "Sb2 Rh1 O6"
_cell_length_a       5.355434239238338
_cell_length_b       5.355434293589745
_cell_length_c       5.355434257950757
_cell_angle_alpha    59.99999986264948
_cell_angle_beta     59.9999997681141
_cell_angle_gamma    59.999999543375544

_space_group_name_H-M_alt    "P 1"
_space_group_IT_number       1

loop_
  _space_group_symop_operation_xyz
  'x, y, z'

loop_
  _atom_site_type_symbol
  _atom_site_label
  _atom_site_symmetry_multiplicity
  _atom_site_fract_x
  _atom_site_fract_y
  _atom_site_fract_z
  _atom_site_occupancy
  Sb  Sb1       1.0  0.2499993427614786  0.2500002996549135  0.2500002845219082  1.0000
  Sb  Sb2       1.0  0.7500003430177865  0.7500003455301358  0.7499995975966472  1.0000
  Rh  Rh1       1.0  1.2854712073692932e-09  0.9999999702700427  0.9999999694079501  1.0000
  O   O1        1.0  0.25557145581406754  0.2555714814422987  0.7444285065649409  1.0000
  O   O2        1.0  0.7444287377806421  0.7444283130085813  0.2555714891278502  1.0000
  O   O3        1.0  0.7444287033762167  0.2555712599151281  0.2555716541727804  1.0000
  O   O4        1.0  0.25557129853974087  0.744428598569507  0.7444285117764547  1.0000
  O   O5        1.0  0.255571298961144  0.7444285019982384  0.2555716728280401  1.0000
  O   O6        1.0  0.744428810828569  0.2555712398534869  0.7444283238453872  1.0000
