data_image0
_chemical_formula_structural       Sb2RuBr6
_chemical_formula_sum              "Sb2 Ru1 Br6"
_cell_length_a       7.511130470582116
_cell_length_b       7.511130170592161
_cell_length_c       7.5111304479549705
_cell_angle_alpha    60.000000937303646
_cell_angle_beta     59.99999942940135
_cell_angle_gamma    59.99999903550208

_space_group_name_H-M_alt    "P 1"
_space_group_IT_number       1

loop_
  _space_group_symop_operation_xyz
  'x, y, z'

loop_
  _atom_site_type_symbol
  _atom_site_label
  _atom_site_symmetry_multiplicity
  _atom_site_fract_x
  _atom_site_fract_y
  _atom_site_fract_z
  _atom_site_occupancy
  Sb  Sb1       1.0  0.24999997439776  0.25000018742208824  0.24999995465696667  1.0000
  Sb  Sb2       1.0  0.7500004114002669  0.7500001399477635  0.7499998190444302  1.0000
  Ru  Ru1       1.0  0.9999999552472347  0.9999999820636918  0.9999999661080182  1.0000
  Br  Br1       1.0  0.2349831343317744  0.23498317653326153  0.7650168195247972  1.0000
  Br  Br2       1.0  0.7650167841746994  0.765016744823825  0.23498320443870183  1.0000
  Br  Br3       1.0  0.7650167719168548  0.23498313106366273  0.23498320556474334  1.0000
  Br  Br4       1.0  0.23498297510789415  0.7650168343189067  0.765016922067604  1.0000
  Br  Br5       1.0  0.23498313090315356  0.7650167466291206  0.23498325092313602  1.0000
  Br  Br6       1.0  0.765016861645153  0.2349830540655396  0.7650168602558184  1.0000
