data_image0
_chemical_formula_structural       Sb2RuO6
_chemical_formula_sum              "Sb2 Ru1 O6"
_cell_length_a       5.401540934997117
_cell_length_b       5.401540947087167
_cell_length_c       5.401541023009013
_cell_angle_alpha    59.99999942040239
_cell_angle_beta     59.99999981905211
_cell_angle_gamma    60.00000062724423

_space_group_name_H-M_alt    "P 1"
_space_group_IT_number       1

loop_
  _space_group_symop_operation_xyz
  'x, y, z'

loop_
  _atom_site_type_symbol
  _atom_site_label
  _atom_site_symmetry_multiplicity
  _atom_site_fract_x
  _atom_site_fract_y
  _atom_site_fract_z
  _atom_site_occupancy
  Sb  Sb1       1.0  0.24999963764607216  0.24999918592669385  0.25000061986746797  1.0000
  Sb  Sb2       1.0  0.7499996460428844  0.750000405633278  0.7500010132984718  1.0000
  Ru  Ru1       1.0  0.9999999873255774  0.999999954652019  9.565884895859218e-08  1.0000
  O   O1        1.0  0.24735643774432436  0.24735602763198922  0.75264374684524  1.0000
  O   O2        1.0  0.7526436291221398  0.7526439720598218  0.24735563743411462  1.0000
  O   O3        1.0  0.7526440774633226  0.24735636455598098  0.24735603948107013  1.0000
  O   O4        1.0  0.24735604447989473  0.7526440727438439  0.7526434668692834  1.0000
  O   O5        1.0  0.24735650594433087  0.7526441194321479  0.24735589601167796  1.0000
  O   O6        1.0  0.7526440362527309  0.2473558779922682  0.7526435146240181  1.0000
