data_image0
_chemical_formula_structural       Sb2RhI6
_chemical_formula_sum              "Sb2 Rh1 I6"
_cell_length_a       7.741001953839695
_cell_length_b       7.741001900664122
_cell_length_c       7.7410019850038525
_cell_angle_alpha    59.99999965882686
_cell_angle_beta     59.999999390317086
_cell_angle_gamma    60.00000037116265

_space_group_name_H-M_alt    "P 1"
_space_group_IT_number       1

loop_
  _space_group_symop_operation_xyz
  'x, y, z'

loop_
  _atom_site_type_symbol
  _atom_site_label
  _atom_site_symmetry_multiplicity
  _atom_site_fract_x
  _atom_site_fract_y
  _atom_site_fract_z
  _atom_site_occupancy
  Sb  Sb1       1.0  0.2500000202200515  0.2499999122636257  0.2500001281658594  1.0000
  Sb  Sb2       1.0  0.7500000088833486  0.7500000532214591  0.74999983749569  1.0000
  Rh  Rh1       1.0  0.999999983351246  0.999999960446177  2.1642176432246084e-08  1.0000
  I   I1        1.0  0.24482655601860442  0.24482653108524646  0.7551734200763812  1.0000
  I   I2        1.0  0.7551734554251841  0.755173473953661  0.24482657726820295  1.0000
  I   I3        1.0  0.7551734379762857  0.2448265270388198  0.2448265839231352  1.0000
  I   I4        1.0  0.24482654309123245  0.7551735064788401  0.7551734518330585  1.0000
  I   I5        1.0  0.24482654591618053  0.7551734516554136  0.24482655663873182  1.0000
  I   I6        1.0  0.7551734451561147  0.24482657869794036  0.7551734304834414  1.0000
