data_image0
_chemical_formula_structural       Sb2RuI6
_chemical_formula_sum              "Sb2 Ru1 I6"
_cell_length_a       7.733997563313318
_cell_length_b       7.733997597353821
_cell_length_c       7.733997530491502
_cell_angle_alpha    60.00000064602159
_cell_angle_beta     60.00000105706499
_cell_angle_gamma    60.00000029779773

_space_group_name_H-M_alt    "P 1"
_space_group_IT_number       1

loop_
  _space_group_symop_operation_xyz
  'x, y, z'

loop_
  _atom_site_type_symbol
  _atom_site_label
  _atom_site_symmetry_multiplicity
  _atom_site_fract_x
  _atom_site_fract_y
  _atom_site_fract_z
  _atom_site_occupancy
  Sb  Sb1       1.0  0.2500000124986299  0.25000006327452184  0.24999987075190036  1.0000
  Sb  Sb2       1.0  0.749999979317436  0.7499999522856985  0.7500001790433969  1.0000
  Ru  Ru1       1.0  0.9999999987786813  0.999999985747728  0.9999999973928562  1.0000
  I   I1        1.0  0.24574830866877412  0.2457482988765834  0.7542516998279393  1.0000
  I   I2        1.0  0.7542517149379852  0.7542517198508084  0.2457482549088821  1.0000
  I   I3        1.0  0.7542517009319969  0.24574832564353527  0.2457482640869179  1.0000
  I   I4        1.0  0.2457482639191598  0.7542516946674425  0.7542517244078809  1.0000
  I   I5        1.0  0.24574831597091076  0.7542516991041545  0.2457482651119892  1.0000
  I   I6        1.0  0.7542517047714552  0.24574826103056344  0.7542517436272289  1.0000
