data_image0
_chemical_formula_structural       Sb2ReS6
_chemical_formula_sum              "Sb2 Re1 S6"
_cell_length_a       6.37655292998584
_cell_length_b       6.376553151030141
_cell_length_c       6.376552742268949
_cell_angle_alpha    59.99999969156104
_cell_angle_beta     59.99999952868197
_cell_angle_gamma    59.99999987556311

_space_group_name_H-M_alt    "P 1"
_space_group_IT_number       1

loop_
  _space_group_symop_operation_xyz
  'x, y, z'

loop_
  _atom_site_type_symbol
  _atom_site_label
  _atom_site_symmetry_multiplicity
  _atom_site_fract_x
  _atom_site_fract_y
  _atom_site_fract_z
  _atom_site_occupancy
  Sb  Sb1       1.0  0.2500000915889345  0.24999942467700403  0.25000028768982  1.0000
  Sb  Sb2       1.0  0.750000497862047  0.7499996799837524  0.7500006005678482  1.0000
  Re  Re1       1.0  0.9999999837023154  8.591489005128806e-17  8.148842485395895e-09  1.0000
  S   S1        1.0  0.25885190050375856  0.25885226592517857  0.7411478853271914  1.0000
  S   S2        1.0  0.7411477895893198  0.7411481352084307  0.25885180696886423  1.0000
  S   S3        1.0  0.7411479215046528  0.25885223221265263  0.2588518786829453  1.0000
  S   S4        1.0  0.2588517938682265  0.7411481093792441  0.741147716262147  1.0000
  S   S5        1.0  0.25885212680822506  0.7411481257878453  0.2588519464124323  1.0000
  S   S6        1.0  0.7411479228257676  0.25885203333749784  0.7411478408053566  1.0000
