data_image0
_chemical_formula_structural       Sb2RuCl6
_chemical_formula_sum              "Sb2 Ru1 Cl6"
_cell_length_a       7.366753457618005
_cell_length_b       7.366754404546332
_cell_length_c       7.366755043799849
_cell_angle_alpha    60.000011579842166
_cell_angle_beta     60.00000358740297
_cell_angle_gamma    59.99999823222973

_space_group_name_H-M_alt    "P 1"
_space_group_IT_number       1

loop_
  _space_group_symop_operation_xyz
  'x, y, z'

loop_
  _atom_site_type_symbol
  _atom_site_label
  _atom_site_symmetry_multiplicity
  _atom_site_fract_x
  _atom_site_fract_y
  _atom_site_fract_z
  _atom_site_occupancy
  Sb  Sb1       1.0  0.2499975600372053  0.24999897145577216  0.250001588774764  1.0000
  Sb  Sb2       1.0  0.7499998208410983  0.7500022061983944  0.7499994622514189  1.0000
  Ru  Ru1       1.0  2.4599430316226953e-07  4.987554679053612e-09  0.9999998297132489  1.0000
  Cl  Cl1       1.0  0.2260497796719189  0.22604894669032644  0.7739506738563997  1.0000
  Cl  Cl2       1.0  0.7739507418550924  0.7739500929503028  0.22604928400411547  1.0000
  Cl  Cl3       1.0  0.773951221350854  0.2260489737296861  0.2260499939237782  1.0000
  Cl  Cl4       1.0  0.226049167697614  0.773951314470776  0.7739499638080765  1.0000
  Cl  Cl5       1.0  0.2260498032660156  0.7739509044102866  0.2260492970107149  1.0000
  Cl  Cl6       1.0  0.7739516451850316  0.22604859907599364  0.773949912524541  1.0000
