data_image0
_chemical_formula_structural       Sb2ReTe6
_chemical_formula_sum              "Sb2 Re1 Te6"
_cell_length_a       7.185218871823959
_cell_length_b       7.185219008014513
_cell_length_c       7.185218853654323
_cell_angle_alpha    59.99999943922133
_cell_angle_beta     59.99999907207977
_cell_angle_gamma    59.99999909665711

_space_group_name_H-M_alt    "P 1"
_space_group_IT_number       1

loop_
  _space_group_symop_operation_xyz
  'x, y, z'

loop_
  _atom_site_type_symbol
  _atom_site_label
  _atom_site_symmetry_multiplicity
  _atom_site_fract_x
  _atom_site_fract_y
  _atom_site_fract_z
  _atom_site_occupancy
  Sb  Sb1       1.0  0.24999991987069492  0.24999997546956612  0.2500001083030846  1.0000
  Sb  Sb2       1.0  0.7500000810220737  0.7499999264086984  0.7499999039477444  1.0000
  Re  Re1       1.0  0.9999999892380703  0.9999999744319932  0.9999999819795711  1.0000
  Te  Te1       1.0  0.25895197175605056  0.2589520265912709  0.7410479861076272  1.0000
  Te  Te2       1.0  0.7410480653663019  0.7410479980134275  0.25895202042773224  1.0000
  Te  Te3       1.0  0.7410480372249496  0.25895198225814603  0.25895194460872123  1.0000
  Te  Te4       1.0  0.25895193256282256  0.7410480900734999  0.7410480341533113  1.0000
  Te  Te5       1.0  0.2589519042189329  0.7410480644976666  0.25895199827184934  1.0000
  Te  Te6       1.0  0.7410480959412711  0.2589519601070318  0.7410480267445848  1.0000
