data_image0
_chemical_formula_structural       Sb2ReO6
_chemical_formula_sum              "Sb2 Re1 O6"
_cell_length_a       5.401250745110183
_cell_length_b       5.401250821245578
_cell_length_c       5.401250806939608
_cell_angle_alpha    59.999999500916005
_cell_angle_beta     60.00000009069864
_cell_angle_gamma    59.99999949314777

_space_group_name_H-M_alt    "P 1"
_space_group_IT_number       1

loop_
  _space_group_symop_operation_xyz
  'x, y, z'

loop_
  _atom_site_type_symbol
  _atom_site_label
  _atom_site_symmetry_multiplicity
  _atom_site_fract_x
  _atom_site_fract_y
  _atom_site_fract_z
  _atom_site_occupancy
  Sb  Sb1       1.0  0.25000028068373364  0.2499997017216486  0.25000004496168365  1.0000
  Sb  Sb2       1.0  0.750000171810313  0.7500001346194128  0.7499996183192675  1.0000
  Re  Re1       1.0  5.370534253132495e-08  0.9999999863948748  0.9999999706927766  1.0000
  O   O1        1.0  0.2470265122895942  0.24702647885367318  0.7529734992216619  1.0000
  O   O2        1.0  0.7529733196640513  0.7529736862779108  0.2470266191218667  1.0000
  O   O3        1.0  0.7529734395338724  0.24702636697663435  0.2470266249938329  1.0000
  O   O4        1.0  0.24702646485075852  0.7529735872755124  0.7529734218657744  1.0000
  O   O5        1.0  0.2470263340189535  0.7529736006080022  0.24702660688593772  1.0000
  O   O6        1.0  0.7529734211466638  0.24702648062531113  0.7529735843950486  1.0000
