data_image0
_chemical_formula_structural       Sb2SiO6
_chemical_formula_sum              "Sb2 Si1 O6"
_cell_length_a       5.236578271583648
_cell_length_b       5.236578621043077
_cell_length_c       5.236578102458063
_cell_angle_alpha    60.00000135381524
_cell_angle_beta     59.999999478361865
_cell_angle_gamma    59.99999594385783

_space_group_name_H-M_alt    "P 1"
_space_group_IT_number       1

loop_
  _space_group_symop_operation_xyz
  'x, y, z'

loop_
  _atom_site_type_symbol
  _atom_site_label
  _atom_site_symmetry_multiplicity
  _atom_site_fract_x
  _atom_site_fract_y
  _atom_site_fract_z
  _atom_site_occupancy
  Sb  Sb1       1.0  0.2500002065840698  0.24999990851190096  0.24999999287091226  1.0000
  Sb  Sb2       1.0  0.7499998292832256  0.7500002049951872  0.7499996948993671  1.0000
  Si  Si1       1.0  0.9999999705315741  4.2098884707719335e-08  0.9999995907498844  1.0000
  O   O1        1.0  0.2393351606200983  0.2393349906120816  0.7606648526339692  1.0000
  O   O2        1.0  0.7606650131461797  0.7606648679629088  0.23933513808730306  1.0000
  O   O3        1.0  0.7606648954231175  0.2393350823633023  0.23933504978627634  1.0000
  O   O4        1.0  0.23933483444800902  0.7606652743817494  0.7606652537141727  1.0000
  O   O5        1.0  0.23933490379156938  0.7606647540342214  0.2393352924824757  1.0000
  O   O6        1.0  0.7606653274671022  0.23933482622041077  0.7606651046476034  1.0000
