data_image0
_chemical_formula_structural       Sb2SeI6
_chemical_formula_sum              "Sb2 Se1 I6"
_cell_length_a       7.977582760173027
_cell_length_b       7.977582694701083
_cell_length_c       7.977582663544383
_cell_angle_alpha    59.99999951585232
_cell_angle_beta     60.00000020932155
_cell_angle_gamma    59.99999907997607

_space_group_name_H-M_alt    "P 1"
_space_group_IT_number       1

loop_
  _space_group_symop_operation_xyz
  'x, y, z'

loop_
  _atom_site_type_symbol
  _atom_site_label
  _atom_site_symmetry_multiplicity
  _atom_site_fract_x
  _atom_site_fract_y
  _atom_site_fract_z
  _atom_site_occupancy
  Sb  Sb1       1.0  0.2499999828528422  0.24999996086268936  0.25000010787802524  1.0000
  Sb  Sb2       1.0  0.7500000482229882  0.7500000959854665  0.7499999189076594  1.0000
  Se  Se1       1.0  1.7281377701699397e-08  4.6056991711902415e-09  0.9999999802818736  1.0000
  I   I1        1.0  0.2594910738276717  0.2594910295543648  0.7405089362584899  1.0000
  I   I2        1.0  0.7405089160779205  0.7405089597435367  0.2594910508739999  1.0000
  I   I3        1.0  0.7405089332493171  0.259491038652482  0.2594910663385082  1.0000
  I   I4        1.0  0.2594910571680194  0.7405089491101862  0.7405089238127512  1.0000
  I   I5        1.0  0.25949104518104776  0.7405089444307122  0.2594910597100288  1.0000
  I   I6        1.0  0.7405089288178613  0.2594910187682269  0.740508955946359  1.0000
