data_image0
_chemical_formula_structural       Sb2ScCl6
_chemical_formula_sum              "Sb2 Sc1 Cl6"
_cell_length_a       7.233961186478443
_cell_length_b       7.233961029268169
_cell_length_c       7.23396123955135
_cell_angle_alpha    60.00001098698067
_cell_angle_beta     60.00000602868656
_cell_angle_gamma    60.00000711044205

_space_group_name_H-M_alt    "P 1"
_space_group_IT_number       1

loop_
  _space_group_symop_operation_xyz
  'x, y, z'

loop_
  _atom_site_type_symbol
  _atom_site_label
  _atom_site_symmetry_multiplicity
  _atom_site_fract_x
  _atom_site_fract_y
  _atom_site_fract_z
  _atom_site_occupancy
  Sb  Sb1       1.0  0.2500040826769147  0.24999690179715506  0.24999915653739618  1.0000
  Sb  Sb2       1.0  0.7500021092545205  0.7499971305107318  0.7500003189813349  1.0000
  Sc  Sc1       1.0  0.9999996911987697  2.8951129322324997e-07  0.9999999529678724  1.0000
  Cl  Cl1       1.0  0.24301157049495467  0.2430137739719177  0.7569875147337123  1.0000
  Cl  Cl2       1.0  0.7569854750553523  0.7569887726771323  0.24301298596036672  1.0000
  Cl  Cl3       1.0  0.7569864939734474  0.24301346986760675  0.24301215490138095  1.0000
  Cl  Cl4       1.0  0.24301217404654613  0.7569881743864559  0.7569868660368754  1.0000
  Cl  Cl5       1.0  0.24301200215817717  0.7569878934654197  0.24301316351424299  1.0000
  Cl  Cl6       1.0  0.7569863935553913  0.24301360518666626  0.7569878731337909  1.0000
