data_image0
_chemical_formula_structural       Sb2ScBr6
_chemical_formula_sum              "Sb2 Sc1 Br6"
_cell_length_a       7.576146339204257
_cell_length_b       7.576146017048744
_cell_length_c       7.576146014919854
_cell_angle_alpha    60.0000004847349
_cell_angle_beta     59.999999472660235
_cell_angle_gamma    59.99999879195563

_space_group_name_H-M_alt    "P 1"
_space_group_IT_number       1

loop_
  _space_group_symop_operation_xyz
  'x, y, z'

loop_
  _atom_site_type_symbol
  _atom_site_label
  _atom_site_symmetry_multiplicity
  _atom_site_fract_x
  _atom_site_fract_y
  _atom_site_fract_z
  _atom_site_occupancy
  Sb  Sb1       1.0  0.24999948407419312  0.2500001908356649  0.2500000584722941  1.0000
  Sb  Sb2       1.0  0.7500000933664981  0.7499997642168119  0.7499998804237609  1.0000
  Sc  Sc1       1.0  4.969658870477243e-08  0.9999999515025884  0.9999999281240651  1.0000
  Br  Br1       1.0  0.2462702155065749  0.2462702727183943  0.753729825102512  1.0000
  Br  Br2       1.0  0.7537298422954536  0.753729695266728  0.2462703555215037  1.0000
  Br  Br3       1.0  0.7537298621752445  0.24627033844160087  0.24627022258478823  1.0000
  Br  Br4       1.0  0.24627019794854527  0.7537298009010375  0.7537298382012813  1.0000
  Br  Br5       1.0  0.2462703410692288  0.7537297168437961  0.24627016329989668  1.0000
  Br  Br6       1.0  0.7537299140530285  0.24627026730712584  0.7537297337101708  1.0000
