data_image0
_chemical_formula_structural       Sb2SBr6
_chemical_formula_sum              "Sb2 S1 Br6"
_cell_length_a       7.560093962292982
_cell_length_b       7.5600932612706515
_cell_length_c       7.560092942779557
_cell_angle_alpha    59.999973899171145
_cell_angle_beta     59.99997438479013
_cell_angle_gamma    59.999981161003845

_space_group_name_H-M_alt    "P 1"
_space_group_IT_number       1

loop_
  _space_group_symop_operation_xyz
  'x, y, z'

loop_
  _atom_site_type_symbol
  _atom_site_label
  _atom_site_symmetry_multiplicity
  _atom_site_fract_x
  _atom_site_fract_y
  _atom_site_fract_z
  _atom_site_occupancy
  Sb  Sb1       1.0  0.2499995380380942  0.24999958022798935  0.24999875256530785  1.0000
  Sb  Sb2       1.0  0.749999095510996  0.7499968566070856  0.7500037512808284  1.0000
  S   S1        1.0  1.3383342598955702e-07  2.1708179650928424e-07  0.9999997927966717  1.0000
  Br  Br1       1.0  0.24968728492901632  0.24968766427944108  0.750313204741861  1.0000
  Br  Br2       1.0  0.7503129155177317  0.7503128144889838  0.2496864087097965  1.0000
  Br  Br3       1.0  0.7503128485540618  0.2496886762190037  0.24968610671854877  1.0000
  Br  Br4       1.0  0.24968775409693653  0.7503127907576155  0.7503125853388943  1.0000
  Br  Br5       1.0  0.24968797644331944  0.7503132203807824  0.24968679500503682  1.0000
  Br  Br6       1.0  0.7503124612073728  0.24968816883508227  0.7503125898545366  1.0000
