data_image0
_chemical_formula_structural       Sb2SnTe6
_chemical_formula_sum              "Sb2 Sn1 Te6"
_cell_length_a       7.397321446735868
_cell_length_b       7.397321475097137
_cell_length_c       7.39732147398808
_cell_angle_alpha    60.000000385281375
_cell_angle_beta     60.0000002007104
_cell_angle_gamma    60.00000014487359

_space_group_name_H-M_alt    "P 1"
_space_group_IT_number       1

loop_
  _space_group_symop_operation_xyz
  'x, y, z'

loop_
  _atom_site_type_symbol
  _atom_site_label
  _atom_site_symmetry_multiplicity
  _atom_site_fract_x
  _atom_site_fract_y
  _atom_site_fract_z
  _atom_site_occupancy
  Sb  Sb1       1.0  0.24999993682032792  0.25000009563781667  0.24999993954274416  1.0000
  Sb  Sb2       1.0  0.7500000008293841  0.7499997720032165  0.7500003256185185  1.0000
  Sn  Sn1       1.0  0.9999999839168445  2.4834898682534835e-08  0.999999960476271  1.0000
  Te  Te1       1.0  0.27467563841038495  0.274675792617756  0.7253243246093066  1.0000
  Te  Te2       1.0  0.7253243235492561  0.7253242737024664  0.27467559518896173  1.0000
  Te  Te3       1.0  0.7253243479918561  0.27467584416318197  0.2746755211808784  1.0000
  Te  Te4       1.0  0.2746756614272489  0.7253242436806194  0.7253243925145226  1.0000
  Te  Te5       1.0  0.2746757586571976  0.7253242754001954  0.2746756396297413  1.0000
  Te  Te6       1.0  0.7253243438548311  0.27467567833515255  0.725324301332628  1.0000
