data_image0
_chemical_formula_structural       Sb2SO6
_chemical_formula_sum              "Sb2 S1 O6"
_cell_length_a       5.182408581437352
_cell_length_b       5.182408501790911
_cell_length_c       5.182408723022814
_cell_angle_alpha    60.000000744273876
_cell_angle_beta     60.000001212063594
_cell_angle_gamma    60.00000121304897

_space_group_name_H-M_alt    "P 1"
_space_group_IT_number       1

loop_
  _space_group_symop_operation_xyz
  'x, y, z'

loop_
  _atom_site_type_symbol
  _atom_site_label
  _atom_site_symmetry_multiplicity
  _atom_site_fract_x
  _atom_site_fract_y
  _atom_site_fract_z
  _atom_site_occupancy
  Sb  Sb1       1.0  0.24999992046082561  0.25000013494188755  0.24999992797951895  1.0000
  Sb  Sb2       1.0  0.7499999570823227  0.7499999179913307  0.75000020929847  1.0000
  S   S1        1.0  0.9999999697292979  0.9999999905469059  2.950992070969185e-08  1.0000
  O   O1        1.0  0.22720728933952214  0.2272072871036614  0.7727927744895853  1.0000
  O   O2        1.0  0.772792740167335  0.7727926642087967  0.22720723534788334  1.0000
  O   O3        1.0  0.7727927239099012  0.2272073590379865  0.2272071771475902  1.0000
  O   O4        1.0  0.22720726098826557  0.7727926726257692  0.772792783944901  1.0000
  O   O5        1.0  0.22720737840439137  0.7727927132793495  0.2272071806654869  1.0000
  O   O6        1.0  0.772792700885575  0.22720727584548345  0.7727926927532178  1.0000
