data_image0
_chemical_formula_structural       Sb2SiTe6
_chemical_formula_sum              "Sb2 Si1 Te6"
_cell_length_a       7.1627776256174345
_cell_length_b       7.162777451466345
_cell_length_c       7.162777059767351
_cell_angle_alpha    60.00000127622398
_cell_angle_beta     60.00000017224549
_cell_angle_gamma    60.00000010753095

_space_group_name_H-M_alt    "P 1"
_space_group_IT_number       1

loop_
  _space_group_symop_operation_xyz
  'x, y, z'

loop_
  _atom_site_type_symbol
  _atom_site_label
  _atom_site_symmetry_multiplicity
  _atom_site_fract_x
  _atom_site_fract_y
  _atom_site_fract_z
  _atom_site_occupancy
  Sb  Sb1       1.0  0.2500004202746526  0.24999991560341095  0.24999976363385482  1.0000
  Sb  Sb2       1.0  0.749999602980429  0.7499998357236957  0.7500000516328161  1.0000
  Si  Si1       1.0  6.073960264215804e-09  0.9999999914506288  0.9999999956532791  1.0000
  Te  Te1       1.0  0.2592000610720767  0.25919996900169845  0.7408000043001958  1.0000
  Te  Te2       1.0  0.7407999087996346  0.7408001020718905  0.2592000505453687  1.0000
  Te  Te3       1.0  0.7407998677581233  0.2592000511607362  0.25919996387496513  1.0000
  Te  Te4       1.0  0.25920024226718147  0.7408000250424752  0.7408000239134152  1.0000
  Te  Te5       1.0  0.2592000928795538  0.740799967082949  0.2591999310129521  1.0000
  Te  Te6       1.0  0.7407997966477246  0.2592001467374962  0.7408002124367299  1.0000
