data_image0
_chemical_formula_structural       Sb2SnCl6
_chemical_formula_sum              "Sb2 Sn1 Cl6"
_cell_length_a       7.4635442013353535
_cell_length_b       7.463544586948642
_cell_length_c       7.463544152983556
_cell_angle_alpha    59.99999742064331
_cell_angle_beta     60.00000553549211
_cell_angle_gamma    60.00000911529425

_space_group_name_H-M_alt    "P 1"
_space_group_IT_number       1

loop_
  _space_group_symop_operation_xyz
  'x, y, z'

loop_
  _atom_site_type_symbol
  _atom_site_label
  _atom_site_symmetry_multiplicity
  _atom_site_fract_x
  _atom_site_fract_y
  _atom_site_fract_z
  _atom_site_occupancy
  Sb  Sb1       1.0  0.24999825782826163  0.24999771062743964  0.25000300123549984  1.0000
  Sb  Sb2       1.0  0.7499987445756366  0.7500010233050611  0.7499995044396169  1.0000
  Sn  Sn1       1.0  2.657293772903175e-07  1.969166400343457e-08  0.9999997929768799  1.0000
  Cl  Cl1       1.0  0.23547472161605584  0.23547394201057686  0.7645254977431363  1.0000
  Cl  Cl2       1.0  0.764525900733577  0.7645259717793313  0.23547437355745995  1.0000
  Cl  Cl3       1.0  0.7645264299249748  0.2354743768724075  0.23547376103947762  1.0000
  Cl  Cl4       1.0  0.23547453924473666  0.7645264968846923  0.764525068312116  1.0000
  Cl  Cl5       1.0  0.23547440280219784  0.7645263244835856  0.23547395847343944  1.0000
  Cl  Cl6       1.0  0.764526732057085  0.235474135749225  0.764525040350299  1.0000
