data_image0
_chemical_formula_structural       Sb2SnSe6
_chemical_formula_sum              "Sb2 Sn1 Se6"
_cell_length_a       6.756377366239992
_cell_length_b       6.756377427749664
_cell_length_c       6.75637749517733
_cell_angle_alpha    59.999996489207305
_cell_angle_beta     59.999997943084296
_cell_angle_gamma    59.999996592944925

_space_group_name_H-M_alt    "P 1"
_space_group_IT_number       1

loop_
  _space_group_symop_operation_xyz
  'x, y, z'

loop_
  _atom_site_type_symbol
  _atom_site_label
  _atom_site_symmetry_multiplicity
  _atom_site_fract_x
  _atom_site_fract_y
  _atom_site_fract_z
  _atom_site_occupancy
  Sb  Sb1       1.0  0.24999982217579073  0.24999955998575651  0.25000042934035793  1.0000
  Sb  Sb2       1.0  0.7500001240202121  0.7500002298365003  0.7499999993246093  1.0000
  Sn  Sn1       1.0  1.3299421828106566e-09  0.9999999601200662  2.6675412146945838e-08  1.0000
  Se  Se1       1.0  0.2715477257540702  0.27154764039053375  0.7284522845070399  1.0000
  Se  Se2       1.0  0.7284522043820113  0.7284524539694096  0.27154761361735413  1.0000
  Se  Se3       1.0  0.7284523961597894  0.2715476706542265  0.27154767934171153  1.0000
  Se  Se4       1.0  0.2715477011702405  0.7284524092039236  0.7284520314303728  1.0000
  Se  Se5       1.0  0.27154761170709346  0.7284523742734751  0.27154782322435667  1.0000
  Se  Se6       1.0  0.7284524196777894  0.2715476983337734  0.7284521061959716  1.0000
