data_image0
_chemical_formula_structural       Sb2SeBr6
_chemical_formula_sum              "Sb2 Se1 Br6"
_cell_length_a       7.815199504231032
_cell_length_b       7.815198516647759
_cell_length_c       7.815196269449526
_cell_angle_alpha    60.00000284791969
_cell_angle_beta     59.99998509354254
_cell_angle_gamma    60.00000118953985

_space_group_name_H-M_alt    "P 1"
_space_group_IT_number       1

loop_
  _space_group_symop_operation_xyz
  'x, y, z'

loop_
  _atom_site_type_symbol
  _atom_site_label
  _atom_site_symmetry_multiplicity
  _atom_site_fract_x
  _atom_site_fract_y
  _atom_site_fract_z
  _atom_site_occupancy
  Sb  Sb1       1.0  0.24999970446530054  0.24999952089716346  0.24999986456772297  1.0000
  Sb  Sb2       1.0  0.7499997953115807  0.7500006657827331  0.7499980937165495  1.0000
  Se  Se1       1.0  3.496848341878373e-08  0.9999999482846487  1.5168396929933646e-07  1.0000
  Br  Br1       1.0  0.238645486901891  0.23864503176840185  0.76135508275748  1.0000
  Br  Br2       1.0  0.7613545043819464  0.7613548195453592  0.238645851762183  1.0000
  Br  Br3       1.0  0.7613552230452468  0.23864503644878468  0.2386453042284282  1.0000
  Br  Br4       1.0  0.23864551866339903  0.7613547709853072  0.7613550083112423  1.0000
  Br  Br5       1.0  0.23864513485110278  0.7613548229391075  0.2386456658473965  1.0000
  Br  Br6       1.0  0.76135459592293  0.23864538881500483  0.7613549781500527  1.0000
