data_image0
_chemical_formula_structural       Sb2SeF6
_chemical_formula_sum              "Sb2 Se1 F6"
_cell_length_a       6.815244303147593
_cell_length_b       6.798691798921557
_cell_length_c       8.151995993012411
_cell_angle_alpha    34.87478557393968
_cell_angle_beta     60.414056958191516
_cell_angle_gamma    58.99177889737122

_space_group_name_H-M_alt    "P 1"
_space_group_IT_number       1

loop_
  _space_group_symop_operation_xyz
  'x, y, z'

loop_
  _atom_site_type_symbol
  _atom_site_label
  _atom_site_symmetry_multiplicity
  _atom_site_fract_x
  _atom_site_fract_y
  _atom_site_fract_z
  _atom_site_occupancy
  Sb  Sb1       1.0  0.10877124511685671  0.21775995681449536  0.4022019929352147  1.0000
  Sb  Sb2       1.0  0.7710561723436768  0.7404560412692781  0.5938400136144539  1.0000
  Se  Se1       1.0  0.24557563479348615  0.9013569183215487  0.002073998764968403  1.0000
  F   F1        1.0  0.367493608709748  0.009147913036588066  0.6458549316110144  1.0000
  F   F2        1.0  0.65201683869157  0.05265400575349832  0.24361413424938352  1.0000
  F   F3        1.0  0.8004974893059528  0.20973961651280199  0.3832929154692036  1.0000
  F   F4        1.0  0.07374731414224266  0.724375663792272  0.7844881875829441  1.0000
  F   F5        1.0  0.1108117182329309  0.7887247734087932  0.3599493483070496  1.0000
  F   F6        1.0  0.8700274769044055  0.3557846567731863  0.584683375181555  1.0000
