data_image0
_chemical_formula_structural       Sb2SnBr6
_chemical_formula_sum              "Sb2 Sn1 Br6"
_cell_length_a       7.678302406444678
_cell_length_b       7.678302130834301
_cell_length_c       7.678302090613823
_cell_angle_alpha    59.999994360904495
_cell_angle_beta     59.99999176354847
_cell_angle_gamma    59.99999337722483

_space_group_name_H-M_alt    "P 1"
_space_group_IT_number       1

loop_
  _space_group_symop_operation_xyz
  'x, y, z'

loop_
  _atom_site_type_symbol
  _atom_site_label
  _atom_site_symmetry_multiplicity
  _atom_site_fract_x
  _atom_site_fract_y
  _atom_site_fract_z
  _atom_site_occupancy
  Sb  Sb1       1.0  0.2500003969357638  0.24999975707903838  0.2499999049084711  1.0000
  Sb  Sb2       1.0  0.7500000341284132  0.7499996508644355  0.74999969170194  1.0000
  Sn  Sn1       1.0  0.9999999686458909  6.699305153435547e-08  0.9999999561331028  1.0000
  Br  Br1       1.0  0.24445153515876336  0.24445172091239253  0.7555484150467573  1.0000
  Br  Br2       1.0  0.7555483256595097  0.755548490947673  0.2444517927538527  1.0000
  Br  Br3       1.0  0.7555483501029102  0.24445163968233558  0.24445159600874736  1.0000
  Br  Br4       1.0  0.24445164806869843  0.7555484669029383  0.7555484550964889  1.0000
  Br  Br5       1.0  0.24445150355480572  0.7555485298965712  0.24445163437767273  1.0000
  Br  Br6       1.0  0.7555482405861775  0.24445167558320888  0.755548547692859  1.0000
