data_image0
_chemical_formula_structural       Sb2SI6
_chemical_formula_sum              "Sb2 S1 I6"
_cell_length_a       7.8082598008118325
_cell_length_b       7.808259629966804
_cell_length_c       7.80825976443354
_cell_angle_alpha    60.00000092634529
_cell_angle_beta     59.99999997980755
_cell_angle_gamma    60.00000002473868

_space_group_name_H-M_alt    "P 1"
_space_group_IT_number       1

loop_
  _space_group_symop_operation_xyz
  'x, y, z'

loop_
  _atom_site_type_symbol
  _atom_site_label
  _atom_site_symmetry_multiplicity
  _atom_site_fract_x
  _atom_site_fract_y
  _atom_site_fract_z
  _atom_site_occupancy
  Sb  Sb1       1.0  0.25000003061045145  0.2500000564895328  0.24999994713704685  1.0000
  Sb  Sb2       1.0  0.7499999861355741  0.7500000251643157  0.7499997358860531  1.0000
  S   S1        1.0  2.9486680612053076e-08  4.705574684636921e-09  5.956384120283043e-09  1.0000
  I   I1        1.0  0.263564589441907  0.2635645906201671  0.7364354043496797  1.0000
  I   I2        1.0  0.7364354040480021  0.7364353922166273  0.26356470214671696  1.0000
  I   I3        1.0  0.7364353873154087  0.2635645421437246  0.26356469187291776  1.0000
  I   I4        1.0  0.2635646302098223  0.7364353952058517  0.7364354253494264  1.0000
  I   I5        1.0  0.26356455006292157  0.7364353586414334  0.2635646646759416  1.0000
  I   I6        1.0  0.7364353973144726  0.2635646383120833  0.7364354193974988  1.0000
