data_image0
_chemical_formula_structural       Sb2SeO6
_chemical_formula_sum              "Sb2 Se1 O6"
_cell_length_a       5.270095179168245
_cell_length_b       5.270095291399987
_cell_length_c       5.270095199205628
_cell_angle_alpha    59.99999866226511
_cell_angle_beta     59.99999932397021
_cell_angle_gamma    60.00000010139092

_space_group_name_H-M_alt    "P 1"
_space_group_IT_number       1

loop_
  _space_group_symop_operation_xyz
  'x, y, z'

loop_
  _atom_site_type_symbol
  _atom_site_label
  _atom_site_symmetry_multiplicity
  _atom_site_fract_x
  _atom_site_fract_y
  _atom_site_fract_z
  _atom_site_occupancy
  Sb  Sb1       1.0  0.24999978360914746  0.25000019473152546  0.2500000935294871  1.0000
  Sb  Sb2       1.0  0.7500000738794695  0.7500001240520828  0.7499996007565077  1.0000
  Se  Se1       1.0  6.77666225567125e-08  4.647904236677461e-08  0.9999999087221858  1.0000
  O   O1        1.0  0.24312709809752833  0.24312712917212975  0.7568728781885379  1.0000
  O   O2        1.0  0.7568729231726989  0.756872796863573  0.24312730818289657  1.0000
  O   O3        1.0  0.7568728933007719  0.24312697230876348  0.24312723412858095  1.0000
  O   O4        1.0  0.24312720049799755  0.7568727887263457  0.756872873243952  1.0000
  O   O5        1.0  0.24312697932867106  0.7568728034671983  0.24312728920606838  1.0000
  O   O6        1.0  0.7568729647234131  0.24312715045593108  0.7568728098782874  1.0000
