data_image0
_chemical_formula_structural       Sb2SF6
_chemical_formula_sum              "Sb2 S1 F6"
_cell_length_a       7.552221355921766
_cell_length_b       9.436394625591287
_cell_length_c       5.485618425246641
_cell_angle_alpha    53.35484852818764
_cell_angle_beta     35.10162639763624
_cell_angle_gamma    59.11583036040717

_space_group_name_H-M_alt    "P 1"
_space_group_IT_number       1

loop_
  _space_group_symop_operation_xyz
  'x, y, z'

loop_
  _atom_site_type_symbol
  _atom_site_label
  _atom_site_symmetry_multiplicity
  _atom_site_fract_x
  _atom_site_fract_y
  _atom_site_fract_z
  _atom_site_occupancy
  Sb  Sb1       1.0  0.250368228637494  0.38620160238300477  0.24810880786235076  1.0000
  Sb  Sb2       1.0  0.14222884952729276  0.833174669627264  0.3725053792298721  1.0000
  S   S1        1.0  0.013909942897592398  0.008853552486961557  0.7793945006338325  1.0000
  F   F1        1.0  0.09625074214367943  0.6270331898697236  0.8480147492126836  1.0000
  F   F2        1.0  0.7827713356940292  0.4112256610623083  0.7553380074618777  1.0000
  F   F3        1.0  0.224208471430803  0.2715161887170874  0.7138345984055094  1.0000
  F   F4        1.0  0.6150723136358198  0.7967751324945677  0.9495363069405596  1.0000
  F   F5        1.0  0.23293602094423743  0.624938430938773  0.2060696691049577  1.0000
  F   F6        1.0  0.642253369985686  0.040283190076706964  0.12720997517078714  1.0000
