data_image0
_chemical_formula_structural       Sb2SeS6
_chemical_formula_sum              "Sb2 Se1 S6"
_cell_length_a       6.3394400657216945
_cell_length_b       6.339440262660134
_cell_length_c       6.3394401328526655
_cell_angle_alpha    60.000003452597596
_cell_angle_beta     60.0000011538348
_cell_angle_gamma    60.00000277059936

_space_group_name_H-M_alt    "P 1"
_space_group_IT_number       1

loop_
  _space_group_symop_operation_xyz
  'x, y, z'

loop_
  _atom_site_type_symbol
  _atom_site_label
  _atom_site_symmetry_multiplicity
  _atom_site_fract_x
  _atom_site_fract_y
  _atom_site_fract_z
  _atom_site_occupancy
  Sb  Sb1       1.0  0.24999993644801022  0.2500001200440764  0.2500007296805545  1.0000
  Sb  Sb2       1.0  0.7500001894063433  0.7500001379585114  0.7499991760843282  1.0000
  Se  Se1       1.0  0.9999999795220359  2.3183337299051445e-08  2.3886135496121914e-08  1.0000
  S   S1        1.0  0.2563201883990601  0.2563199994181082  0.7436796205298783  1.0000
  S   S2        1.0  0.743679911610994  0.74367992628999  0.25632060469533796  1.0000
  S   S3        1.0  0.7436796809602364  0.25631995636618726  0.25632020600679006  1.0000
  S   S4        1.0  0.2563200090204017  0.7436799480905072  0.7436798389248136  1.0000
  S   S5        1.0  0.2563200439456277  0.7436797829041037  0.2563201301237972  1.0000
  S   S6        1.0  0.7436800589718187  0.2563201176887017  0.7436796708356924  1.0000
