data_image0
_chemical_formula_structural       Sb2ScI6
_chemical_formula_sum              "Sb2 Sc1 I6"
_cell_length_a       8.177564043881715
_cell_length_b       8.177563939547888
_cell_length_c       8.177563920611954
_cell_angle_alpha    59.999999601930206
_cell_angle_beta     60.00000013483671
_cell_angle_gamma    59.99999960052996

_space_group_name_H-M_alt    "P 1"
_space_group_IT_number       1

loop_
  _space_group_symop_operation_xyz
  'x, y, z'

loop_
  _atom_site_type_symbol
  _atom_site_label
  _atom_site_symmetry_multiplicity
  _atom_site_fract_x
  _atom_site_fract_y
  _atom_site_fract_z
  _atom_site_occupancy
  Sb  Sb1       1.0  0.24999995232143463  0.25000025426479  0.2499997948109037  1.0000
  Sb  Sb2       1.0  0.7500000707547129  0.7499997698264607  0.7500003854504973  1.0000
  Sc  Sc1       1.0  2.494678979638467e-08  0.9999999505762581  0.9999999828898826  1.0000
  I   I1        1.0  0.24703128719323372  0.24703127822042825  0.7529687119843687  1.0000
  I   I2        1.0  0.7529686941067532  0.7529687398800671  0.24703120723456118  1.0000
  I   I3        1.0  0.7529687077510783  0.24703134057097398  0.24703122929398916  1.0000
  I   I4        1.0  0.24703125860140923  0.7529686715387643  0.7529687566455399  1.0000
  I   I5        1.0  0.24703132785675083  0.7529687319755333  0.24703121088641666  1.0000
  I   I6        1.0  0.7529686716430766  0.24703126965038136  0.752968718475606  1.0000
