data_image0
_chemical_formula_structural       Sb2ScF6
_chemical_formula_sum              "Sb2 Sc1 F6"
_cell_length_a       6.160877859307537
_cell_length_b       6.1608788207601215
_cell_length_c       6.160879432225297
_cell_angle_alpha    60.00001863900326
_cell_angle_beta     60.00001570687572
_cell_angle_gamma    60.00001524893427

_space_group_name_H-M_alt    "P 1"
_space_group_IT_number       1

loop_
  _space_group_symop_operation_xyz
  'x, y, z'

loop_
  _atom_site_type_symbol
  _atom_site_label
  _atom_site_symmetry_multiplicity
  _atom_site_fract_x
  _atom_site_fract_y
  _atom_site_fract_z
  _atom_site_occupancy
  Sb  Sb1       1.0  0.24999968805387304  0.25001109745005773  0.2500063442437498  1.0000
  Sb  Sb2       1.0  0.7500073830717466  0.7500002050992058  0.7499784342020385  1.0000
  Sc  Sc1       1.0  2.0093726670295032e-07  2.743354442649132e-07  0.9999996146575412  1.0000
  F   F1        1.0  0.23299166010259137  0.2329944054179829  0.767002826208718  1.0000
  F   F2        1.0  0.7670090784579096  0.7670045480608094  0.23300032098357032  1.0000
  F   F3        1.0  0.7670029800602741  0.23298792693437026  0.23299830170098207  1.0000
  F   F4        1.0  0.23299448752666263  0.7670052476080412  0.7670085572491319  1.0000
  F   F5        1.0  0.2329863297564803  0.7670006887857655  0.23299995612168892  1.0000
  F   F6        1.0  0.7670082155246263  0.23299558495202324  0.7670056246184235  1.0000
