data_image0
_chemical_formula_structural       Sb2SCl6
_chemical_formula_sum              "Sb2 S1 Cl6"
_cell_length_a       7.386242310691114
_cell_length_b       7.386241582028254
_cell_length_c       7.386243716858465
_cell_angle_alpha    59.99998631683016
_cell_angle_beta     59.99997127770964
_cell_angle_gamma    59.999978256632254

_space_group_name_H-M_alt    "P 1"
_space_group_IT_number       1

loop_
  _space_group_symop_operation_xyz
  'x, y, z'

loop_
  _atom_site_type_symbol
  _atom_site_label
  _atom_site_symmetry_multiplicity
  _atom_site_fract_x
  _atom_site_fract_y
  _atom_site_fract_z
  _atom_site_occupancy
  Sb  Sb1       1.0  0.24999719572882667  0.2500021351016452  0.2500020879932025  1.0000
  Sb  Sb2       1.0  0.7499990099643953  0.7500003829256944  0.749999482203541  1.0000
  S   S1        1.0  4.6797269423397094e-07  0.9999996982177767  0.999999758502123  1.0000
  Cl  Cl1       1.0  0.24020217235690114  0.2402015932884286  0.7597977133440982  1.0000
  Cl  Cl2       1.0  0.7597995930489596  0.7597970678958581  0.24020221340417192  1.0000
  Cl  Cl3       1.0  0.7597982649500175  0.24020155666081766  0.24020135295050252  1.0000
  Cl  Cl4       1.0  0.24020191820634604  0.7597982071892397  0.7597985238620838  1.0000
  Cl  Cl5       1.0  0.24020194224875055  0.7597978541540369  0.2402019735573695  1.0000
  Cl  Cl6       1.0  0.7597994627306244  0.2402015084250792  0.759796876968986  1.0000
