data_image0
_chemical_formula_structural       Sb2TaI6
_chemical_formula_sum              "Sb2 Ta1 I6"
_cell_length_a       8.314530449100808
_cell_length_b       8.314530455047374
_cell_length_c       8.31453040180979
_cell_angle_alpha    60.00000016919571
_cell_angle_beta     59.999998632489046
_cell_angle_gamma    59.999998067175504

_space_group_name_H-M_alt    "P 1"
_space_group_IT_number       1

loop_
  _space_group_symop_operation_xyz
  'x, y, z'

loop_
  _atom_site_type_symbol
  _atom_site_label
  _atom_site_symmetry_multiplicity
  _atom_site_fract_x
  _atom_site_fract_y
  _atom_site_fract_z
  _atom_site_occupancy
  Sb  Sb1       1.0  0.25000013464571885  0.25000006580518436  0.2499999255111079  1.0000
  Sb  Sb2       1.0  0.7499998867428603  0.7499999116501704  0.750000028876665  1.0000
  Ta  Ta1       1.0  0.9999999825067297  1.9149227758458988e-08  1.3604586392394063e-08  1.0000
  I   I1        1.0  0.23446821101154336  0.23446828962394747  0.7655317490378881  1.0000
  I   I2        1.0  0.7655317762040196  0.765531732021933  0.23446825927410397  1.0000
  I   I3        1.0  0.7655317855010569  0.23446823610230275  0.23446819117997894  1.0000
  I   I4        1.0  0.2344682188852575  0.7655317590292624  0.7655317893305238  1.0000
  I   I5        1.0  0.23446824017319853  0.7655317576369862  0.23446824763604088  1.0000
  I   I6        1.0  0.7655317670749068  0.2344682330755267  0.7655317961942072  1.0000
