data_image0
_chemical_formula_structural       Sb2TeS6
_chemical_formula_sum              "Sb2 Te1 S6"
_cell_length_a       6.5351916093270805
_cell_length_b       6.535191356790794
_cell_length_c       6.535191192517814
_cell_angle_alpha    60.00000589143433
_cell_angle_beta     60.000004337069335
_cell_angle_gamma    60.00000631429205

_space_group_name_H-M_alt    "P 1"
_space_group_IT_number       1

loop_
  _space_group_symop_operation_xyz
  'x, y, z'

loop_
  _atom_site_type_symbol
  _atom_site_label
  _atom_site_symmetry_multiplicity
  _atom_site_fract_x
  _atom_site_fract_y
  _atom_site_fract_z
  _atom_site_occupancy
  Sb  Sb1       1.0  0.24999892871222062  0.24999889405226766  0.2500018481546343  1.0000
  Sb  Sb2       1.0  0.7500000892478812  0.7500000086425617  0.750002873870162  1.0000
  Te  Te1       1.0  0.999999969249282  0.9999999756370052  1.6845615175084374e-08  1.0000
  S   S1        1.0  0.25935053793166996  0.25935076249256633  0.7406488985119699  1.0000
  S   S2        1.0  0.7406494946917607  0.7406491353365967  0.2593492870237819  1.0000
  S   S3        1.0  0.7406495862030579  0.25935151264518497  0.2593498215290893  1.0000
  S   S4        1.0  0.25934994630841113  0.7406499650304035  0.7406486733877813  1.0000
  S   S5        1.0  0.25935144500916546  0.7406497671846062  0.25934997408285765  1.0000
  S   S6        1.0  0.7406500127523342  0.25934998446670143  0.7406486002518268  1.0000
