data_image0
_chemical_formula_structural       Sb2TaO6
_chemical_formula_sum              "Sb2 Ta1 O6"
_cell_length_a       5.384377769276295
_cell_length_b       5.384377661706534
_cell_length_c       5.384377789297751
_cell_angle_alpha    59.99999805748133
_cell_angle_beta     59.99999904130088
_cell_angle_gamma    59.99999833183839

_space_group_name_H-M_alt    "P 1"
_space_group_IT_number       1

loop_
  _space_group_symop_operation_xyz
  'x, y, z'

loop_
  _atom_site_type_symbol
  _atom_site_label
  _atom_site_symmetry_multiplicity
  _atom_site_fract_x
  _atom_site_fract_y
  _atom_site_fract_z
  _atom_site_occupancy
  Sb  Sb1       1.0  0.24999970468093502  0.2499998280771442  0.2500002401328615  1.0000
  Sb  Sb2       1.0  0.7500001442719387  0.7500004145537358  0.7499998051257195  1.0000
  Ta  Ta1       1.0  2.44782206196907e-08  0.999999990901493  1.2739615953644703e-08  1.0000
  O   O1        1.0  0.25681846966902766  0.25681820302341213  0.7431816617706111  1.0000
  O   O2        1.0  0.743181628771548  0.7431816642940686  0.25681832568120805  1.0000
  O   O3        1.0  0.7431817778588233  0.2568181178742109  0.25681850025913944  1.0000
  O   O4        1.0  0.2568182283219556  0.7431818267805758  0.7431815856579403  1.0000
  O   O5        1.0  0.2568182736909477  0.7431818316329152  0.25681829955819946  1.0000
  O   O6        1.0  0.743181761387218  0.25681809709948616  0.743181631293395  1.0000
