data_image0
_chemical_formula_structural       Sb2TiCl6
_chemical_formula_sum              "Sb2 Ti1 Cl6"
_cell_length_a       7.442332593323355
_cell_length_b       7.442331620054737
_cell_length_c       7.44233130556633
_cell_angle_alpha    59.99998210719876
_cell_angle_beta     60.00000680515228
_cell_angle_gamma    59.999990234228626

_space_group_name_H-M_alt    "P 1"
_space_group_IT_number       1

loop_
  _space_group_symop_operation_xyz
  'x, y, z'

loop_
  _atom_site_type_symbol
  _atom_site_label
  _atom_site_symmetry_multiplicity
  _atom_site_fract_x
  _atom_site_fract_y
  _atom_site_fract_z
  _atom_site_occupancy
  Sb  Sb1       1.0  0.2499962262291201  0.2500011175714457  0.25000477744465444  1.0000
  Sb  Sb2       1.0  0.7499986933081012  0.7500009105760168  0.7500017410565284  1.0000
  Ti  Ti1       1.0  2.486859062777243e-07  0.9999998683482764  0.9999997426205117  1.0000
  Cl  Cl1       1.0  0.22368174955009973  0.22368057567872485  0.7763173869452311  1.0000
  Cl  Cl2       1.0  0.7763204750831355  0.7763174387371364  0.2236799747871105  1.0000
  Cl  Cl3       1.0  0.7763190894141807  0.22368107135114637  0.22368072249840087  1.0000
  Cl  Cl4       1.0  0.22368155333699388  0.7763194033068138  0.7763176418060814  1.0000
  Cl  Cl5       1.0  0.2236819841181235  0.7763186328311948  0.2236805329389206  1.0000
  Cl  Cl6       1.0  0.7763199789374863  0.22368097621641794  0.776317481745141  1.0000
