data_image0
_chemical_formula_structural       Sb2TiS6
_chemical_formula_sum              "Sb2 Ti1 S6"
_cell_length_a       6.295065566854775
_cell_length_b       6.29506525288944
_cell_length_c       6.295065595910834
_cell_angle_alpha    59.999998635762275
_cell_angle_beta     59.99999864270994
_cell_angle_gamma    59.99999846012668

_space_group_name_H-M_alt    "P 1"
_space_group_IT_number       1

loop_
  _space_group_symop_operation_xyz
  'x, y, z'

loop_
  _atom_site_type_symbol
  _atom_site_label
  _atom_site_symmetry_multiplicity
  _atom_site_fract_x
  _atom_site_fract_y
  _atom_site_fract_z
  _atom_site_occupancy
  Sb  Sb1       1.0  0.24999997323140824  0.25000020391580136  0.24999975462585328  1.0000
  Sb  Sb2       1.0  0.7499999213572744  0.7499997868284988  0.7499999709750033  1.0000
  Ti  Ti1       1.0  0.9999999983882423  0.9999999883266195  3.5236393441259e-08  1.0000
  S   S1        1.0  0.2617946954471923  0.2617948039170474  0.7382053050504125  1.0000
  S   S2        1.0  0.7382053253931037  0.7382051712627498  0.2617948433591726  1.0000
  S   S3        1.0  0.7382053089035888  0.2617947579456623  0.2617947247218529  1.0000
  S   S4        1.0  0.2617948290359464  0.738205168595048  0.7382053338585519  1.0000
  S   S5        1.0  0.2617947948444332  0.7382052555008599  0.2617947341234035  1.0000
  S   S6        1.0  0.7382051555677785  0.26179485392281526  0.7382053061280877  1.0000
