data_image0
_chemical_formula_structural       Sb2TiBr6
_chemical_formula_sum              "Sb2 Ti1 Br6"
_cell_length_a       7.760574574618124
_cell_length_b       7.7605721259266955
_cell_length_c       7.760574167214335
_cell_angle_alpha    59.99997161404329
_cell_angle_beta     59.99998202050215
_cell_angle_gamma    59.999983529997905

_space_group_name_H-M_alt    "P 1"
_space_group_IT_number       1

loop_
  _space_group_symop_operation_xyz
  'x, y, z'

loop_
  _atom_site_type_symbol
  _atom_site_label
  _atom_site_symmetry_multiplicity
  _atom_site_fract_x
  _atom_site_fract_y
  _atom_site_fract_z
  _atom_site_occupancy
  Sb  Sb1       1.0  0.2500015360880646  0.250002551066115  0.2499995347425369  1.0000
  Sb  Sb2       1.0  0.7500030246921847  0.7499982583909928  0.7499988876185381  1.0000
  Ti  Ti1       1.0  0.9999997902362033  0.9999999463424278  9.820804788971114e-08  1.0000
  Br  Br1       1.0  0.2300812558897046  0.23008285317831076  0.7699176144456753  1.0000
  Br  Br2       1.0  0.769917671296441  0.7699174039213339  0.2300826728901818  1.0000
  Br  Br3       1.0  0.7699164711105067  0.230082464084685  0.23008232686556607  1.0000
  Br  Br4       1.0  0.23008194301671164  0.7699170244493247  0.7699180523543064  1.0000
  Br  Br5       1.0  0.23008131942920937  0.7699167306714464  0.23008295251635272  1.0000
  Br  Br6       1.0  0.7699169845026319  0.2300827625969879  0.769917876311863  1.0000
