data_image0
_chemical_formula_structural       Sb2TaF6
_chemical_formula_sum              "Sb2 Ta1 F6"
_cell_length_a       6.972795437032934
_cell_length_b       6.972797847245428
_cell_length_c       6.972804322623212
_cell_angle_alpha    59.999955603916035
_cell_angle_beta     59.99995352828368
_cell_angle_gamma    59.99996596925931

_space_group_name_H-M_alt    "P 1"
_space_group_IT_number       1

loop_
  _space_group_symop_operation_xyz
  'x, y, z'

loop_
  _atom_site_type_symbol
  _atom_site_label
  _atom_site_symmetry_multiplicity
  _atom_site_fract_x
  _atom_site_fract_y
  _atom_site_fract_z
  _atom_site_occupancy
  Sb  Sb1       1.0  0.24998290260550446  0.25000265062950344  0.25001157050553824  1.0000
  Sb  Sb2       1.0  0.7499938985451724  0.7500206107069904  0.7499895794878041  1.0000
  Ta  Ta1       1.0  1.2850461426250147e-06  0.9999990163812116  0.9999995251700163  1.0000
  F   F1        1.0  0.1944329159168204  0.1944232783236765  0.8055707689057086  1.0000
  F   F2        1.0  0.8055773118058743  0.8055675218361067  0.19442806555721728  1.0000
  F   F3        1.0  0.805576009916031  0.1944222252557382  0.1944319997322038  1.0000
  F   F4        1.0  0.19442918138879386  0.8055711200173759  0.8055723383540946  1.0000
  F   F5        1.0  0.19442971835103792  0.8055704583001939  0.19442712505336804  1.0000
  F   F6        1.0  0.8055767307656431  0.1944230134390736  0.8055690733881624  1.0000
