data_image0
_chemical_formula_structural       Sb2TeSe6
_chemical_formula_sum              "Sb2 Te1 Se6"
_cell_length_a       6.662526607508517
_cell_length_b       6.662527194497842
_cell_length_c       6.662527804491468
_cell_angle_alpha    60.00000180599553
_cell_angle_beta     59.999999575979245
_cell_angle_gamma    60.00000023399657

_space_group_name_H-M_alt    "P 1"
_space_group_IT_number       1

loop_
  _space_group_symop_operation_xyz
  'x, y, z'

loop_
  _atom_site_type_symbol
  _atom_site_label
  _atom_site_symmetry_multiplicity
  _atom_site_fract_x
  _atom_site_fract_y
  _atom_site_fract_z
  _atom_site_occupancy
  Sb  Sb1       1.0  0.24999943706993918  0.2500000788634989  0.2500007925880538  1.0000
  Sb  Sb2       1.0  0.7500001084506529  0.7499999038655353  0.7499987201901656  1.0000
  Te  Te1       1.0  0.9999999982668729  9.134461053065055e-17  2.367495229158338e-09  1.0000
  Se  Se1       1.0  0.2869638252210323  0.2869636423371507  0.7130359232746736  1.0000
  Se  Se2       1.0  0.713036385961626  0.7130362723763336  0.286964369850293  1.0000
  Se  Se3       1.0  0.713036416641343  0.2869633292161858  0.2869638924564379  1.0000
  Se  Se4       1.0  0.2869640158079895  0.713036342847141  0.7130361967270201  1.0000
  Se  Se5       1.0  0.2869632564506548  0.7130363816908273  0.28696403866932185  1.0000
  Se  Se6       1.0  0.7130365593775144  0.2869640587646429  0.7130360526771033  1.0000
