data_image0
_chemical_formula_structural       Sb2TiSe6
_chemical_formula_sum              "Sb2 Ti1 Se6"
_cell_length_a       6.58440435823387
_cell_length_b       6.58440455608037
_cell_length_c       6.584404329475102
_cell_angle_alpha    59.999995585032565
_cell_angle_beta     59.99999648308736
_cell_angle_gamma    59.9999916538954

_space_group_name_H-M_alt    "P 1"
_space_group_IT_number       1

loop_
  _space_group_symop_operation_xyz
  'x, y, z'

loop_
  _atom_site_type_symbol
  _atom_site_label
  _atom_site_symmetry_multiplicity
  _atom_site_fract_x
  _atom_site_fract_y
  _atom_site_fract_z
  _atom_site_occupancy
  Sb  Sb1       1.0  0.2500003397602602  0.24999972301897516  0.2500000826110405  1.0000
  Sb  Sb2       1.0  0.7499997634188965  0.7500006217712647  0.7499992776499536  1.0000
  Ti  Ti1       1.0  0.9999999897088717  0.9999999572184063  0.9999999840116355  1.0000
  Se  Se1       1.0  0.26019524122675375  0.26019473634354284  0.7398050842987653  1.0000
  Se  Se2       1.0  0.739804812840235  0.7398050876272318  0.2601952413237089  1.0000
  Se  Se3       1.0  0.7398048915039885  0.2601948472968408  0.26019518589090046  1.0000
  Se  Se4       1.0  0.26019510968477416  0.7398050826979012  0.7398049658408942  1.0000
  Se  Se5       1.0  0.2601949367574277  0.7398048811876979  0.2601951986916839  1.0000
  Se  Se6       1.0  0.739804915261281  0.26019505438726437  0.7398049868665247  1.0000
