data_image0
_chemical_formula_structural       Sb2TiO6
_chemical_formula_sum              "Sb2 Ti1 O6"
_cell_length_a       5.294848225477972
_cell_length_b       5.294848272512645
_cell_length_c       5.294848601562901
_cell_angle_alpha    60.000002877164185
_cell_angle_beta     60.000000678559545
_cell_angle_gamma    60.00000236415038

_space_group_name_H-M_alt    "P 1"
_space_group_IT_number       1

loop_
  _space_group_symop_operation_xyz
  'x, y, z'

loop_
  _atom_site_type_symbol
  _atom_site_label
  _atom_site_symmetry_multiplicity
  _atom_site_fract_x
  _atom_site_fract_y
  _atom_site_fract_z
  _atom_site_occupancy
  Sb  Sb1       1.0  0.2500010578981112  0.25000079299424555  0.24999853230244776  1.0000
  Sb  Sb2       1.0  0.7500007524557435  0.7499997767591611  0.7499998423988946  1.0000
  Ti  Ti1       1.0  0.9999999808565554  5.0887922994940776e-08  0.9999998557010497  1.0000
  O   O1        1.0  0.2559974858228671  0.2559981334883886  0.7440025000775115  1.0000
  O   O2        1.0  0.7440021690692099  0.7440020985542298  0.25599776712087163  1.0000
  O   O3        1.0  0.7440016237415662  0.25599775853658696  0.25599797034362115  1.0000
  O   O4        1.0  0.25599764723177687  0.7440017541357535  0.7440026634136756  1.0000
  O   O5        1.0  0.25599770306116754  0.7440017578742059  0.2559980268054358  1.0000
  O   O6        1.0  0.7440015842775828  0.2559978496347396  0.744002777986234  1.0000
