data_image0
_chemical_formula_structural       Sb2TiF6
_chemical_formula_sum              "Sb2 Ti1 F6"
_cell_length_a       6.584616675871238
_cell_length_b       6.584615787823927
_cell_length_c       6.584615573851748
_cell_angle_alpha    59.99999454890618
_cell_angle_beta     60.000010300819966
_cell_angle_gamma    60.00001458685115

_space_group_name_H-M_alt    "P 1"
_space_group_IT_number       1

loop_
  _space_group_symop_operation_xyz
  'x, y, z'

loop_
  _atom_site_type_symbol
  _atom_site_label
  _atom_site_symmetry_multiplicity
  _atom_site_fract_x
  _atom_site_fract_y
  _atom_site_fract_z
  _atom_site_occupancy
  Sb  Sb1       1.0  0.24998605404719118  0.25000135549672764  0.2500035799830315  1.0000
  Sb  Sb2       1.0  0.7500022989622446  0.7499981070277544  0.7499957669259438  1.0000
  Ti  Ti1       1.0  4.5771657658596005e-07  0.9999999683799006  8.765270542653752e-08  1.0000
  F   F1        1.0  0.20493182046622432  0.20493085376378675  0.7950692883101618  1.0000
  F   F2        1.0  0.7950708112622458  0.7950676861979517  0.20493245470321023  1.0000
  F   F3        1.0  0.7950737995980006  0.20493088298253465  0.20493125580381227  1.0000
  F   F4        1.0  0.204932150551401  0.7950688548260291  0.7950689914588972  1.0000
  F   F5        1.0  0.20493093279998253  0.7950701608958717  0.20493190035775286  1.0000
  F   F6        1.0  0.7950716894596792  0.20493209536529533  0.795066704427078  1.0000
