data_image0
_chemical_formula_structural       Sb2TaBr6
_chemical_formula_sum              "Sb2 Ta1 Br6"
_cell_length_a       8.124503157352294
_cell_length_b       8.124501432382706
_cell_length_c       8.124503309878293
_cell_angle_alpha    59.99998748019594
_cell_angle_beta     59.99998139573943
_cell_angle_gamma    59.999984948169974

_space_group_name_H-M_alt    "P 1"
_space_group_IT_number       1

loop_
  _space_group_symop_operation_xyz
  'x, y, z'

loop_
  _atom_site_type_symbol
  _atom_site_label
  _atom_site_symmetry_multiplicity
  _atom_site_fract_x
  _atom_site_fract_y
  _atom_site_fract_z
  _atom_site_occupancy
  Sb  Sb1       1.0  0.2500005236548389  0.2500001861670976  0.2500039917147681  1.0000
  Sb  Sb2       1.0  0.7499985169987777  0.7499990012836515  0.7500035059239446  1.0000
  Ta  Ta1       1.0  8.564742002356434e-08  7.989595588932199e-08  0.9999993731950401  1.0000
  Br  Br1       1.0  0.22001473388182277  0.22001448087068026  0.779983962545228  1.0000
  Br  Br2       1.0  0.7799854601266323  0.7799857874366601  0.22001351282780646  1.0000
  Br  Br3       1.0  0.7799851818389767  0.2200148659781549  0.22001343657902514  1.0000
  Br  Br4       1.0  0.22001449836864034  0.7799859374814215  0.7799844650681486  1.0000
  Br  Br5       1.0  0.22001514342327474  0.7799849761487019  0.22001315584759035  1.0000
  Br  Br6       1.0  0.7799858362204093  0.22001468766273882  0.7799846314418376  1.0000
