data_image0
_chemical_formula_structural       Sb2TeO6
_chemical_formula_sum              "Sb2 Te1 O6"
_cell_length_a       5.3827994364779865
_cell_length_b       5.382799482749202
_cell_length_c       5.382799430498148
_cell_angle_alpha    60.0000001473905
_cell_angle_beta     60.00000044680814
_cell_angle_gamma    60.00000016220036

_space_group_name_H-M_alt    "P 1"
_space_group_IT_number       1

loop_
  _space_group_symop_operation_xyz
  'x, y, z'

loop_
  _atom_site_type_symbol
  _atom_site_label
  _atom_site_symmetry_multiplicity
  _atom_site_fract_x
  _atom_site_fract_y
  _atom_site_fract_z
  _atom_site_occupancy
  Sb  Sb1       1.0  0.24999990034900013  0.2500000603940525  0.24999992992692696  1.0000
  Sb  Sb2       1.0  0.750000092489965  0.7499999400010441  0.7500001010658893  1.0000
  Te  Te1       1.0  0.9999999747561709  1.1376467730089789e-08  0.9999999567739072  1.0000
  O   O1        1.0  0.24971343419459435  0.24971346949126422  0.7502866153902535  1.0000
  O   O2        1.0  0.7502865930748478  0.7502865627579415  0.24971336388257592  1.0000
  O   O3        1.0  0.750286605789038  0.24971346736952355  0.24971339466734563  1.0000
  O   O4        1.0  0.24971337987832018  0.750286496620877  0.7502866506825445  1.0000
  O   O5        1.0  0.2497134305470762  0.7502865893940321  0.24971342092537355  1.0000
  O   O6        1.0  0.7502865882941487  0.24971339734930367  0.7502865481591118  1.0000
