data_image0
_chemical_formula_structural       Sb2TiTe6
_chemical_formula_sum              "Sb2 Ti1 Te6"
_cell_length_a       7.180134108393843
_cell_length_b       7.1801341045461164
_cell_length_c       7.180134177103682
_cell_angle_alpha    59.99999889842698
_cell_angle_beta     59.999999962773245
_cell_angle_gamma    59.99999931829099

_space_group_name_H-M_alt    "P 1"
_space_group_IT_number       1

loop_
  _space_group_symop_operation_xyz
  'x, y, z'

loop_
  _atom_site_type_symbol
  _atom_site_label
  _atom_site_symmetry_multiplicity
  _atom_site_fract_x
  _atom_site_fract_y
  _atom_site_fract_z
  _atom_site_occupancy
  Sb  Sb1       1.0  0.24999997093679968  0.2500000088215266  0.2500000066151154  1.0000
  Sb  Sb2       1.0  0.7500000446177362  0.7499999735866097  0.7499999901297848  1.0000
  Ti  Ti1       1.0  0.999999968145637  0.9999999556507349  4.785093571088722e-08  1.0000
  Te  Te1       1.0  0.2620099128839702  0.2620099094305812  0.7379900924580608  1.0000
  Te  Te2       1.0  0.7379900693361703  0.7379901343842298  0.262009887465236  1.0000
  Te  Te3       1.0  0.7379900947925602  0.26200991624396  0.2620099396056228  1.0000
  Te  Te4       1.0  0.2620099431790545  0.7379900712813993  0.7379900364084682  1.0000
  Te  Te5       1.0  0.26200991464159906  0.737990099804347  0.26200994667057603  1.0000
  Te  Te6       1.0  0.7379900817763116  0.2620099303645363  0.7379900455113843  1.0000
