data_image0
_chemical_formula_structural       Sb2TaCl6
_chemical_formula_sum              "Sb2 Ta1 Cl6"
_cell_length_a       7.729555197941123
_cell_length_b       7.729557614788299
_cell_length_c       7.729559419077036
_cell_angle_alpha    59.99998965314388
_cell_angle_beta     59.9999721850785
_cell_angle_gamma    59.99999179137708

_space_group_name_H-M_alt    "P 1"
_space_group_IT_number       1

loop_
  _space_group_symop_operation_xyz
  'x, y, z'

loop_
  _atom_site_type_symbol
  _atom_site_label
  _atom_site_symmetry_multiplicity
  _atom_site_fract_x
  _atom_site_fract_y
  _atom_site_fract_z
  _atom_site_occupancy
  Sb  Sb1       1.0  0.24999877829839132  0.24999776693121803  0.24999699875035186  1.0000
  Sb  Sb2       1.0  0.749998359667349  0.7500016035501699  0.749996534260652  1.0000
  Ta  Ta1       1.0  2.3323895507565877e-07  1.2042165522311206e-07  5.554235714068333e-07  1.0000
  Cl  Cl1       1.0  0.2163796202778971  0.21637948761633546  0.7836215359598766  1.0000
  Cl  Cl2       1.0  0.7836214381882846  0.7836202710663692  0.21638019387207713  1.0000
  Cl  Cl3       1.0  0.7836214617279426  0.2163789936338071  0.21638030066282685  1.0000
  Cl  Cl4       1.0  0.21638026320963066  0.7836204148753646  0.7836218143887709  1.0000
  Cl  Cl5       1.0  0.21637887228918773  0.7836212950059565  0.2163803717409764  1.0000
  Cl  Cl6       1.0  0.7836209757472242  0.21638005134131133  0.7836216817926187  1.0000
