data_image0
_chemical_formula_structural       Sb2VO6
_chemical_formula_sum              "Sb2 V1 O6"
_cell_length_a       5.335882429583704
_cell_length_b       5.3358824760423165
_cell_length_c       5.335882435964691
_cell_angle_alpha    59.999999919403464
_cell_angle_beta     59.999999464828036
_cell_angle_gamma    60.000000766186155

_space_group_name_H-M_alt    "P 1"
_space_group_IT_number       1

loop_
  _space_group_symop_operation_xyz
  'x, y, z'

loop_
  _atom_site_type_symbol
  _atom_site_label
  _atom_site_symmetry_multiplicity
  _atom_site_fract_x
  _atom_site_fract_y
  _atom_site_fract_z
  _atom_site_occupancy
  Sb  Sb1       1.0  0.2500007789723247  0.2499994334595813  0.2500000275395713  1.0000
  Sb  Sb2       1.0  0.749999989484524  0.7500000126721923  0.7499999279139459  1.0000
  V   V1        1.0  3.6570999556319706e-08  0.9999999357316127  5.3204883328636003e-08  1.0000
  O   O1        1.0  0.24852563713369727  0.2485255173860149  0.751474358227937  1.0000
  O   O2        1.0  0.7514740742788582  0.7514747757112853  0.24852562542669085  1.0000
  O   O3        1.0  0.7514741550423679  0.24852563460848523  0.24852566390178435  1.0000
  O   O4        1.0  0.24852560712931746  0.7514744932272478  0.7514742589354938  1.0000
  O   O5        1.0  0.24852558196242158  0.7514744918661651  0.24852558991375553  1.0000
  O   O6        1.0  0.7514741836409512  0.24852564515076583  0.7514745252721315  1.0000
