data_image0
_chemical_formula_structural       Sb2VI6
_chemical_formula_sum              "Sb2 V1 I6"
_cell_length_a       7.943920439319143
_cell_length_b       7.943920613864868
_cell_length_c       7.943920131416246
_cell_angle_alpha    60.00000110312567
_cell_angle_beta     60.00000187308731
_cell_angle_gamma    59.99999773294455

_space_group_name_H-M_alt    "P 1"
_space_group_IT_number       1

loop_
  _space_group_symop_operation_xyz
  'x, y, z'

loop_
  _atom_site_type_symbol
  _atom_site_label
  _atom_site_symmetry_multiplicity
  _atom_site_fract_x
  _atom_site_fract_y
  _atom_site_fract_z
  _atom_site_occupancy
  Sb  Sb1       1.0  0.249999902130229  0.2500001604382838  0.24999985662561744  1.0000
  Sb  Sb2       1.0  0.7500001076455702  0.7499997659481412  0.7499999774388159  1.0000
  V   V1        1.0  1.5475303586255953e-08  1.5417371273399045e-09  5.6950345274126826e-08  1.0000
  I   I1        1.0  0.23729528260358634  0.2372953424670357  0.7627047295216439  1.0000
  I   I2        1.0  0.7627047106388287  0.7627046378802362  0.23729535395864168  1.0000
  I   I3        1.0  0.7627047235293318  0.2372953295644579  0.23729532225581587  1.0000
  I   I4        1.0  0.23729532469916356  0.7627046384489039  0.7627046970983574  1.0000
  I   I5        1.0  0.23729524811090394  0.7627047236462932  0.23729536705125148  1.0000
  I   I6        1.0  0.762704685709089  0.23729540008266742  0.762704639202318  1.0000
