data_image0
_chemical_formula_structural       Sb2VF6
_chemical_formula_sum              "Sb2 V1 F6"
_cell_length_a       5.664228714173087
_cell_length_b       5.664228127638223
_cell_length_c       5.664228742059897
_cell_angle_alpha    59.9999982107118
_cell_angle_beta     59.999999085616
_cell_angle_gamma    60.00000173113926

_space_group_name_H-M_alt    "P 1"
_space_group_IT_number       1

loop_
  _space_group_symop_operation_xyz
  'x, y, z'

loop_
  _atom_site_type_symbol
  _atom_site_label
  _atom_site_symmetry_multiplicity
  _atom_site_fract_x
  _atom_site_fract_y
  _atom_site_fract_z
  _atom_site_occupancy
  Sb  Sb1       1.0  0.25000676852374665  0.24999809400307318  0.24999014498620234  1.0000
  Sb  Sb2       1.0  0.7499940283289742  0.7500051126936144  0.7500027246892195  1.0000
  V   V1        1.0  0.99999999341082  0.9999999891887773  1.1815905754085767e-07  1.0000
  F   F1        1.0  0.24944494086473948  0.24943957392564925  0.7505614728787329  1.0000
  F   F2        1.0  0.7505556507110372  0.7505598574914517  0.24944108626961992  1.0000
  F   F3        1.0  0.7505572534596978  0.24944158720562343  0.24944289536025083  1.0000
  F   F4        1.0  0.249443240607784  0.7505557944031989  0.7505597929223594  1.0000
  F   F5        1.0  0.2494441457781686  0.7505592488391231  0.24944029437061338  1.0000
  F   F6        1.0  0.7505540177945356  0.24944068421865187  0.7505614836791201  1.0000
