data_image0
_chemical_formula_structural       Sb2VS6
_chemical_formula_sum              "Sb2 V1 S6"
_cell_length_a       6.265185817829497
_cell_length_b       6.265185782656496
_cell_length_c       6.265186071330251
_cell_angle_alpha    60.00000430413535
_cell_angle_beta     60.00000384193699
_cell_angle_gamma    60.000002429683796

_space_group_name_H-M_alt    "P 1"
_space_group_IT_number       1

loop_
  _space_group_symop_operation_xyz
  'x, y, z'

loop_
  _atom_site_type_symbol
  _atom_site_label
  _atom_site_symmetry_multiplicity
  _atom_site_fract_x
  _atom_site_fract_y
  _atom_site_fract_z
  _atom_site_occupancy
  Sb  Sb1       1.0  0.25000024161052226  0.25000040238441595  0.24999921746525994  1.0000
  Sb  Sb2       1.0  0.7499996380820506  0.7500004643133922  0.750000595861184  1.0000
  V   V1        1.0  0.9999999499950702  4.4961370056953496e-08  9.50968436475921e-08  1.0000
  S   S1        1.0  0.2576450414748719  0.25764458105240473  0.7423554110710013  1.0000
  S   S2        1.0  0.7423553283749964  0.7423551303337749  0.25764440603148886  1.0000
  S   S3        1.0  0.7423551191690119  0.2576447774692256  0.2576449275311016  1.0000
  S   S4        1.0  0.2576447800917248  0.7423548694071772  0.7423553103485135  1.0000
  S   S5        1.0  0.25764502955867613  0.7423550071672472  0.2576446810950412  1.0000
  S   S6        1.0  0.7423548594614661  0.2576447257221959  0.7423553688629061  1.0000
