data_image0
_chemical_formula_structural       Sb2VBr6
_chemical_formula_sum              "Sb2 V1 Br6"
_cell_length_a       7.579407845145552
_cell_length_b       7.57940634211966
_cell_length_c       7.5794062164143154
_cell_angle_alpha    59.99999822462099
_cell_angle_beta     60.000004540401655
_cell_angle_gamma    60.0000079328284

_space_group_name_H-M_alt    "P 1"
_space_group_IT_number       1

loop_
  _space_group_symop_operation_xyz
  'x, y, z'

loop_
  _atom_site_type_symbol
  _atom_site_label
  _atom_site_symmetry_multiplicity
  _atom_site_fract_x
  _atom_site_fract_y
  _atom_site_fract_z
  _atom_site_occupancy
  Sb  Sb1       1.0  0.2499977472348256  0.2499997622269117  0.25000069400391434  1.0000
  Sb  Sb2       1.0  0.7500004163210146  0.7499996551034229  0.7499988329603531  1.0000
  V   V1        1.0  1.6228788707214097e-07  1.1311213986619045e-08  1.4791517772742724e-08  1.0000
  Br  Br1       1.0  0.232146787421139  0.2321467369809983  0.7678535225880464  1.0000
  Br  Br2       1.0  0.7678534626210721  0.7678530616984175  0.2321472073248026  1.0000
  Br  Br3       1.0  0.767854041797638  0.23214668428872903  0.23214704108000078  1.0000
  Br  Br4       1.0  0.23214693678014184  0.7678534973555223  0.7678529378166692  1.0000
  Br  Br5       1.0  0.23214661490779334  0.7678535402039981  0.23214702674027426  1.0000
  Br  Br6       1.0  0.7678538298636892  0.2321470454114326  0.7678527149394723  1.0000
