data_image0
_chemical_formula_structural       Sb2VTe6
_chemical_formula_sum              "Sb2 V1 Te6"
_cell_length_a       7.092495784958999
_cell_length_b       7.092495737787515
_cell_length_c       7.092495701962055
_cell_angle_alpha    59.99999975545726
_cell_angle_beta     59.99999902698447
_cell_angle_gamma    59.999999647631064

_space_group_name_H-M_alt    "P 1"
_space_group_IT_number       1

loop_
  _space_group_symop_operation_xyz
  'x, y, z'

loop_
  _atom_site_type_symbol
  _atom_site_label
  _atom_site_symmetry_multiplicity
  _atom_site_fract_x
  _atom_site_fract_y
  _atom_site_fract_z
  _atom_site_occupancy
  Sb  Sb1       1.0  0.2499998713366064  0.25000015804460884  0.250000056550442  1.0000
  Sb  Sb2       1.0  0.7500000161831368  0.749999902557095  0.7500003121606086  1.0000
  V   V1        1.0  0.9999999766146153  3.1082722585892854e-08  5.5368850357448323e-08  1.0000
  Te  Te1       1.0  0.26024171317113504  0.2602417495980451  0.7397582437050194  1.0000
  Te  Te2       1.0  0.739758360032125  0.7397581642241354  0.2602416036150612  1.0000
  Te  Te3       1.0  0.7397582629265245  0.26024183950785973  0.2602416234918592  1.0000
  Te  Te4       1.0  0.26024169162299754  0.7397582349083875  0.7397582381065814  1.0000
  Te  Te5       1.0  0.26024184357989055  0.7397581846037832  0.2602416696942264  1.0000
  Te  Te6       1.0  0.7397582690748874  0.2602417378524871  0.7397581930613961  1.0000
