data_image0
_chemical_formula_structural       Sb2WTe6
_chemical_formula_sum              "Sb2 W1 Te6"
_cell_length_a       7.203741570087438
_cell_length_b       7.203741335129731
_cell_length_c       7.203741494820843
_cell_angle_alpha    59.99999952620513
_cell_angle_beta     60.00000107282642
_cell_angle_gamma    59.99999850056899

_space_group_name_H-M_alt    "P 1"
_space_group_IT_number       1

loop_
  _space_group_symop_operation_xyz
  'x, y, z'

loop_
  _atom_site_type_symbol
  _atom_site_label
  _atom_site_symmetry_multiplicity
  _atom_site_fract_x
  _atom_site_fract_y
  _atom_site_fract_z
  _atom_site_occupancy
  Sb  Sb1       1.0  0.25000001332574373  0.2500000652726557  0.24999996986538114  1.0000
  Sb  Sb2       1.0  0.7500000251177215  0.7499999662975665  0.7500000248452606  1.0000
  W   W1        1.0  0.9999999632468082  0.999999965996978  6.226588641747705e-09  1.0000
  Te  Te1       1.0  0.2607434185096759  0.2607434714907092  0.7392565507223042  1.0000
  Te  Te2       1.0  0.7392565957927895  0.7392565651799664  0.2607434201925899  1.0000
  Te  Te3       1.0  0.7392565698613418  0.2607433985460131  0.2607434068371269  1.0000
  Te  Te4       1.0  0.26074340164851084  0.7392566126223962  0.7392565898962014  1.0000
  Te  Te5       1.0  0.26074342459757166  0.7392565717259568  0.260743402293043  1.0000
  Te  Te6       1.0  0.7392565880547928  0.26074338333746516  0.7392566296848736  1.0000
