data_image0
_chemical_formula_structural       Sb2WO6
_chemical_formula_sum              "Sb2 W1 O6"
_cell_length_a       5.42733272632731
_cell_length_b       5.427332764122617
_cell_length_c       5.427332765825729
_cell_angle_alpha    59.999998521339435
_cell_angle_beta     59.99999931757056
_cell_angle_gamma    59.99999864474954

_space_group_name_H-M_alt    "P 1"
_space_group_IT_number       1

loop_
  _space_group_symop_operation_xyz
  'x, y, z'

loop_
  _atom_site_type_symbol
  _atom_site_label
  _atom_site_symmetry_multiplicity
  _atom_site_fract_x
  _atom_site_fract_y
  _atom_site_fract_z
  _atom_site_occupancy
  Sb  Sb1       1.0  0.24999997847789185  0.24999977590305875  0.25000007444356853  1.0000
  Sb  Sb2       1.0  0.749999247565745  0.7500004785873744  0.7500003179526068  1.0000
  W   W1        1.0  0.999999988868082  0.99999998871688  4.068793006288393e-08  1.0000
  O   O1        1.0  0.25166635786240704  0.2516657616302236  0.7483339502877986  1.0000
  O   O2        1.0  0.7483338961901099  0.7483340257390547  0.2516659387189084  1.0000
  O   O3        1.0  0.7483340078459318  0.2516659988187542  0.2516660962615275  1.0000
  O   O4        1.0  0.25166623393148274  0.7483340232394086  0.7483338915862134  1.0000
  O   O5        1.0  0.25166635252608643  0.7483340825797433  0.2516657455257143  1.0000
  O   O6        1.0  0.7483339248189342  0.25166589660256905  0.7483339511720404  1.0000
