data_image0
_chemical_formula_structural       Sb2WSe6
_chemical_formula_sum              "Sb2 W1 Se6"
_cell_length_a       6.69092214526312
_cell_length_b       6.690922296398324
_cell_length_c       6.6909224838968155
_cell_angle_alpha    59.99999786158842
_cell_angle_beta     59.99999898151865
_cell_angle_gamma    59.99999830756229

_space_group_name_H-M_alt    "P 1"
_space_group_IT_number       1

loop_
  _space_group_symop_operation_xyz
  'x, y, z'

loop_
  _atom_site_type_symbol
  _atom_site_label
  _atom_site_symmetry_multiplicity
  _atom_site_fract_x
  _atom_site_fract_y
  _atom_site_fract_z
  _atom_site_occupancy
  Sb  Sb1       1.0  0.25000009836143555  0.24999987371981403  0.2500001800092005  1.0000
  Sb  Sb2       1.0  0.7499998664108664  0.7499997474610237  0.7500001232798817  1.0000
  W   W1        1.0  0.9999999309152384  9.335333487481438e-08  0.9999999280832231  1.0000
  Se  Se1       1.0  0.2573696401233166  0.25736979636735063  0.7426302337599379  1.0000
  Se  Se2       1.0  0.7426302469799998  0.7426303684593722  0.2573696870844669  1.0000
  Se  Se3       1.0  0.7426302923870395  0.25736974449792166  0.25736962842666017  1.0000
  Se  Se4       1.0  0.2573697942269037  0.7426303654150737  0.742630226097545  1.0000
  Se  Se5       1.0  0.2573697792312688  0.7426302506408752  0.25736968486809797  1.0000
  Se  Se6       1.0  0.742630351295696  0.25736975859695477  0.7426303101293473  1.0000
