data_image0
_chemical_formula_structural       Sb2YCl6
_chemical_formula_sum              "Sb2 Y1 Cl6"
_cell_length_a       7.337779226532112
_cell_length_b       7.337778792867549
_cell_length_c       7.33778064709801
_cell_angle_alpha    59.99999421532037
_cell_angle_beta     59.99998866753604
_cell_angle_gamma    59.99998383731601

_space_group_name_H-M_alt    "P 1"
_space_group_IT_number       1

loop_
  _space_group_symop_operation_xyz
  'x, y, z'

loop_
  _atom_site_type_symbol
  _atom_site_label
  _atom_site_symmetry_multiplicity
  _atom_site_fract_x
  _atom_site_fract_y
  _atom_site_fract_z
  _atom_site_occupancy
  Sb  Sb1       1.0  0.24999975915787917  0.2499988916131487  0.25000042165201036  1.0000
  Sb  Sb2       1.0  0.7499993564536567  0.7499996858868274  0.7499998385068465  1.0000
  Y   Y1        1.0  7.206819505117201e-08  7.177108430489651e-08  8.889192546690429e-08  1.0000
  Cl  Cl1       1.0  0.25207073954513787  0.25207055426272423  0.7479294784742515  1.0000
  Cl  Cl2       1.0  0.7479289921240131  0.747929744074188  0.25207088610177275  1.0000
  Cl  Cl3       1.0  0.7479297164199059  0.25207098966233527  0.25207045787339816  1.0000
  Cl  Cl4       1.0  0.25207086429069164  0.7479297593301185  0.747929070149155  1.0000
  Cl  Cl5       1.0  0.25207078275772654  0.7479294452017736  0.2520707454933133  1.0000
  Cl  Cl6       1.0  0.7479297095348888  0.25207085146594244  0.7479290038394384  1.0000
