data_image0
_chemical_formula_structural       Sb2YSe6
_chemical_formula_sum              "Sb2 Y1 Se6"
_cell_length_a       6.810566259135992
_cell_length_b       6.8105666760142665
_cell_length_c       6.8105664603376095
_cell_angle_alpha    60.000009201743225
_cell_angle_beta     60.000006424951245
_cell_angle_gamma    60.00000597420173

_space_group_name_H-M_alt    "P 1"
_space_group_IT_number       1

loop_
  _space_group_symop_operation_xyz
  'x, y, z'

loop_
  _atom_site_type_symbol
  _atom_site_label
  _atom_site_symmetry_multiplicity
  _atom_site_fract_x
  _atom_site_fract_y
  _atom_site_fract_z
  _atom_site_occupancy
  Sb  Sb1       1.0  0.24999933408286304  0.25000058914054574  0.25000062424357083  1.0000
  Sb  Sb2       1.0  0.7500002151612986  0.7499996148554157  0.7499995050132786  1.0000
  Y   Y1        1.0  3.014809382049366e-09  0.9999999604373782  0.9999999507317983  1.0000
  Se  Se1       1.0  0.2757897768426944  0.27579027946742635  0.7242098030612693  1.0000
  Se  Se2       1.0  0.7242103674621071  0.7242094821465398  0.2757903306131293  1.0000
  Se  Se3       1.0  0.7242097986982505  0.27579026859783456  0.27579009077729427  1.0000
  Se  Se4       1.0  0.27579030819463046  0.7242100325063611  0.7242096450273166  1.0000
  Se  Se5       1.0  0.2757901264211218  0.7242096331482942  0.2757903117944611  1.0000
  Se  Se6       1.0  0.7242100726171622  0.2757901626333846  0.7242097495315186  1.0000
