data_image0
_chemical_formula_structural       Sb2YTe6
_chemical_formula_sum              "Sb2 Y1 Te6"
_cell_length_a       7.554626685765561
_cell_length_b       7.554626663096973
_cell_length_c       7.554626618631262
_cell_angle_alpha    60.00000011716302
_cell_angle_beta     60.000000161786225
_cell_angle_gamma    60.000000417954546

_space_group_name_H-M_alt    "P 1"
_space_group_IT_number       1

loop_
  _space_group_symop_operation_xyz
  'x, y, z'

loop_
  _atom_site_type_symbol
  _atom_site_label
  _atom_site_symmetry_multiplicity
  _atom_site_fract_x
  _atom_site_fract_y
  _atom_site_fract_z
  _atom_site_occupancy
  Sb  Sb1       1.0  0.25000017680204645  0.24999977821785246  0.25000007910316646  1.0000
  Sb  Sb2       1.0  0.7499996882516059  0.7500002149570991  0.7500004022282053  1.0000
  Y   Y1        1.0  6.226450525154455e-08  7.457451791915527e-08  0.9999999951177119  1.0000
  Te  Te1       1.0  0.27935304423281593  0.2793526973959724  0.7206470984791061  1.0000
  Te  Te2       1.0  0.7206470246183934  0.7206471887807593  0.2793527361437422  1.0000
  Te  Te3       1.0  0.7206470797504398  0.27935287447891005  0.2793528791607827  1.0000
  Te  Te4       1.0  0.2793528317426433  0.7206471948917448  0.7206469835786241  1.0000
  Te  Te5       1.0  0.2793530282734421  0.7206472031651668  0.2793526930854526  1.0000
  Te  Te6       1.0  0.7206470654332107  0.27935276893437905  0.7206471324774925  1.0000
