data_image0
_chemical_formula_structural       Sb2YO6
_chemical_formula_sum              "Sb2 Y1 O6"
_cell_length_a       5.551822006554427
_cell_length_b       5.551822045189785
_cell_length_c       5.551821995638667
_cell_angle_alpha    59.99999844340141
_cell_angle_beta     59.99999833857094
_cell_angle_gamma    59.99999778909737

_space_group_name_H-M_alt    "P 1"
_space_group_IT_number       1

loop_
  _space_group_symop_operation_xyz
  'x, y, z'

loop_
  _atom_site_type_symbol
  _atom_site_label
  _atom_site_symmetry_multiplicity
  _atom_site_fract_x
  _atom_site_fract_y
  _atom_site_fract_z
  _atom_site_occupancy
  Sb  Sb1       1.0  0.2499999333525849  0.24999989709069947  0.25000010903095365  1.0000
  Sb  Sb2       1.0  0.7500001099276288  0.7500001655671081  0.7500000394806163  1.0000
  Y   Y1        1.0  4.9664280698484866e-08  1.3236139026587871e-08  0.9999999847606836  1.0000
  O   O1        1.0  0.27356891842827924  0.27356880010576373  0.7264311647409817  1.0000
  O   O2        1.0  0.7264311228586661  0.726431112542461  0.273568818409811  1.0000
  O   O3        1.0  0.7264311683906705  0.2735688255363286  0.27356885655805363  1.0000
  O   O4        1.0  0.27356869602169354  0.7264312371214855  0.7264311003986045  1.0000
  O   O5        1.0  0.2735688295967002  0.7264311907294064  0.2735687997003585  1.0000
  O   O6        1.0  0.7264311799877056  0.2735687483910992  0.7264311518425641  1.0000
