data_image0
_chemical_formula_structural       Sb2YI6
_chemical_formula_sum              "Sb2 Y1 I6"
_cell_length_a       8.934257102127187
_cell_length_b       8.93425733818178
_cell_length_c       8.934257319860357
_cell_angle_alpha    60.00000224631422
_cell_angle_beta     60.00000156571241
_cell_angle_gamma    60.000001507191556

_space_group_name_H-M_alt    "P 1"
_space_group_IT_number       1

loop_
  _space_group_symop_operation_xyz
  'x, y, z'

loop_
  _atom_site_type_symbol
  _atom_site_label
  _atom_site_symmetry_multiplicity
  _atom_site_fract_x
  _atom_site_fract_y
  _atom_site_fract_z
  _atom_site_occupancy
  Sb  Sb1       1.0  0.24999990090340554  0.25000007015319614  0.2500003969187837  1.0000
  Sb  Sb2       1.0  0.7500002105636332  0.7500000788588068  0.7499996695589667  1.0000
  Y   Y1        1.0  7.089405444942781e-09  0.9999999670998103  1.8501827779778045e-08  1.0000
  I   I1        1.0  0.23898505494091044  0.23898515348032193  0.7610147988105606  1.0000
  I   I2        1.0  0.7610148720878341  0.7610148625600777  0.23898517789037124  1.0000
  I   I3        1.0  0.7610149003702993  0.23898508308648883  0.23898508902966487  1.0000
  I   I4        1.0  0.23898513589108655  0.7610148301408167  0.7610148408092919  1.0000
  I   I5        1.0  0.2389850425867109  0.7610148438611828  0.23898517370754993  1.0000
  I   I6        1.0  0.7610148777849798  0.23898511460388458  0.7610148295131376  1.0000
