data_image0
_chemical_formula_structural       Sb2YF6
_chemical_formula_sum              "Sb2 Y1 F6"
_cell_length_a       6.276370798379354
_cell_length_b       6.276370410738854
_cell_length_c       6.276370457896272
_cell_angle_alpha    59.99998599042666
_cell_angle_beta     59.9999797812355
_cell_angle_gamma    59.999993922787375

_space_group_name_H-M_alt    "P 1"
_space_group_IT_number       1

loop_
  _space_group_symop_operation_xyz
  'x, y, z'

loop_
  _atom_site_type_symbol
  _atom_site_label
  _atom_site_symmetry_multiplicity
  _atom_site_fract_x
  _atom_site_fract_y
  _atom_site_fract_z
  _atom_site_occupancy
  Sb  Sb1       1.0  0.24999855812995203  0.25000059134046004  0.2499981575252258  1.0000
  Sb  Sb2       1.0  0.7500023783271642  0.7499958301822193  0.7500060771596628  1.0000
  Y   Y1        1.0  8.134159082346869e-08  0.9999998829184715  1.4851872463694968e-07  1.0000
  F   F1        1.0  0.24446323287988597  0.24446577338272715  0.7555362070356483  1.0000
  F   F2        1.0  0.7555355765694893  0.7555353899418575  0.24446233873882028  1.0000
  F   F3        1.0  0.7555363195038414  0.24446710484839893  0.24446185364801412  1.0000
  F   F4        1.0  0.24446297562543978  0.7555350243987821  0.7555360268695681  1.0000
  F   F5        1.0  0.244465072169643  0.7555360236327396  0.24446388467429053  1.0000
  F   F6        1.0  0.7555357987883814  0.24446438061333262  0.7555352558278715  1.0000
