data_image0
_chemical_formula_structural       Sb2YBr6
_chemical_formula_sum              "Sb2 Y1 Br6"
_cell_length_a       7.721546728952855
_cell_length_b       7.72154657903154
_cell_length_c       7.721546854619309
_cell_angle_alpha    59.99999985354901
_cell_angle_beta     60.000000022399334
_cell_angle_gamma    59.999998577281985

_space_group_name_H-M_alt    "P 1"
_space_group_IT_number       1

loop_
  _space_group_symop_operation_xyz
  'x, y, z'

loop_
  _atom_site_type_symbol
  _atom_site_label
  _atom_site_symmetry_multiplicity
  _atom_site_fract_x
  _atom_site_fract_y
  _atom_site_fract_z
  _atom_site_occupancy
  Sb  Sb1       1.0  0.24999988548042204  0.24999983649387011  0.2500002058335244  1.0000
  Sb  Sb2       1.0  0.7500004954426479  0.7500000027709348  0.7499998296179617  1.0000
  Y   Y1        1.0  2.0860822275611432e-08  0.9999999777940495  4.988550120114511e-08  1.0000
  Br  Br1       1.0  0.2540446545663283  0.2540447614569944  0.7459552672556982  1.0000
  Br  Br2       1.0  0.745955260460017  0.7459552776613714  0.2540447276770122  1.0000
  Br  Br3       1.0  0.7459553384004043  0.25404470099667664  0.2540446451031821  1.0000
  Br  Br4       1.0  0.25404455031212614  0.7459553587415005  0.7459553034635931  1.0000
  Br  Br5       1.0  0.25404449234080223  0.7459554031870994  0.254044768010719  1.0000
  Br  Br6       1.0  0.7459552997728687  0.25404467717089035  0.7459552146603472  1.0000
