data_image0
_chemical_formula_structural       Sb2ZrTe6
_chemical_formula_sum              "Sb2 Zr1 Te6"
_cell_length_a       7.342423851353266
_cell_length_b       7.342423621721569
_cell_length_c       7.342423627024989
_cell_angle_alpha    60.00000100612711
_cell_angle_beta     60.00000052984308
_cell_angle_gamma    59.99999973509625

_space_group_name_H-M_alt    "P 1"
_space_group_IT_number       1

loop_
  _space_group_symop_operation_xyz
  'x, y, z'

loop_
  _atom_site_type_symbol
  _atom_site_label
  _atom_site_symmetry_multiplicity
  _atom_site_fract_x
  _atom_site_fract_y
  _atom_site_fract_z
  _atom_site_occupancy
  Sb  Sb1       1.0  0.25000016451455265  0.24999992838401405  0.24999991733737692  1.0000
  Sb  Sb2       1.0  0.7500000525332621  0.749999985316721  0.7500000385926621  1.0000
  Zr  Zr1       1.0  3.2693001864817e-08  0.9999999349464805  1.4818310079700376e-08  1.0000
  Te  Te1       1.0  0.26918765599140215  0.26918767909581715  0.7308123108257376  1.0000
  Te  Te2       1.0  0.7308122955632673  0.730812384728424  0.2691876265200288  1.0000
  Te  Te3       1.0  0.7308123869733884  0.2691876158259972  0.26918764463856054  1.0000
  Te  Te4       1.0  0.2691875441532997  0.7308124196415834  0.7308124233314796  1.0000
  Te  Te5       1.0  0.2691876153593823  0.7308123967322738  0.26918761257658347  1.0000
  Te  Te6       1.0  0.7308122499861583  0.2691876520796176  0.7308124148764177  1.0000
