data_image0
_chemical_formula_structural       Sb2ZnCl6
_chemical_formula_sum              "Sb2 Zn1 Cl6"
_cell_length_a       6.9689974979686236
_cell_length_b       6.968997676140881
_cell_length_c       6.968996015223978
_cell_angle_alpha    60.000006527776286
_cell_angle_beta     60.00000421664271
_cell_angle_gamma    60.00000951107958

_space_group_name_H-M_alt    "P 1"
_space_group_IT_number       1

loop_
  _space_group_symop_operation_xyz
  'x, y, z'

loop_
  _atom_site_type_symbol
  _atom_site_label
  _atom_site_symmetry_multiplicity
  _atom_site_fract_x
  _atom_site_fract_y
  _atom_site_fract_z
  _atom_site_occupancy
  Sb  Sb1       1.0  0.24999767878935222  0.2500002312115166  0.24999885205553157  1.0000
  Sb  Sb2       1.0  0.7500008398794373  0.749999765717842  0.7499994234379957  1.0000
  Zn  Zn1       1.0  0.9999998968867568  0.9999999912128988  2.884083357747464e-07  1.0000
  Cl  Cl1       1.0  0.24315722341032997  0.24315749337593973  0.7568434066058706  1.0000
  Cl  Cl2       1.0  0.7568433284052194  0.7568424684051445  0.24315733523688715  1.0000
  Cl  Cl3       1.0  0.7568438516343913  0.24315689876913324  0.24315755154259627  1.0000
  Cl  Cl4       1.0  0.24315733611348553  0.7568422686586865  0.7568431905896439  1.0000
  Cl  Cl5       1.0  0.24315704626290077  0.7568431919662535  0.24315775018197544  1.0000
  Cl  Cl6       1.0  0.7568427908897606  0.24315769597450507  0.7568421856680569  1.0000
