data_image0
_chemical_formula_structural       Sb2ZrS6
_chemical_formula_sum              "Sb2 Zr1 S6"
_cell_length_a       6.373342057545426
_cell_length_b       6.373341811558337
_cell_length_c       6.373341963890906
_cell_angle_alpha    59.99999925435518
_cell_angle_beta     60.000001449989405
_cell_angle_gamma    60.000001387156885

_space_group_name_H-M_alt    "P 1"
_space_group_IT_number       1

loop_
  _space_group_symop_operation_xyz
  'x, y, z'

loop_
  _atom_site_type_symbol
  _atom_site_label
  _atom_site_symmetry_multiplicity
  _atom_site_fract_x
  _atom_site_fract_y
  _atom_site_fract_z
  _atom_site_occupancy
  Sb  Sb1       1.0  0.2499999928980307  0.24999998523181538  0.24999990427257254  1.0000
  Sb  Sb2       1.0  0.7499997747273701  0.7500002958307257  0.7499999569715086  1.0000
  Zr  Zr1       1.0  6.864025192332674e-09  0.9999999250549371  7.483544271146023e-08  1.0000
  S   S1        1.0  0.26983167039148204  0.2698313817336568  0.7301684596939864  1.0000
  S   S2        1.0  0.7301684668406758  0.7301685188385734  0.2698315482050721  1.0000
  S   S3        1.0  0.7301685152595505  0.26983147634096777  0.26983160782036714  1.0000
  S   S4        1.0  0.26983161844012166  0.7301684511346181  0.7301684417404644  1.0000
  S   S5        1.0  0.26983155324161145  0.7301685083047941  0.26983155239125145  1.0000
  S   S6        1.0  0.7301684035266808  0.2698314499174802  0.7301684541532951  1.0000
