data_image0
_chemical_formula_structural       Sb2ZnBr6
_chemical_formula_sum              "Sb2 Zn1 Br6"
_cell_length_a       7.350813613405981
_cell_length_b       7.350814418708855
_cell_length_c       7.350814660987723
_cell_angle_alpha    59.999999723046415
_cell_angle_beta     59.99999712301393
_cell_angle_gamma    59.9999923334477

_space_group_name_H-M_alt    "P 1"
_space_group_IT_number       1

loop_
  _space_group_symop_operation_xyz
  'x, y, z'

loop_
  _atom_site_type_symbol
  _atom_site_label
  _atom_site_symmetry_multiplicity
  _atom_site_fract_x
  _atom_site_fract_y
  _atom_site_fract_z
  _atom_site_occupancy
  Sb  Sb1       1.0  0.25000127581980475  0.24999908447627567  0.24999953774978814  1.0000
  Sb  Sb2       1.0  0.749998985679454  0.7499991161682119  0.7500017311605367  1.0000
  Zn  Zn1       1.0  0.9999999870983052  9.996809928190908e-08  0.9999999006906674  1.0000
  Br  Br1       1.0  0.24750067777413365  0.24750092141548272  0.7524992378782155  1.0000
  Br  Br2       1.0  0.7524988873239093  0.7524996134841643  0.24750046933032727  1.0000
  Br  Br3       1.0  0.7524990038785105  0.24750123666525006  0.24750029585898511  1.0000
  Br  Br4       1.0  0.24750107002973587  0.7524993882056339  0.7524990983549107  1.0000
  Br  Br5       1.0  0.24750110820268362  0.7524995236785403  0.24750030306214008  1.0000
  Br  Br6       1.0  0.7524990008686392  0.24750101455332255  0.7524994243386443  1.0000
