data_image0
_chemical_formula_structural       Sc2AsI6
_chemical_formula_sum              "Sc2 As1 I6"
_cell_length_a       7.835920703916288
_cell_length_b       7.835920619306304
_cell_length_c       7.835920692614504
_cell_angle_alpha    59.999999468007594
_cell_angle_beta     60.000000213204494
_cell_angle_gamma    59.999999603649194

_space_group_name_H-M_alt    "P 1"
_space_group_IT_number       1

loop_
  _space_group_symop_operation_xyz
  'x, y, z'

loop_
  _atom_site_type_symbol
  _atom_site_label
  _atom_site_symmetry_multiplicity
  _atom_site_fract_x
  _atom_site_fract_y
  _atom_site_fract_z
  _atom_site_occupancy
  Sc  Sc1       1.0  0.25000001075039074  0.25000012563249596  0.24999989388684807  1.0000
  Sc  Sc2       1.0  0.7499999953730832  0.7499999924024733  0.7500001603436834  1.0000
  As  As1       1.0  3.0840854594927465e-08  3.1259757138226554e-08  0.9999999957493528  1.0000
  I   I1        1.0  0.25669607648368414  0.25669612191742114  0.7433039041836872  1.0000
  I   I2        1.0  0.7433039018074804  0.7433038585746169  0.2566960578985963  1.0000
  I   I3        1.0  0.7433038908772852  0.2566961133754644  0.2566960845875607  1.0000
  I   I4        1.0  0.25669609991778214  0.7433038296048649  0.7433039180744586  1.0000
  I   I5        1.0  0.2566961205796335  0.7433038889671989  0.2566960830659413  1.0000
  I   I6        1.0  0.7433038794145834  0.2566960352572762  0.743303905231817  1.0000
