data_image0
_chemical_formula_structural       Sc2AsI6
_chemical_formula_sum              "Sc2 As1 I6"
_cell_length_a       7.835913619426914
_cell_length_b       7.8359133075812935
_cell_length_c       7.83591338836508
_cell_angle_alpha    60.00000065172412
_cell_angle_beta     59.999999457422305
_cell_angle_gamma    60.00000012676298

_space_group_name_H-M_alt    "P 1"
_space_group_IT_number       1

loop_
  _space_group_symop_operation_xyz
  'x, y, z'

loop_
  _atom_site_type_symbol
  _atom_site_label
  _atom_site_symmetry_multiplicity
  _atom_site_fract_x
  _atom_site_fract_y
  _atom_site_fract_z
  _atom_site_occupancy
  Sc  Sc1       1.0  0.2500001141644601  0.249999971869369  0.24999995162837904  1.0000
  Sc  Sc2       1.0  0.7499999834685868  0.7500000422102364  0.7499998715547921  1.0000
  As  As1       1.0  0.9999999771068304  1.5629893349791627e-08  3.298367299887965e-08  1.0000
  I   I1        1.0  0.2566959469803713  0.25669597192276905  0.7433040333572037  1.0000
  I   I2        1.0  0.7433040217650004  0.7433040265269452  0.25669601139727505  1.0000
  I   I3        1.0  0.7433039899786981  0.25669594893868153  0.25669600641501195  1.0000
  I   I4        1.0  0.2566960035650507  0.7433040370071184  0.7433040334684105  1.0000
  I   I5        1.0  0.2566959693035139  0.7433040162355654  0.25669601148026777  1.0000
  I   I6        1.0  0.7433039972838202  0.2566959665842559  0.7433040485490531  1.0000
