data_image0
_chemical_formula_structural       Sc2AsBr6
_chemical_formula_sum              "Sc2 As1 Br6"
_cell_length_a       7.170466536943248
_cell_length_b       7.170466899860905
_cell_length_c       7.17046728146141
_cell_angle_alpha    59.99999682701398
_cell_angle_beta     59.99999556810592
_cell_angle_gamma    59.99999653566227

_space_group_name_H-M_alt    "P 1"
_space_group_IT_number       1

loop_
  _space_group_symop_operation_xyz
  'x, y, z'

loop_
  _atom_site_type_symbol
  _atom_site_label
  _atom_site_symmetry_multiplicity
  _atom_site_fract_x
  _atom_site_fract_y
  _atom_site_fract_z
  _atom_site_occupancy
  Sc  Sc1       1.0  0.2500001086714918  0.25000072603055357  0.24999963238395712  1.0000
  Sc  Sc2       1.0  0.7500000334219082  0.7500000122960916  0.7500004429222645  1.0000
  As  As1       1.0  0.9999999859310515  0.9999999214301304  0.9999999710105104  1.0000
  Br  Br1       1.0  0.2521538752965599  0.25215391692365097  0.7478461297753952  1.0000
  Br  Br2       1.0  0.7478461590317932  0.7478459417620595  0.25215371961545446  1.0000
  Br  Br3       1.0  0.7478460122430585  0.2521538968966402  0.2521538798434359  1.0000
  Br  Br4       1.0  0.25215385114475203  0.7478458900513641  0.7478462401097301  1.0000
  Br  Br5       1.0  0.25215394229802746  0.7478458875807869  0.25215389699875396  1.0000
  Br  Br6       1.0  0.7478460393631052  0.2521538054249794  0.7478460852740373  1.0000
