data_image0
_chemical_formula_structural       Sc2AsF6
_chemical_formula_sum              "Sc2 As1 F6"
_cell_length_a       5.5555230832268165
_cell_length_b       5.555522554830482
_cell_length_c       5.555526213132476
_cell_angle_alpha    60.00000308860114
_cell_angle_beta     60.000000128696215
_cell_angle_gamma    59.999986734889276

_space_group_name_H-M_alt    "P 1"
_space_group_IT_number       1

loop_
  _space_group_symop_operation_xyz
  'x, y, z'

loop_
  _atom_site_type_symbol
  _atom_site_label
  _atom_site_symmetry_multiplicity
  _atom_site_fract_x
  _atom_site_fract_y
  _atom_site_fract_z
  _atom_site_occupancy
  Sc  Sc1       1.0  0.24999594954771132  0.24999924299309884  0.2500045244041794  1.0000
  Sc  Sc2       1.0  0.7500058686514937  0.7499974930864858  0.7499912584863813  1.0000
  As  As1       1.0  0.9999999396593792  1.1243229146499795e-07  1.2695498535987816e-07  1.0000
  F   F1        1.0  0.25925553126367346  0.25925827078123853  0.7407411697023876  1.0000
  F   F2        1.0  0.740743415690124  0.7407429449538925  0.2592611152221274  1.0000
  F   F3        1.0  0.7407444847691627  0.259256238467365  0.25925788549003476  1.0000
  F   F4        1.0  0.2592560266593776  0.7407441373321638  0.7407425107569122  1.0000
  F   F5        1.0  0.25925297287838306  0.7407437160598376  0.25926083386283716  1.0000
  F   F6        1.0  0.7407458096811926  0.25925783697190724  0.7407406014064909  1.0000
