data_image0
_chemical_formula_structural       Sc2AsBr6
_chemical_formula_sum              "Sc2 As1 Br6"
_cell_length_a       7.170369722292179
_cell_length_b       7.170369213364439
_cell_length_c       7.170369169177635
_cell_angle_alpha    59.9999989400789
_cell_angle_beta     59.9999990516594
_cell_angle_gamma    59.99999865534795

_space_group_name_H-M_alt    "P 1"
_space_group_IT_number       1

loop_
  _space_group_symop_operation_xyz
  'x, y, z'

loop_
  _atom_site_type_symbol
  _atom_site_label
  _atom_site_symmetry_multiplicity
  _atom_site_fract_x
  _atom_site_fract_y
  _atom_site_fract_z
  _atom_site_occupancy
  Sc  Sc1       1.0  0.24999981597881346  0.2500001818488425  0.24999997610460295  1.0000
  Sc  Sc2       1.0  0.7500002695892849  0.7500004140256099  0.7500002652210797  1.0000
  As  As1       1.0  0.9999999754871098  0.9999999624225937  0.9999999919955559  1.0000
  Br  Br1       1.0  0.2521572218579652  0.25215699290579696  0.7478429171255337  1.0000
  Br  Br2       1.0  0.7478428959321164  0.7478427574770169  0.25215693450220544  1.0000
  Br  Br3       1.0  0.7478428325221258  0.25215713614665625  0.25215711715374123  1.0000
  Br  Br4       1.0  0.2521570069627427  0.7478427679619086  0.7478428539434966  1.0000
  Br  Br5       1.0  0.25215709167026124  0.7478428368299814  0.2521571637456933  1.0000
  Br  Br6       1.0  0.7478429025756222  0.2521569460060462  0.7478427850287893  1.0000
