data_image0
_chemical_formula_structural       Sc2AsF6
_chemical_formula_sum              "Sc2 As1 F6"
_cell_length_a       5.555573305956857
_cell_length_b       5.555573541007406
_cell_length_c       5.555574586808065
_cell_angle_alpha    59.99999284659665
_cell_angle_beta     59.99999383140232
_cell_angle_gamma    59.999999522417106

_space_group_name_H-M_alt    "P 1"
_space_group_IT_number       1

loop_
  _space_group_symop_operation_xyz
  'x, y, z'

loop_
  _atom_site_type_symbol
  _atom_site_label
  _atom_site_symmetry_multiplicity
  _atom_site_fract_x
  _atom_site_fract_y
  _atom_site_fract_z
  _atom_site_occupancy
  Sc  Sc1       1.0  0.25000017881557995  0.24999990297458097  0.24999985509705855  1.0000
  Sc  Sc2       1.0  0.7499991493364335  0.7499987323152112  0.7500023167452092  1.0000
  As  As1       1.0  0.9999999984870505  7.936321568399583e-08  0.999999921475002  1.0000
  F   F1        1.0  0.2592470092275447  0.25924637565776826  0.7407533181735205  1.0000
  F   F2        1.0  0.7407531448446771  0.7407536727382179  0.25924610696111944  1.0000
  F   F3        1.0  0.7407537556403336  0.2592471808305115  0.25924609921759156  1.0000
  F   F4        1.0  0.25924630772156904  0.7407537008792275  0.7407530878148686  1.0000
  F   F5        1.0  0.2592473075654305  0.7407531243871857  0.25924581000183455  1.0000
  F   F6        1.0  0.7407531970270479  0.2592471444621874  0.7407534592455423  1.0000
