data_image0
_chemical_formula_structural       Sc2AsCl6
_chemical_formula_sum              "Sc2 As1 Cl6"
_cell_length_a       6.822650693908313
_cell_length_b       6.82265054651648
_cell_length_c       6.822650795760634
_cell_angle_alpha    60.00000168168416
_cell_angle_beta     60.00000039130145
_cell_angle_gamma    59.99999815861653

_space_group_name_H-M_alt    "P 1"
_space_group_IT_number       1

loop_
  _space_group_symop_operation_xyz
  'x, y, z'

loop_
  _atom_site_type_symbol
  _atom_site_label
  _atom_site_symmetry_multiplicity
  _atom_site_fract_x
  _atom_site_fract_y
  _atom_site_fract_z
  _atom_site_occupancy
  Sc  Sc1       1.0  0.2500005074316068  0.24999990731066135  0.24999955090245735  1.0000
  Sc  Sc2       1.0  0.7499998397635174  0.7499994383037567  0.7500010941645596  1.0000
  As  As1       1.0  0.9999999485576214  1.23862998455479e-07  0.9999999095585715  1.0000
  Cl  Cl1       1.0  0.25061143526863755  0.2506115431299278  0.7493886197061651  1.0000
  Cl  Cl2       1.0  0.7493882489162479  0.7493886084915368  0.2506112473921836  1.0000
  Cl  Cl3       1.0  0.7493884035525195  0.2506117897511014  0.25061114447026445  1.0000
  Cl  Cl4       1.0  0.2506115270584248  0.7493886634498323  0.7493884750080361  1.0000
  Cl  Cl5       1.0  0.25061173548771226  0.749388451313682  0.2506113296982971  1.0000
  Cl  Cl6       1.0  0.7493883630780566  0.2506114777134023  0.7493886203229263  1.0000
