data_image0
_chemical_formula_structural       Sc2AsCl6
_chemical_formula_sum              "Sc2 As1 Cl6"
_cell_length_a       6.822849550854567
_cell_length_b       6.822849458879591
_cell_length_c       6.822849779749705
_cell_angle_alpha    59.99999886902359
_cell_angle_beta     59.99999689401891
_cell_angle_gamma    59.99999957901566

_space_group_name_H-M_alt    "P 1"
_space_group_IT_number       1

loop_
  _space_group_symop_operation_xyz
  'x, y, z'

loop_
  _atom_site_type_symbol
  _atom_site_label
  _atom_site_symmetry_multiplicity
  _atom_site_fract_x
  _atom_site_fract_y
  _atom_site_fract_z
  _atom_site_occupancy
  Sc  Sc1       1.0  0.2499999617080535  0.2500001570056962  0.2499998424242275  1.0000
  Sc  Sc2       1.0  0.74999969187376  0.7499999845548524  0.7500002745833783  1.0000
  As  As1       1.0  9.479213442132766e-08  0.9999999694839212  1.0270298720549219e-07  1.0000
  Cl  Cl1       1.0  0.250594372661282  0.25059428077991985  0.7494057905242771  1.0000
  Cl  Cl2       1.0  0.7494055983267164  0.7494056346026177  0.25059434828974414  1.0000
  Cl  Cl3       1.0  0.7494057728358393  0.2505942988584604  0.2505942310162363  1.0000
  Cl  Cl4       1.0  0.2505943771713767  0.749405577032679  0.7494057984609657  1.0000
  Cl  Cl5       1.0  0.250594556875063  0.7494056265153691  0.25059409195773713  1.0000
  Cl  Cl6       1.0  0.7494055748881349  0.25059446657846335  0.7494055229225356  1.0000
