data_image0
_chemical_formula_structural       Sc2BI6
_chemical_formula_sum              "Sc2 B1 I6"
_cell_length_a       7.5735360913219045
_cell_length_b       7.573536037523826
_cell_length_c       7.573536407047033
_cell_angle_alpha    60.00000003175286
_cell_angle_beta     59.99999985379633
_cell_angle_gamma    59.99999857015552

_space_group_name_H-M_alt    "P 1"
_space_group_IT_number       1

loop_
  _space_group_symop_operation_xyz
  'x, y, z'

loop_
  _atom_site_type_symbol
  _atom_site_label
  _atom_site_symmetry_multiplicity
  _atom_site_fract_x
  _atom_site_fract_y
  _atom_site_fract_z
  _atom_site_occupancy
  Sc  Sc1       1.0  0.25000020119132654  0.24999996903761929  0.2499998406357764  1.0000
  Sc  Sc2       1.0  0.7499999140614237  0.749999926518521  0.7500001157566469  1.0000
  B   B1        1.0  2.8151880710086286e-08  1.6171373135007185e-08  0.9999999078578556  1.0000
  I   I1        1.0  0.24689156302895934  0.24689149021331114  0.7531084672563781  1.0000
  I   I2        1.0  0.7531083950286959  0.7531085201595912  0.2468915472960511  1.0000
  I   I3        1.0  0.7531084810030141  0.2468915875361047  0.24689147616604043  1.0000
  I   I4        1.0  0.24689148835873564  0.7531084163682481  0.7531085795413918  1.0000
  I   I5        1.0  0.2468915127055564  0.7531085257160187  0.24689152053272473  1.0000
  I   I6        1.0  0.7531084196628702  0.2468915525766579  0.7531085402441758  1.0000
