data_image0
_chemical_formula_structural       Sc2BF6
_chemical_formula_sum              "Sc2 B1 F6"
_cell_length_a       5.28791352925656
_cell_length_b       5.287914589188604
_cell_length_c       5.287913867662602
_cell_angle_alpha    59.999993459259215
_cell_angle_beta     59.99999520244039
_cell_angle_gamma    59.999983675856065

_space_group_name_H-M_alt    "P 1"
_space_group_IT_number       1

loop_
  _space_group_symop_operation_xyz
  'x, y, z'

loop_
  _atom_site_type_symbol
  _atom_site_label
  _atom_site_symmetry_multiplicity
  _atom_site_fract_x
  _atom_site_fract_y
  _atom_site_fract_z
  _atom_site_occupancy
  Sc  Sc1       1.0  0.2500031762242731  0.25000044358721707  0.24999918839794796  1.0000
  Sc  Sc2       1.0  0.749999225044487  0.749999709478857  0.7500028449608706  1.0000
  B   B1        1.0  0.9999996455996083  4.5395980730994255e-07  0.999999679792256  1.0000
  F   F1        1.0  0.2450546700051378  0.24505524852719615  0.7549448152814866  1.0000
  F   F2        1.0  0.7549439652710574  0.7549445941798025  0.24505515633775973  1.0000
  F   F3        1.0  0.7549443963017926  0.24505529443955718  0.24505474694427684  1.0000
  F   F4        1.0  0.2450553908230504  0.7549444926803727  0.7549443437096931  1.0000
  F   F5        1.0  0.2450555501630181  0.7549444031808766  0.24505467036540987  1.0000
  F   F6        1.0  0.7549439869005908  0.24505532835219357  0.7549445731126166  1.0000
