data_image0
_chemical_formula_structural       Sc2BiBr6
_chemical_formula_sum              "Sc2 Bi1 Br6"
_cell_length_a       7.375285677983834
_cell_length_b       7.375285556628636
_cell_length_c       7.375285437970405
_cell_angle_alpha    59.9999989348641
_cell_angle_beta     59.99999902132617
_cell_angle_gamma    59.99999958025311

_space_group_name_H-M_alt    "P 1"
_space_group_IT_number       1

loop_
  _space_group_symop_operation_xyz
  'x, y, z'

loop_
  _atom_site_type_symbol
  _atom_site_label
  _atom_site_symmetry_multiplicity
  _atom_site_fract_x
  _atom_site_fract_y
  _atom_site_fract_z
  _atom_site_occupancy
  Sc  Sc1       1.0  0.24999994088338356  0.24999995091704613  0.25000001072763317  1.0000
  Sc  Sc2       1.0  0.750000076027897  0.749999975636036  0.7500000596364488  1.0000
  Bi  Bi1       1.0  9.947345797028813e-09  0.9999999983393935  0.9999999863654722  1.0000
  Br  Br1       1.0  0.2641010661558086  0.2641011273903624  0.7358989328206145  1.0000
  Br  Br2       1.0  0.7358988918446713  0.7358989054415508  0.2641010636919018  1.0000
  Br  Br3       1.0  0.7358989152235139  0.2641011277795616  0.26410107120643056  1.0000
  Br  Br4       1.0  0.2641010166658228  0.735898988082688  0.7358988887112103  1.0000
  Br  Br5       1.0  0.26410112691013066  0.735898893325545  0.2641011004931729  1.0000
  Br  Br6       1.0  0.7358989560264414  0.26410104651239197  0.7358988922512022  1.0000
