data_image0
_chemical_formula_structural       Sc2BiI6
_chemical_formula_sum              "Sc2 Bi1 I6"
_cell_length_a       7.997264894715635
_cell_length_b       7.9972648985235395
_cell_length_c       7.997264909872053
_cell_angle_alpha    59.999999539026454
_cell_angle_beta     59.99999866068699
_cell_angle_gamma    59.999999829603176

_space_group_name_H-M_alt    "P 1"
_space_group_IT_number       1

loop_
  _space_group_symop_operation_xyz
  'x, y, z'

loop_
  _atom_site_type_symbol
  _atom_site_label
  _atom_site_symmetry_multiplicity
  _atom_site_fract_x
  _atom_site_fract_y
  _atom_site_fract_z
  _atom_site_occupancy
  Sc  Sc1       1.0  0.25000002599932647  0.2499999659862595  0.25000001520084797  1.0000
  Sc  Sc2       1.0  0.7499999905900011  0.7500000648873383  0.7500000158456738  1.0000
  Bi  Bi1       1.0  0.9999999967919742  0.999999966307997  2.595257957185088e-08  1.0000
  I   I1        1.0  0.2650905736332442  0.2650905912374617  0.7349094216961226  1.0000
  I   I2        1.0  0.7349094219836999  0.7349094289159531  0.26509055642316987  1.0000
  I   I3        1.0  0.7349093948292831  0.26509058961085924  0.2650905863237556  1.0000
  I   I4        1.0  0.2650906064905805  0.7349094091021902  0.7349093796574198  1.0000
  I   I5        1.0  0.2650905937844932  0.7349094090408974  0.26509058144431297  1.0000
  I   I6        1.0  0.734909383164762  0.26509058048342377  0.734909421323371  1.0000
