data_image0
_chemical_formula_structural       Sc2BiCl6
_chemical_formula_sum              "Sc2 Bi1 Cl6"
_cell_length_a       7.083841516752203
_cell_length_b       7.083842352867484
_cell_length_c       7.0838421737959365
_cell_angle_alpha    59.99999843585148
_cell_angle_beta     59.99999876100617
_cell_angle_gamma    59.99999877178457

_space_group_name_H-M_alt    "P 1"
_space_group_IT_number       1

loop_
  _space_group_symop_operation_xyz
  'x, y, z'

loop_
  _atom_site_type_symbol
  _atom_site_label
  _atom_site_symmetry_multiplicity
  _atom_site_fract_x
  _atom_site_fract_y
  _atom_site_fract_z
  _atom_site_occupancy
  Sc  Sc1       1.0  0.25000012727526033  0.2499999090888241  0.2499998611853974  1.0000
  Sc  Sc2       1.0  0.750000022056682  0.7500000730519338  0.7500001382733591  1.0000
  Bi  Bi1       1.0  0.9999999877336787  0.9999999878975087  1.6419396251464686e-08  1.0000
  Cl  Cl1       1.0  0.2623564507807432  0.2623564300721539  0.73764354802363  1.0000
  Cl  Cl2       1.0  0.7376435165930888  0.7376436627199624  0.2623563995653736  1.0000
  Cl  Cl3       1.0  0.737643550699003  0.26235648169732434  0.26235642060950776  1.0000
  Cl  Cl4       1.0  0.2623563945152789  0.7376434624070415  0.7376435629949329  1.0000
  Cl  Cl5       1.0  0.2623564424031676  0.7376436152106942  0.26235640268974236  1.0000
  Cl  Cl6       1.0  0.7376435230129583  0.2623563807614895  0.7376436126397052  1.0000
