data_image0
_chemical_formula_structural       Sc2BBr6
_chemical_formula_sum              "Sc2 B1 Br6"
_cell_length_a       7.005984064049589
_cell_length_b       7.005983145080156
_cell_length_c       7.005983548697927
_cell_angle_alpha    59.99999695611542
_cell_angle_beta     59.99999268476563
_cell_angle_gamma    59.999993206453475

_space_group_name_H-M_alt    "P 1"
_space_group_IT_number       1

loop_
  _space_group_symop_operation_xyz
  'x, y, z'

loop_
  _atom_site_type_symbol
  _atom_site_label
  _atom_site_symmetry_multiplicity
  _atom_site_fract_x
  _atom_site_fract_y
  _atom_site_fract_z
  _atom_site_occupancy
  Sc  Sc1       1.0  0.24999935004574741  0.2500005553369185  0.2500002659139612  1.0000
  Sc  Sc2       1.0  0.7499999012029247  0.7500000140170306  0.7499988155293664  1.0000
  B   B1        1.0  2.5422149869745452e-06  0.9999971942329737  3.1162212522006547e-07  1.0000
  Br  Br1       1.0  0.2363291957198766  0.23632930105653344  0.7636707751739442  1.0000
  Br  Br2       1.0  0.763670830057158  0.7636707840622594  0.23632953994412104  1.0000
  Br  Br3       1.0  0.7636703105301815  0.2363296436067538  0.23632976817320134  1.0000
  Br  Br4       1.0  0.23632892927520127  0.7636712666348215  0.7636712096432897  1.0000
  Br  Br5       1.0  0.23632868227415324  0.7636711543688396  0.2363291204405442  1.0000
  Br  Br6       1.0  0.7636702479707201  0.23633008627143115  0.7636701997934282  1.0000
