data_image0
_chemical_formula_structural       Sc2BiF6
_chemical_formula_sum              "Sc2 Bi1 F6"
_cell_length_a       5.743598837192602
_cell_length_b       5.743599153175691
_cell_length_c       5.743599062525356
_cell_angle_alpha    59.99999871597664
_cell_angle_beta     59.99999904495572
_cell_angle_gamma    59.999997051379744

_space_group_name_H-M_alt    "P 1"
_space_group_IT_number       1

loop_
  _space_group_symop_operation_xyz
  'x, y, z'

loop_
  _atom_site_type_symbol
  _atom_site_label
  _atom_site_symmetry_multiplicity
  _atom_site_fract_x
  _atom_site_fract_y
  _atom_site_fract_z
  _atom_site_occupancy
  Sc  Sc1       1.0  0.24999924267625895  0.24999977434472248  0.24999969631858876  1.0000
  Sc  Sc2       1.0  0.7499996002666723  0.749999610903315  0.74999994845267  1.0000
  Bi  Bi1       1.0  0.9999999633456818  0.999999989338178  0.9999999783902864  1.0000
  F   F1        1.0  0.26991536289974394  0.26991524654751947  0.7300852141721499  1.0000
  F   F2        1.0  0.7300845694114351  0.7300848210571851  0.26991568625102746  1.0000
  F   F3        1.0  0.7300854514585411  0.26991552347656184  0.26991503963688834  1.0000
  F   F4        1.0  0.26991548908340457  0.730084631555079  0.7300847349226626  1.0000
  F   F5        1.0  0.26991544595344275  0.7300848526769489  0.2699152258074139  1.0000
  F   F6        1.0  0.7300848809420651  0.2699155027970148  0.7300844837474881  1.0000
