data_image0
_chemical_formula_structural       Sc2CrBr6
_chemical_formula_sum              "Sc2 Cr1 Br6"
_cell_length_a       6.99264310380871
_cell_length_b       6.992643024084869
_cell_length_c       6.9926432672172005
_cell_angle_alpha    60.00000161949278
_cell_angle_beta     60.000001261861044
_cell_angle_gamma    60.00000194985508

_space_group_name_H-M_alt    "P 1"
_space_group_IT_number       1

loop_
  _space_group_symop_operation_xyz
  'x, y, z'

loop_
  _atom_site_type_symbol
  _atom_site_label
  _atom_site_symmetry_multiplicity
  _atom_site_fract_x
  _atom_site_fract_y
  _atom_site_fract_z
  _atom_site_occupancy
  Sc  Sc1       1.0  0.2499999807342346  0.2500000153498671  0.24999988753309976  1.0000
  Sc  Sc2       1.0  0.750000025320495  0.7499999304521808  0.7500002551590887  1.0000
  Cr  Cr1       1.0  2.653827656411645e-08  0.9999999649704733  0.9999999541930213  1.0000
  Br  Br1       1.0  0.24326004980897012  0.2432600941348419  0.7567399587100456  1.0000
  Br  Br2       1.0  0.7567399328927409  0.7567399217262527  0.24325996184879098  1.0000
  Br  Br3       1.0  0.7567399531704961  0.24326015235665818  0.24325998473178106  1.0000
  Br  Br4       1.0  0.2432599665124439  0.7567399931136841  0.7567400240881413  1.0000
  Br  Br5       1.0  0.24326007226462662  0.7567399266441919  0.2432600151510014  1.0000
  Br  Br6       1.0  0.7567399798435648  0.24325999989161368  0.7567399639897675  1.0000
