data_image0
_chemical_formula_structural       Sc2CF6
_chemical_formula_sum              "Sc2 C1 F6"
_cell_length_a       5.25898098176501
_cell_length_b       5.258982072633651
_cell_length_c       5.258981393676953
_cell_angle_alpha    60.000007064146864
_cell_angle_beta     60.000004646929135
_cell_angle_gamma    60.000009532859465

_space_group_name_H-M_alt    "P 1"
_space_group_IT_number       1

loop_
  _space_group_symop_operation_xyz
  'x, y, z'

loop_
  _atom_site_type_symbol
  _atom_site_label
  _atom_site_symmetry_multiplicity
  _atom_site_fract_x
  _atom_site_fract_y
  _atom_site_fract_z
  _atom_site_occupancy
  Sc  Sc1       1.0  0.2499991300312137  0.2500002272855515  0.24999931598237035  1.0000
  Sc  Sc2       1.0  0.7500011393260687  0.7500008099441962  0.7499994129882905  1.0000
  C   C1        1.0  5.227765053691253e-08  0.9999998299930214  1.6344765357247726e-07  1.0000
  F   F1        1.0  0.25739669644790625  0.2573969678076806  0.742603359724039  1.0000
  F   F2        1.0  0.7426033311841611  0.7426028514268526  0.25739700042202324  1.0000
  F   F3        1.0  0.7426030112923746  0.25739689279706984  0.25739685239919763  1.0000
  F   F4        1.0  0.2573967800746187  0.742602765745928  0.7426033962791999  1.0000
  F   F5        1.0  0.25739636980646335  0.7426031921622307  0.2573975262737538  1.0000
  F   F6        1.0  0.7426034274816199  0.2573965013137092  0.742602918749645  1.0000
