data_image0
_chemical_formula_structural       Sc2CrF6
_chemical_formula_sum              "Sc2 Cr1 F6"
_cell_length_a       5.347403167242316
_cell_length_b       5.347403047633072
_cell_length_c       5.347403542587597
_cell_angle_alpha    59.99999136996167
_cell_angle_beta     59.99999451097444
_cell_angle_gamma    59.99999284596679

_space_group_name_H-M_alt    "P 1"
_space_group_IT_number       1

loop_
  _space_group_symop_operation_xyz
  'x, y, z'

loop_
  _atom_site_type_symbol
  _atom_site_label
  _atom_site_symmetry_multiplicity
  _atom_site_fract_x
  _atom_site_fract_y
  _atom_site_fract_z
  _atom_site_occupancy
  Sc  Sc1       1.0  0.2500000866507727  0.24999984001607373  0.24999967769826834  1.0000
  Sc  Sc2       1.0  0.750000424588145  0.7499994925638965  0.75000022681391  1.0000
  Cr  Cr1       1.0  0.9999999239392886  1.7635731560496364e-07  0.9999999685523568  1.0000
  F   F1        1.0  0.24944071964871736  0.24944142596218202  0.750559151481916  1.0000
  F   F2        1.0  0.7505591240683499  0.75055882734039  0.24944095556156048  1.0000
  F   F3        1.0  0.75055872124493  0.2494412581736581  0.249441099949811  1.0000
  F   F4        1.0  0.24944115050282126  0.7505588462558516  0.7505591348372526  1.0000
  F   F5        1.0  0.24944092960017278  0.7505590322152282  0.24944097623360298  1.0000
  F   F6        1.0  0.7505588157440147  0.24944132186296328  0.7505589519521882  1.0000
