data_image0
_chemical_formula_structural       Sc2CoBr6
_chemical_formula_sum              "Sc2 Co1 Br6"
_cell_length_a       6.882185133686231
_cell_length_b       6.882184996336983
_cell_length_c       6.882185080704765
_cell_angle_alpha    60.000000482264625
_cell_angle_beta     60.00000074110842
_cell_angle_gamma    59.99999958269659

_space_group_name_H-M_alt    "P 1"
_space_group_IT_number       1

loop_
  _space_group_symop_operation_xyz
  'x, y, z'

loop_
  _atom_site_type_symbol
  _atom_site_label
  _atom_site_symmetry_multiplicity
  _atom_site_fract_x
  _atom_site_fract_y
  _atom_site_fract_z
  _atom_site_occupancy
  Sc  Sc1       1.0  0.2499999659296768  0.25000003839370366  0.2499999219200964  1.0000
  Sc  Sc2       1.0  0.7500000818598108  0.749999935442801  0.7500002387338474  1.0000
  Co  Co1       1.0  1.4405326037619328e-08  7.118348793048086e-09  0.999999970348813  1.0000
  Br  Br1       1.0  0.24691342073070222  0.24691347121926438  0.7530865753763468  1.0000
  Br  Br2       1.0  0.7530865468117278  0.7530865168539368  0.24691337126820578  1.0000
  Br  Br3       1.0  0.7530865679837186  0.24691349857710654  0.2469133539906216  1.0000
  Br  Br4       1.0  0.24691338145750932  0.7530865588999978  0.7530865887979841  1.0000
  Br  Br5       1.0  0.24691346908470602  0.753086565413751  0.24691338172826302  1.0000
  Br  Br6       1.0  0.7530865541308135  0.246913406643165  0.7530865988498823  1.0000
