data_image0
_chemical_formula_structural       Sc2CrCl6
_chemical_formula_sum              "Sc2 Cr1 Cl6"
_cell_length_a       6.741776211598627
_cell_length_b       6.741776316826115
_cell_length_c       6.741776018142029
_cell_angle_alpha    59.99999917568092
_cell_angle_beta     59.999999468069475
_cell_angle_gamma    59.99999941324573

_space_group_name_H-M_alt    "P 1"
_space_group_IT_number       1

loop_
  _space_group_symop_operation_xyz
  'x, y, z'

loop_
  _atom_site_type_symbol
  _atom_site_label
  _atom_site_symmetry_multiplicity
  _atom_site_fract_x
  _atom_site_fract_y
  _atom_site_fract_z
  _atom_site_occupancy
  Sc  Sc1       1.0  0.2500001853501347  0.2500002437246087  0.24999981852433148  1.0000
  Sc  Sc2       1.0  0.7500003178680836  0.7500000481133807  0.749999815330762  1.0000
  Cr  Cr1       1.0  0.999999971004901  0.9999999636669991  0.999999959982906  1.0000
  Cl  Cl1       1.0  0.2412692239015946  0.24126934221102925  0.7587307533585913  1.0000
  Cl  Cl2       1.0  0.7587306589583842  0.7587306680461935  0.24126929883366652  1.0000
  Cl  Cl3       1.0  0.7587305827299001  0.24126930549438075  0.24126938034242726  1.0000
  Cl  Cl4       1.0  0.24126919286776616  0.7587306411800879  0.7587307528225001  1.0000
  Cl  Cl5       1.0  0.24126924017679796  0.7587305172842949  0.24126946629402496  1.0000
  Cl  Cl6       1.0  0.7587306370819732  0.2412692477251594  0.7587307751041381  1.0000
