data_image0
_chemical_formula_structural       Sc2CrI6
_chemical_formula_sum              "Sc2 Cr1 I6"
_cell_length_a       7.684507937391793
_cell_length_b       7.684507979074163
_cell_length_c       7.684508045133916
_cell_angle_alpha    59.999998586195424
_cell_angle_beta     59.99999915201882
_cell_angle_gamma    59.999999925697686

_space_group_name_H-M_alt    "P 1"
_space_group_IT_number       1

loop_
  _space_group_symop_operation_xyz
  'x, y, z'

loop_
  _atom_site_type_symbol
  _atom_site_label
  _atom_site_symmetry_multiplicity
  _atom_site_fract_x
  _atom_site_fract_y
  _atom_site_fract_z
  _atom_site_occupancy
  Sc  Sc1       1.0  0.25000004329116887  0.25000007046807393  0.2499999243107147  1.0000
  Sc  Sc2       1.0  0.7499998725325222  0.7499999691489939  0.749999919926014  1.0000
  Cr  Cr1       1.0  0.9999999473010097  3.187568703919209e-08  4.0341999520813125e-08  1.0000
  I   I1        1.0  0.2474670979621666  0.24746705049218434  0.7525329417937187  1.0000
  I   I2        1.0  0.7525329240485781  0.7525329365299964  0.24746713591082264  1.0000
  I   I3        1.0  0.7525329024540959  0.2474671034961489  0.24746706365317678  1.0000
  I   I4        1.0  0.24746718400326373  0.7525328659944049  0.7525329073094237  1.0000
  I   I5        1.0  0.24746710625933827  0.75253287969675  0.24746710073594086  1.0000
  I   I6        1.0  0.7525329210640208  0.24746709138758724  0.7525329614601034  1.0000
