data_image0
_chemical_formula_structural       Sc2CoI6
_chemical_formula_sum              "Sc2 Co1 I6"
_cell_length_a       7.558425316753014
_cell_length_b       7.558425295527767
_cell_length_c       7.558425349773439
_cell_angle_alpha    59.99999984773936
_cell_angle_beta     60.00000003301558
_cell_angle_gamma    60.00000011238271

_space_group_name_H-M_alt    "P 1"
_space_group_IT_number       1

loop_
  _space_group_symop_operation_xyz
  'x, y, z'

loop_
  _atom_site_type_symbol
  _atom_site_label
  _atom_site_symmetry_multiplicity
  _atom_site_fract_x
  _atom_site_fract_y
  _atom_site_fract_z
  _atom_site_occupancy
  Sc  Sc1       1.0  0.25000002035579294  0.24999993585014238  0.2500000204237773  1.0000
  Sc  Sc2       1.0  0.7499999762679944  0.7500000619485822  0.7499999764719466  1.0000
  Co  Co1       1.0  8.085952253263498e-09  3.2407408450126402e-09  0.9999999771373038  1.0000
  I   I1        1.0  0.24675888384385464  0.24675885002097342  0.7532411349104513  1.0000
  I   I2        1.0  0.7532411128726034  0.7532411429166398  0.24675888024581574  1.0000
  I   I3        1.0  0.7532411265648248  0.24675887232868532  0.24675887130243396  1.0000
  I   I4        1.0  0.24675885692655813  0.7532411465348545  0.7532411401494612  1.0000
  I   I5        1.0  0.24675887000484656  0.7532411366635203  0.24675885912322712  1.0000
  I   I6        1.0  0.753241143701651  0.2467588465518705  0.7532411431379429  1.0000
