data_image0
_chemical_formula_structural       Sc2CoF6
_chemical_formula_sum              "Sc2 Co1 F6"
_cell_length_a       5.185219337182152
_cell_length_b       5.185219308848367
_cell_length_c       5.1852193554088135
_cell_angle_alpha    59.99999879019723
_cell_angle_beta     59.99999897220595
_cell_angle_gamma    59.99999875558935

_space_group_name_H-M_alt    "P 1"
_space_group_IT_number       1

loop_
  _space_group_symop_operation_xyz
  'x, y, z'

loop_
  _atom_site_type_symbol
  _atom_site_label
  _atom_site_symmetry_multiplicity
  _atom_site_fract_x
  _atom_site_fract_y
  _atom_site_fract_z
  _atom_site_occupancy
  Sc  Sc1       1.0  0.24999997583941583  0.25000003943938237  0.24999998742801308  1.0000
  Sc  Sc2       1.0  0.7499999797290745  0.7499999884085616  0.750000016561889  1.0000
  Co  Co1       1.0  1.4777846654556311e-08  4.2515863990768305e-08  0.9999999944958489  1.0000
  F   F1        1.0  0.2545983759604959  0.25459835343421705  0.7454016249637007  1.0000
  F   F2        1.0  0.7454016326948825  0.7454016153639154  0.2545983762219871  1.0000
  F   F3        1.0  0.7454015878872683  0.2545983908178891  0.2545983556887462  1.0000
  F   F4        1.0  0.2545984062140785  0.745401601600168  0.7454016274640839  1.0000
  F   F5        1.0  0.2545983877057896  0.7454016238840927  0.2545983913128327  1.0000
  F   F6        1.0  0.7454016417790899  0.25459834255204683  0.7454016392102752  1.0000
