data_image0
_chemical_formula_structural       Sc2CBr6
_chemical_formula_sum              "Sc2 C1 Br6"
_cell_length_a       7.053658673727948
_cell_length_b       7.053658908345796
_cell_length_c       7.053658786180251
_cell_angle_alpha    60.000000655904195
_cell_angle_beta     59.99999895441748
_cell_angle_gamma    60.000000581080506

_space_group_name_H-M_alt    "P 1"
_space_group_IT_number       1

loop_
  _space_group_symop_operation_xyz
  'x, y, z'

loop_
  _atom_site_type_symbol
  _atom_site_label
  _atom_site_symmetry_multiplicity
  _atom_site_fract_x
  _atom_site_fract_y
  _atom_site_fract_z
  _atom_site_occupancy
  Sc  Sc1       1.0  0.25000015630915284  0.24999986335115926  0.2500003419177282  1.0000
  Sc  Sc2       1.0  0.7500001553393688  0.7500000102442705  0.7499996681641905  1.0000
  C   C1        1.0  0.9999999422247003  0.9999999965273496  2.7163364861144143e-07  1.0000
  Br  Br1       1.0  0.254845078770707  0.2548450865996246  0.7451547752477157  1.0000
  Br  Br2       1.0  0.7451547529290833  0.7451549745189706  0.25484520241628894  1.0000
  Br  Br3       1.0  0.7451547619907879  0.25484515986864725  0.2548451332183463  1.0000
  Br  Br4       1.0  0.25484508047305365  0.7451549377127855  0.7451547627063517  1.0000
  Br  Br5       1.0  0.254845146956792  0.7451547852311063  0.2548451033454688  1.0000
  Br  Br6       1.0  0.7451549228406049  0.2548451803895802  0.7451547434751196  1.0000
