data_image0
_chemical_formula_structural       Sc2CoCl6
_chemical_formula_sum              "Sc2 Co1 Cl6"
_cell_length_a       6.5506873026388295
_cell_length_b       6.550687444751795
_cell_length_c       6.550687377009343
_cell_angle_alpha    60.00000112766816
_cell_angle_beta     59.999999876597464
_cell_angle_gamma    60.00000023276466

_space_group_name_H-M_alt    "P 1"
_space_group_IT_number       1

loop_
  _space_group_symop_operation_xyz
  'x, y, z'

loop_
  _atom_site_type_symbol
  _atom_site_label
  _atom_site_symmetry_multiplicity
  _atom_site_fract_x
  _atom_site_fract_y
  _atom_site_fract_z
  _atom_site_occupancy
  Sc  Sc1       1.0  0.2499999490466224  0.2499999155360923  0.25000002257430676  1.0000
  Sc  Sc2       1.0  0.7499999763465209  0.7500000887529934  0.7500002060537898  1.0000
  Co  Co1       1.0  0.9999999860051937  0.9999999943910695  0.9999998953100667  1.0000
  Cl  Cl1       1.0  0.24545526970349318  0.24545520195667636  0.7545447879232883  1.0000
  Cl  Cl2       1.0  0.7545447628945845  0.7545448191591958  0.2454551313866568  1.0000
  Cl  Cl3       1.0  0.7545447830082452  0.24545529329102184  0.2454551801995014  1.0000
  Cl  Cl4       1.0  0.24545518217889367  0.7545447502605702  0.7545448058682162  1.0000
  Cl  Cl5       1.0  0.24545528030548117  0.7545447798655024  0.24545522542679146  1.0000
  Cl  Cl6       1.0  0.7545448144520761  0.24545515524678033  0.7545447485488139  1.0000
