data_image0
_chemical_formula_structural       Sc2CI6
_chemical_formula_sum              "Sc2 C1 I6"
_cell_length_a       7.589675144993369
_cell_length_b       7.589675136657046
_cell_length_c       7.589675139033223
_cell_angle_alpha    60.00000037633282
_cell_angle_beta     59.999999689828094
_cell_angle_gamma    59.99999972961957

_space_group_name_H-M_alt    "P 1"
_space_group_IT_number       1

loop_
  _space_group_symop_operation_xyz
  'x, y, z'

loop_
  _atom_site_type_symbol
  _atom_site_label
  _atom_site_symmetry_multiplicity
  _atom_site_fract_x
  _atom_site_fract_y
  _atom_site_fract_z
  _atom_site_occupancy
  Sc  Sc1       1.0  0.24999999219095495  0.24999992998279513  0.2500000324844065  1.0000
  Sc  Sc2       1.0  0.7499999688233076  0.7500000368442818  0.7499999436229849  1.0000
  C   C1        1.0  0.9999999955122255  2.2591781375132715e-08  0.9999999856776788  1.0000
  I   I1        1.0  0.253138299691157  0.2531383120631686  0.7468616982996434  1.0000
  I   I2        1.0  0.7468617047056746  0.746861693492677  0.25313834347601444  1.0000
  I   I3        1.0  0.7468616835613818  0.25313826653583205  0.25313833541962993  1.0000
  I   I4        1.0  0.2531383108922253  0.7468617551569998  0.7468616610966048  1.0000
  I   I5        1.0  0.2531383341040005  0.7468617087957056  0.25313828381004333  1.0000
  I   I6        1.0  0.7468617067302095  0.2531382741683582  0.7468617181033299  1.0000
