data_image0
_chemical_formula_structural       Sc2FeBr6
_chemical_formula_sum              "Sc2 Fe1 Br6"
_cell_length_a       6.849221705736582
_cell_length_b       6.8492216130975905
_cell_length_c       6.849221859141463
_cell_angle_alpha    59.99999886219428
_cell_angle_beta     59.99999940985895
_cell_angle_gamma    59.999999531892

_space_group_name_H-M_alt    "P 1"
_space_group_IT_number       1

loop_
  _space_group_symop_operation_xyz
  'x, y, z'

loop_
  _atom_site_type_symbol
  _atom_site_label
  _atom_site_symmetry_multiplicity
  _atom_site_fract_x
  _atom_site_fract_y
  _atom_site_fract_z
  _atom_site_occupancy
  Sc  Sc1       1.0  0.24999997869037147  0.25000002084204137  0.25000002549708683  1.0000
  Sc  Sc2       1.0  0.7499999740809965  0.7500000142460223  0.7499999896451187  1.0000
  Fe  Fe1       1.0  0.9999999854230787  0.999999998211848  1.5482635985691923e-08  1.0000
  Br  Br1       1.0  0.23570713195441212  0.23570714356294098  0.7642928568851323  1.0000
  Br  Br2       1.0  0.7642928951332884  0.7642928253635015  0.23570715563973763  1.0000
  Br  Br3       1.0  0.7642928445901833  0.23570713179080455  0.23570717098923638  1.0000
  Br  Br4       1.0  0.23570715988268523  0.7642928442882456  0.7642928083861892  1.0000
  Br  Br5       1.0  0.2357071721582243  0.7642928657445067  0.2357071529680857  1.0000
  Br  Br6       1.0  0.7642928539068149  0.2357071568264937  0.7642928098855178  1.0000
